MODEL 1
REMARK VINA RESULT:      -7.5      0.000      0.000
REMARK  Name = 
REMARK  9 active torsions:
REMARK  status: ('A' for Active; 'I' for Inactive)
REMARK    1  A    between atoms: C_2  and  O_3
REMARK    2  A    between atoms: C_2  and  C_4
REMARK    3  A    between atoms: C_7  and  C_8
REMARK    4  A    between atoms: C_8  and  N_9
REMARK    5  A    between atoms: C_13  and  C_14
REMARK    6  A    between atoms: C_17  and  O_18
REMARK    7  A    between atoms: C_19  and  C_20
REMARK    8  A    between atoms: C_20  and  O_22
REMARK    9  A    between atoms: N_26  and  C_27
REMARK                            x       y       z     vdW  Elec       q    Type
REMARK                         _______ _______ _______ _____ _____    ______ ____
ROOT
ATOM      1  N   UNL     1       0.520  10.500  18.613  0.00  0.00    +0.000 N 
ATOM      2  C   UNL     1      -0.389   9.929  17.742  0.00  0.00    +0.000 C 
ATOM      3  O   UNL     1      -0.177   9.001  16.973  0.00  0.00    +0.000 OA
ATOM      4  C   UNL     1      -1.732  10.556  17.925  0.00  0.00    +0.000 C 
ATOM      5  C   UNL     1      -2.864  10.071  17.394  0.00  0.00    +0.000 C 
ATOM      6  S   UNL     1      -1.590  11.899  18.985  0.00  0.00    +0.000 S 
ATOM      7  C   UNL     1       0.016  11.420  19.498  0.00  0.00    +0.000 C 
ATOM      8  N   UNL     1       0.662  11.793  20.554  0.00  0.00    +0.000 NA
ENDROOT
BRANCH   5   9
ATOM      9  C   UNL     1      -4.196  10.653  17.614  0.00  0.00    +0.000 A 
ATOM     10  C   UNL     1      -4.579  11.793  16.902  0.00  0.00    +0.000 A 
ATOM     11  C   UNL     1      -5.817  12.397  17.143  0.00  0.00    +0.000 A 
ATOM     12  C   UNL     1      -6.680  11.862  18.099  0.00  0.00    +0.000 A 
ATOM     13  C   UNL     1      -6.321  10.713  18.820  0.00  0.00    +0.000 A 
ATOM     14  C   UNL     1      -5.073  10.114  18.566  0.00  0.00    +0.000 A 
BRANCH  12  15
ATOM     15  O   UNL     1      -7.887  12.469  18.323  0.00  0.00    +0.000 OA
ATOM     16  H   UNL     1      -8.134  12.345  19.259  0.00  0.00    +0.000 HD
ENDBRANCH  12  15
BRANCH  13  17
ATOM     17  C   UNL     1      -7.188  10.087  19.864  0.00  0.00    +0.000 C 
ATOM     18  O   UNL     1      -7.423  10.638  20.929  0.00  0.00    +0.000 OA
BRANCH  17  19
ATOM     19  O   UNL     1      -7.702   8.880  19.549  0.00  0.00    +0.000 OA
ATOM     20  H   UNL     1      -8.049   8.406  20.335  0.00  0.00    +0.000 HD
ENDBRANCH  17  19
ENDBRANCH  13  17
ENDBRANCH   5   9
BRANCH   8  21
ATOM     21  C   UNL     1       0.052  12.568  21.556  0.00  0.00    +0.000 A 
ATOM     22  C   UNL     1       0.281  13.949  21.655  0.00  0.00    +0.000 A 
ATOM     23  C   UNL     1      -0.318  14.711  22.659  0.00  0.00    +0.000 A 
ATOM     24  C   UNL     1      -1.225  14.115  23.525  0.00  0.00    +0.000 A 
ATOM     25  C   UNL     1      -1.533  12.762  23.383  0.00  0.00    +0.000 A 
ATOM     26  C   UNL     1      -0.891  11.991  22.407  0.00  0.00    +0.000 A 
ENDBRANCH   8  21
BRANCH   1  27
ATOM     27  C   UNL     1       1.863   9.959  18.745  0.00  0.00    +0.000 C 
BRANCH  27  31
ATOM     28  C   UNL     1       1.839   5.888  20.211  0.00  0.00    +0.000 A 
ATOM     29  C   UNL     1       1.317   6.917  21.001  0.00  0.00    +0.000 A 
ATOM     30  C   UNL     1       1.337   8.238  20.536  0.00  0.00    +0.000 A 
ATOM     31  C   UNL     1       1.869   8.539  19.272  0.00  0.00    +0.000 A 
ATOM     32  C   UNL     1       2.387   7.500  18.489  0.00  0.00    +0.000 A 
ATOM     33  C   UNL     1       2.359   6.178  18.945  0.00  0.00    +0.000 A 
BRANCH  28  35
ATOM     34  O   UNL     1       2.405   4.128  21.713  0.00  0.00    +0.000 OA
ATOM     35  C   UNL     1       1.783   4.498  20.732  0.00  0.00    +0.000 C 
BRANCH  35  36
ATOM     36  O   UNL     1       1.016   3.671  19.990  0.00  0.00    +0.000 OA
ATOM     37  H   UNL     1       1.383   3.444  19.115  0.00  0.00    +0.000 HD
ENDBRANCH  35  36
ENDBRANCH  28  35
ENDBRANCH  27  31
ENDBRANCH   1  27
TORSDOF 9
ENDMDL
MODEL 2
REMARK VINA RESULT:      -7.5      2.623      8.280
REMARK  Name = 
REMARK  9 active torsions:
REMARK  status: ('A' for Active; 'I' for Inactive)
REMARK    1  A    between atoms: C_2  and  O_3
REMARK    2  A    between atoms: C_2  and  C_4
REMARK    3  A    between atoms: C_7  and  C_8
REMARK    4  A    between atoms: C_8  and  N_9
REMARK    5  A    between atoms: C_13  and  C_14
REMARK    6  A    between atoms: C_17  and  O_18
REMARK    7  A    between atoms: C_19  and  C_20
REMARK    8  A    between atoms: C_20  and  O_22
REMARK    9  A    between atoms: N_26  and  C_27
REMARK                            x       y       z     vdW  Elec       q    Type
REMARK                         _______ _______ _______ _____ _____    ______ ____
ROOT
ATOM      1  N   UNL     1      -0.103  11.937  20.052  0.00  0.00    +0.000 N 
ATOM      2  C   UNL     1       0.799  11.191  20.787  0.00  0.00    +0.000 C 
ATOM      3  O   UNL     1       1.281  11.491  21.871  0.00  0.00    +0.000 OA
ATOM      4  C   UNL     1       1.056   9.887  20.104  0.00  0.00    +0.000 C 
ATOM      5  C   UNL     1       1.704   8.860  20.672  0.00  0.00    +0.000 C 
ATOM      6  S   UNL     1       0.311   9.901  18.558  0.00  0.00    +0.000 S 
ATOM      7  C   UNL     1      -0.633  11.327  18.943  0.00  0.00    +0.000 C 
ATOM      8  N   UNL     1      -1.698  11.763  18.353  0.00  0.00    +0.000 NA
ENDROOT
BRANCH   5   9
ATOM      9  C   UNL     1       1.913   7.556  20.025  0.00  0.00    +0.000 A 
ATOM     10  C   UNL     1       2.337   7.505  18.695  0.00  0.00    +0.000 A 
ATOM     11  C   UNL     1       2.483   6.276  18.043  0.00  0.00    +0.000 A 
ATOM     12  C   UNL     1       2.203   5.090  18.721  0.00  0.00    +0.000 A 
ATOM     13  C   UNL     1       1.785   5.115  20.060  0.00  0.00    +0.000 A 
ATOM     14  C   UNL     1       1.645   6.359  20.704  0.00  0.00    +0.000 A 
BRANCH  12  15
ATOM     15  O   UNL     1       2.349   3.896  18.065  0.00  0.00    +0.000 OA
ATOM     16  H   UNL     1       2.361   4.064  17.103  0.00  0.00    +0.000 HD
ENDBRANCH  12  15
BRANCH  13  17
ATOM     17  C   UNL     1       1.460   3.888  20.850  0.00  0.00    +0.000 C 
ATOM     18  O   UNL     1       2.065   3.594  21.870  0.00  0.00    +0.000 OA
BRANCH  17  19
ATOM     19  O   UNL     1       0.451   3.134  20.368  0.00  0.00    +0.000 OA
ATOM     20  H   UNL     1      -0.150   3.645  19.784  0.00  0.00    +0.000 HD
ENDBRANCH  17  19
ENDBRANCH  13  17
ENDBRANCH   5   9
BRANCH   8  21
ATOM     21  C   UNL     1      -2.347  11.016  17.356  0.00  0.00    +0.000 A 
ATOM     22  C   UNL     1      -3.102   9.875  17.670  0.00  0.00    +0.000 A 
ATOM     23  C   UNL     1      -3.735   9.130  16.674  0.00  0.00    +0.000 A 
ATOM     24  C   UNL     1      -3.693   9.569  15.357  0.00  0.00    +0.000 A 
ATOM     25  C   UNL     1      -3.023  10.750  15.040  0.00  0.00    +0.000 A 
ATOM     26  C   UNL     1      -2.347  11.466  16.035  0.00  0.00    +0.000 A 
ENDBRANCH   8  21
BRANCH   1  27
ATOM     27  C   UNL     1      -0.641  13.181  20.579  0.00  0.00    +0.000 C 
BRANCH  27  31
ATOM     28  C   UNL     1      -3.892  12.593  23.374  0.00  0.00    +0.000 A 
ATOM     29  C   UNL     1      -2.568  12.529  23.820  0.00  0.00    +0.000 A 
ATOM     30  C   UNL     1      -1.513  12.704  22.916  0.00  0.00    +0.000 A 
ATOM     31  C   UNL     1      -1.773  12.955  21.560  0.00  0.00    +0.000 A 
ATOM     32  C   UNL     1      -3.104  13.019  21.124  0.00  0.00    +0.000 A 
ATOM     33  C   UNL     1      -4.160  12.855  22.027  0.00  0.00    +0.000 A 
BRANCH  28  35
ATOM     34  O   UNL     1      -6.148  12.252  24.056  0.00  0.00    +0.000 OA
ATOM     35  C   UNL     1      -4.983  12.420  24.368  0.00  0.00    +0.000 C 
BRANCH  35  36
ATOM     36  O   UNL     1      -4.568  12.514  25.650  0.00  0.00    +0.000 OA
ATOM     37  H   UNL     1      -3.626  12.738  25.761  0.00  0.00    +0.000 HD
ENDBRANCH  35  36
ENDBRANCH  28  35
ENDBRANCH  27  31
ENDBRANCH   1  27
TORSDOF 9
ENDMDL
MODEL 3
REMARK VINA RESULT:      -7.4      0.174      1.003
REMARK  Name = 
REMARK  9 active torsions:
REMARK  status: ('A' for Active; 'I' for Inactive)
REMARK    1  A    between atoms: C_2  and  O_3
REMARK    2  A    between atoms: C_2  and  C_4
REMARK    3  A    between atoms: C_7  and  C_8
REMARK    4  A    between atoms: C_8  and  N_9
REMARK    5  A    between atoms: C_13  and  C_14
REMARK    6  A    between atoms: C_17  and  O_18
REMARK    7  A    between atoms: C_19  and  C_20
REMARK    8  A    between atoms: C_20  and  O_22
REMARK    9  A    between atoms: N_26  and  C_27
REMARK                            x       y       z     vdW  Elec       q    Type
REMARK                         _______ _______ _______ _____ _____    ______ ____
ROOT
ATOM      1  N   UNL     1       0.495  10.599  18.584  0.00  0.00    +0.000 N 
ATOM      2  C   UNL     1      -0.420   9.995  17.741  0.00  0.00    +0.000 C 
ATOM      3  O   UNL     1      -0.213   9.040  17.005  0.00  0.00    +0.000 OA
ATOM      4  C   UNL     1      -1.763  10.628  17.910  0.00  0.00    +0.000 C 
ATOM      5  C   UNL     1      -2.897  10.123  17.405  0.00  0.00    +0.000 C 
ATOM      6  S   UNL     1      -1.615  12.009  18.919  0.00  0.00    +0.000 S 
ATOM      7  C   UNL     1      -0.004  11.550  19.437  0.00  0.00    +0.000 C 
ATOM      8  N   UNL     1       0.649  11.962  20.475  0.00  0.00    +0.000 NA
ENDROOT
BRANCH   5   9
ATOM      9  C   UNL     1      -4.228  10.712  17.613  0.00  0.00    +0.000 A 
ATOM     10  C   UNL     1      -4.598  11.855  16.899  0.00  0.00    +0.000 A 
ATOM     11  C   UNL     1      -5.835  12.465  17.128  0.00  0.00    +0.000 A 
ATOM     12  C   UNL     1      -6.710  11.934  18.075  0.00  0.00    +0.000 A 
ATOM     13  C   UNL     1      -6.365  10.783  18.798  0.00  0.00    +0.000 A 
ATOM     14  C   UNL     1      -5.118  10.177  18.556  0.00  0.00    +0.000 A 
BRANCH  12  15
ATOM     15  O   UNL     1      -7.916  12.548  18.288  0.00  0.00    +0.000 OA
ATOM     16  H   UNL     1      -8.627  11.982  17.929  0.00  0.00    +0.000 HD
ENDBRANCH  12  15
BRANCH  13  17
ATOM     17  C   UNL     1      -7.245  10.160  19.834  0.00  0.00    +0.000 C 
ATOM     18  O   UNL     1      -7.616  10.772  20.825  0.00  0.00    +0.000 OA
BRANCH  17  19
ATOM     19  O   UNL     1      -7.612   8.884  19.597  0.00  0.00    +0.000 OA
ATOM     20  H   UNL     1      -7.587   8.660  18.642  0.00  0.00    +0.000 HD
ENDBRANCH  17  19
ENDBRANCH  13  17
ENDBRANCH   5   9
BRANCH   8  21
ATOM     21  C   UNL     1       0.045  12.774  21.452  0.00  0.00    +0.000 A 
ATOM     22  C   UNL     1      -0.836  12.241  22.404  0.00  0.00    +0.000 A 
ATOM     23  C   UNL     1      -1.442  13.053  23.364  0.00  0.00    +0.000 A 
ATOM     24  C   UNL     1      -1.102  14.398  23.438  0.00  0.00    +0.000 A 
ATOM     25  C   UNL     1      -0.159  14.925  22.556  0.00  0.00    +0.000 A 
ATOM     26  C   UNL     1       0.407  14.116  21.563  0.00  0.00    +0.000 A 
ENDBRANCH   8  21
BRANCH   1  27
ATOM     27  C   UNL     1       1.839  10.063  18.726  0.00  0.00    +0.000 C 
BRANCH  27  31
ATOM     28  C   UNL     1       1.823   6.002  20.220  0.00  0.00    +0.000 A 
ATOM     29  C   UNL     1       1.269   7.031  20.988  0.00  0.00    +0.000 A 
ATOM     30  C   UNL     1       1.285   8.349  20.515  0.00  0.00    +0.000 A 
ATOM     31  C   UNL     1       1.847   8.648  19.264  0.00  0.00    +0.000 A 
ATOM     32  C   UNL     1       2.398   7.609  18.501  0.00  0.00    +0.000 A 
ATOM     33  C   UNL     1       2.373   6.290  18.967  0.00  0.00    +0.000 A 
BRANCH  28  35
ATOM     34  O   UNL     1       1.004   3.768  20.324  0.00  0.00    +0.000 OA
ATOM     35  C   UNL     1       1.770   4.615  20.750  0.00  0.00    +0.000 C 
BRANCH  35  36
ATOM     36  O   UNL     1       2.617   4.395  21.778  0.00  0.00    +0.000 OA
ATOM     37  H   UNL     1       2.323   3.718  22.415  0.00  0.00    +0.000 HD
ENDBRANCH  35  36
ENDBRANCH  28  35
ENDBRANCH  27  31
ENDBRANCH   1  27
TORSDOF 9
ENDMDL
MODEL 4
REMARK VINA RESULT:      -7.1      3.786      6.355
REMARK  Name = 
REMARK  9 active torsions:
REMARK  status: ('A' for Active; 'I' for Inactive)
REMARK    1  A    between atoms: C_2  and  O_3
REMARK    2  A    between atoms: C_2  and  C_4
REMARK    3  A    between atoms: C_7  and  C_8
REMARK    4  A    between atoms: C_8  and  N_9
REMARK    5  A    between atoms: C_13  and  C_14
REMARK    6  A    between atoms: C_17  and  O_18
REMARK    7  A    between atoms: C_19  and  C_20
REMARK    8  A    between atoms: C_20  and  O_22
REMARK    9  A    between atoms: N_26  and  C_27
REMARK                            x       y       z     vdW  Elec       q    Type
REMARK                         _______ _______ _______ _____ _____    ______ ____
ROOT
ATOM      1  N   UNL     1       0.057  10.778  20.457  0.00  0.00    +0.000 N 
ATOM      2  C   UNL     1       1.041  11.713  20.720  0.00  0.00    +0.000 C 
ATOM      3  O   UNL     1       2.018  11.560  21.439  0.00  0.00    +0.000 OA
ATOM      4  C   UNL     1       0.794  12.950  19.919  0.00  0.00    +0.000 C 
ATOM      5  C   UNL     1       1.685  13.943  19.782  0.00  0.00    +0.000 C 
ATOM      6  S   UNL     1      -0.736  12.830  19.149  0.00  0.00    +0.000 S 
ATOM      7  C   UNL     1      -0.856  11.115  19.490  0.00  0.00    +0.000 C 
ATOM      8  N   UNL     1      -1.622  10.240  18.923  0.00  0.00    +0.000 NA
ENDROOT
BRANCH   5   9
ATOM      9  C   UNL     1       1.469  15.138  18.953  0.00  0.00    +0.000 A 
ATOM     10  C   UNL     1       2.516  15.636  18.173  0.00  0.00    +0.000 A 
ATOM     11  C   UNL     1       2.349  16.806  17.425  0.00  0.00    +0.000 A 
ATOM     12  C   UNL     1       1.131  17.485  17.455  0.00  0.00    +0.000 A 
ATOM     13  C   UNL     1       0.062  16.999  18.223  0.00  0.00    +0.000 A 
ATOM     14  C   UNL     1       0.243  15.819  18.969  0.00  0.00    +0.000 A 
BRANCH  12  15
ATOM     15  O   UNL     1       0.988  18.631  16.718  0.00  0.00    +0.000 OA
ATOM     16  H   UNL     1       1.872  19.009  16.548  0.00  0.00    +0.000 HD
ENDBRANCH  12  15
BRANCH  13  17
ATOM     17  C   UNL     1      -1.269  17.674  18.310  0.00  0.00    +0.000 C 
ATOM     18  O   UNL     1      -1.559  18.631  17.608  0.00  0.00    +0.000 OA
BRANCH  17  19
ATOM     19  O   UNL     1      -2.130  17.151  19.206  0.00  0.00    +0.000 OA
ATOM     20  H   UNL     1      -3.055  17.439  19.047  0.00  0.00    +0.000 HD
ENDBRANCH  17  19
ENDBRANCH  13  17
ENDBRANCH   5   9
BRANCH   8  21
ATOM     21  C   UNL     1      -2.397  10.559  17.794  0.00  0.00    +0.000 A 
ATOM     22  C   UNL     1      -2.050  10.100  16.514  0.00  0.00    +0.000 A 
ATOM     23  C   UNL     1      -2.816  10.429  15.396  0.00  0.00    +0.000 A 
ATOM     24  C   UNL     1      -3.992  11.150  15.557  0.00  0.00    +0.000 A 
ATOM     25  C   UNL     1      -4.399  11.537  16.834  0.00  0.00    +0.000 A 
ATOM     26  C   UNL     1      -3.600  11.248  17.946  0.00  0.00    +0.000 A 
ENDBRANCH   8  21
BRANCH   1  27
ATOM     27  C   UNL     1       0.153   9.429  20.990  0.00  0.00    +0.000 C 
BRANCH  27  31
ATOM     28  C   UNL     1       2.819   6.926  18.677  0.00  0.00    +0.000 A 
ATOM     29  C   UNL     1       2.369   6.496  19.929  0.00  0.00    +0.000 A 
ATOM     30  C   UNL     1       1.518   7.310  20.687  0.00  0.00    +0.000 A 
ATOM     31  C   UNL     1       1.101   8.556  20.194  0.00  0.00    +0.000 A 
ATOM     32  C   UNL     1       1.557   8.976  18.938  0.00  0.00    +0.000 A 
ATOM     33  C   UNL     1       2.398   8.161  18.173  0.00  0.00    +0.000 A 
BRANCH  28  35
ATOM     34  O   UNL     1       4.569   6.433  17.138  0.00  0.00    +0.000 OA
ATOM     35  C   UNL     1       3.706   6.025  17.896  0.00  0.00    +0.000 C 
BRANCH  35  36
ATOM     36  O   UNL     1       3.435   4.714  18.069  0.00  0.00    +0.000 OA
ATOM     37  H   UNL     1       4.214   4.150  18.226  0.00  0.00    +0.000 HD
ENDBRANCH  35  36
ENDBRANCH  28  35
ENDBRANCH  27  31
ENDBRANCH   1  27
TORSDOF 9
ENDMDL
MODEL 5
REMARK VINA RESULT:      -7.0      3.749      6.328
REMARK  Name = 
REMARK  9 active torsions:
REMARK  status: ('A' for Active; 'I' for Inactive)
REMARK    1  A    between atoms: C_2  and  O_3
REMARK    2  A    between atoms: C_2  and  C_4
REMARK    3  A    between atoms: C_7  and  C_8
REMARK    4  A    between atoms: C_8  and  N_9
REMARK    5  A    between atoms: C_13  and  C_14
REMARK    6  A    between atoms: C_17  and  O_18
REMARK    7  A    between atoms: C_19  and  C_20
REMARK    8  A    between atoms: C_20  and  O_22
REMARK    9  A    between atoms: N_26  and  C_27
REMARK                            x       y       z     vdW  Elec       q    Type
REMARK                         _______ _______ _______ _____ _____    ______ ____
ROOT
ATOM      1  N   UNL     1       0.043  10.662  20.414  0.00  0.00    +0.000 N 
ATOM      2  C   UNL     1       1.008  11.615  20.685  0.00  0.00    +0.000 C 
ATOM      3  O   UNL     1       2.001  11.469  21.384  0.00  0.00    +0.000 OA
ATOM      4  C   UNL     1       0.715  12.865  19.921  0.00  0.00    +0.000 C 
ATOM      5  C   UNL     1       1.578  13.884  19.794  0.00  0.00    +0.000 C 
ATOM      6  S   UNL     1      -0.824  12.725  19.173  0.00  0.00    +0.000 S 
ATOM      7  C   UNL     1      -0.895  11.000  19.472  0.00  0.00    +0.000 C 
ATOM      8  N   UNL     1      -1.648  10.120  18.896  0.00  0.00    +0.000 NA
ENDROOT
BRANCH   5   9
ATOM      9  C   UNL     1       1.317  15.093  19.000  0.00  0.00    +0.000 A 
ATOM     10  C   UNL     1       2.330  15.624  18.197  0.00  0.00    +0.000 A 
ATOM     11  C   UNL     1       2.121  16.808  17.482  0.00  0.00    +0.000 A 
ATOM     12  C   UNL     1       0.895  17.467  17.567  0.00  0.00    +0.000 A 
ATOM     13  C   UNL     1      -0.139  16.949  18.360  0.00  0.00    +0.000 A 
ATOM     14  C   UNL     1       0.083  15.756  19.073  0.00  0.00    +0.000 A 
BRANCH  12  15
ATOM     15  O   UNL     1       0.711  18.627  16.862  0.00  0.00    +0.000 OA
ATOM     16  H   UNL     1       1.100  18.521  15.972  0.00  0.00    +0.000 HD
ENDBRANCH  12  15
BRANCH  13  17
ATOM     17  C   UNL     1      -1.476  17.602  18.507  0.00  0.00    +0.000 C 
ATOM     18  O   UNL     1      -1.781  18.605  17.880  0.00  0.00    +0.000 OA
BRANCH  17  19
ATOM     19  O   UNL     1      -2.325  17.005  19.369  0.00  0.00    +0.000 OA
ATOM     20  H   UNL     1      -2.008  16.121  19.651  0.00  0.00    +0.000 HD
ENDBRANCH  17  19
ENDBRANCH  13  17
ENDBRANCH   5   9
BRANCH   8  21
ATOM     21  C   UNL     1      -2.450  10.447  17.789  0.00  0.00    +0.000 A 
ATOM     22  C   UNL     1      -3.619  11.210  17.931  0.00  0.00    +0.000 A 
ATOM     23  C   UNL     1      -4.418  11.521  16.830  0.00  0.00    +0.000 A 
ATOM     24  C   UNL     1      -4.008  11.147  15.557  0.00  0.00    +0.000 A 
ATOM     25  C   UNL     1      -2.802  10.466  15.388  0.00  0.00    +0.000 A 
ATOM     26  C   UNL     1      -2.031  10.112  16.501  0.00  0.00    +0.000 A 
ENDBRANCH   8  21
BRANCH   1  27
ATOM     27  C   UNL     1       0.184   9.302  20.911  0.00  0.00    +0.000 C 
BRANCH  27  31
ATOM     28  C   UNL     1       2.905   6.927  18.528  0.00  0.00    +0.000 A 
ATOM     29  C   UNL     1       2.445   8.156  18.045  0.00  0.00    +0.000 A 
ATOM     30  C   UNL     1       1.552   8.921  18.807  0.00  0.00    +0.000 A 
ATOM     31  C   UNL     1       1.121   8.468  20.063  0.00  0.00    +0.000 A 
ATOM     32  C   UNL     1       1.590   7.236  20.538  0.00  0.00    +0.000 A 
ATOM     33  C   UNL     1       2.490   6.475  19.785  0.00  0.00    +0.000 A 
BRANCH  28  35
ATOM     34  O   UNL     1       3.810   4.945  17.568  0.00  0.00    +0.000 OA
ATOM     35  C   UNL     1       3.865   6.155  17.698  0.00  0.00    +0.000 C 
BRANCH  35  36
ATOM     36  O   UNL     1       4.832   6.914  17.141  0.00  0.00    +0.000 OA
ATOM     37  H   UNL     1       4.528   7.766  16.777  0.00  0.00    +0.000 HD
ENDBRANCH  35  36
ENDBRANCH  28  35
ENDBRANCH  27  31
ENDBRANCH   1  27
TORSDOF 9
ENDMDL
MODEL 6
REMARK VINA RESULT:      -7.0      2.557      8.212
REMARK  Name = 
REMARK  9 active torsions:
REMARK  status: ('A' for Active; 'I' for Inactive)
REMARK    1  A    between atoms: C_2  and  O_3
REMARK    2  A    between atoms: C_2  and  C_4
REMARK    3  A    between atoms: C_7  and  C_8
REMARK    4  A    between atoms: C_8  and  N_9
REMARK    5  A    between atoms: C_13  and  C_14
REMARK    6  A    between atoms: C_17  and  O_18
REMARK    7  A    between atoms: C_19  and  C_20
REMARK    8  A    between atoms: C_20  and  O_22
REMARK    9  A    between atoms: N_26  and  C_27
REMARK                            x       y       z     vdW  Elec       q    Type
REMARK                         _______ _______ _______ _____ _____    ______ ____
ROOT
ATOM      1  N   UNL     1      -0.071  12.054  19.996  0.00  0.00    +0.000 N 
ATOM      2  C   UNL     1       0.867  11.308  20.687  0.00  0.00    +0.000 C 
ATOM      3  O   UNL     1       1.397  11.607  21.748  0.00  0.00    +0.000 OA
ATOM      4  C   UNL     1       1.097  10.008  19.988  0.00  0.00    +0.000 C 
ATOM      5  C   UNL     1       1.774   8.981  20.523  0.00  0.00    +0.000 C 
ATOM      6  S   UNL     1       0.282  10.024  18.477  0.00  0.00    +0.000 S 
ATOM      7  C   UNL     1      -0.648  11.445  18.910  0.00  0.00    +0.000 C 
ATOM      8  N   UNL     1      -1.740  11.880  18.370  0.00  0.00    +0.000 NA
ENDROOT
BRANCH   5   9
ATOM      9  C   UNL     1       1.958   7.680  19.863  0.00  0.00    +0.000 A 
ATOM     10  C   UNL     1       2.377   7.634  18.531  0.00  0.00    +0.000 A 
ATOM     11  C   UNL     1       2.498   6.409  17.867  0.00  0.00    +0.000 A 
ATOM     12  C   UNL     1       2.200   5.222  18.535  0.00  0.00    +0.000 A 
ATOM     13  C   UNL     1       1.786   5.241  19.874  0.00  0.00    +0.000 A 
ATOM     14  C   UNL     1       1.670   6.481  20.532  0.00  0.00    +0.000 A 
BRANCH  12  15
ATOM     15  O   UNL     1       2.322   4.032  17.866  0.00  0.00    +0.000 OA
ATOM     16  H   UNL     1       2.097   4.173  16.927  0.00  0.00    +0.000 HD
ENDBRANCH  12  15
BRANCH  13  17
ATOM     17  C   UNL     1       1.443   4.013  20.654  0.00  0.00    +0.000 C 
ATOM     18  O   UNL     1       0.603   3.213  20.267  0.00  0.00    +0.000 OA
BRANCH  17  19
ATOM     19  O   UNL     1       2.126   3.841  21.804  0.00  0.00    +0.000 OA
ATOM     20  H   UNL     1       3.052   3.558  21.648  0.00  0.00    +0.000 HD
ENDBRANCH  17  19
ENDBRANCH  13  17
ENDBRANCH   5   9
BRANCH   8  21
ATOM     21  C   UNL     1      -2.432  11.133  17.401  0.00  0.00    +0.000 A 
ATOM     22  C   UNL     1      -2.372  11.466  16.039  0.00  0.00    +0.000 A 
ATOM     23  C   UNL     1      -3.070  10.728  15.082  0.00  0.00    +0.000 A 
ATOM     24  C   UNL     1      -3.767   9.590  15.467  0.00  0.00    +0.000 A 
ATOM     25  C   UNL     1      -3.763   9.193  16.805  0.00  0.00    +0.000 A 
ATOM     26  C   UNL     1      -3.103   9.966  17.767  0.00  0.00    +0.000 A 
ENDBRANCH   8  21
BRANCH   1  27
ATOM     27  C   UNL     1      -0.588  13.294  20.551  0.00  0.00    +0.000 C 
BRANCH  27  31
ATOM     28  C   UNL     1      -3.885  12.587  23.263  0.00  0.00    +0.000 A 
ATOM     29  C   UNL     1      -4.130  13.096  21.984  0.00  0.00    +0.000 A 
ATOM     30  C   UNL     1      -3.065  13.340  21.109  0.00  0.00    +0.000 A 
ATOM     31  C   UNL     1      -1.745  13.067  21.502  0.00  0.00    +0.000 A 
ATOM     32  C   UNL     1      -1.512  12.555  22.785  0.00  0.00    +0.000 A 
ATOM     33  C   UNL     1      -2.575  12.300  23.658  0.00  0.00    +0.000 A 
BRANCH  28  35
ATOM     34  O   UNL     1      -6.191  12.248  23.752  0.00  0.00    +0.000 OA
ATOM     35  C   UNL     1      -5.044  12.325  24.155  0.00  0.00    +0.000 C 
BRANCH  35  36
ATOM     36  O   UNL     1      -4.712  12.227  25.460  0.00  0.00    +0.000 OA
ATOM     37  H   UNL     1      -5.358  11.752  26.015  0.00  0.00    +0.000 HD
ENDBRANCH  35  36
ENDBRANCH  28  35
ENDBRANCH  27  31
ENDBRANCH   1  27
TORSDOF 9
ENDMDL
MODEL 7
REMARK VINA RESULT:      -6.9      3.519      8.601
REMARK  Name = 
REMARK  9 active torsions:
REMARK  status: ('A' for Active; 'I' for Inactive)
REMARK    1  A    between atoms: C_2  and  O_3
REMARK    2  A    between atoms: C_2  and  C_4
REMARK    3  A    between atoms: C_7  and  C_8
REMARK    4  A    between atoms: C_8  and  N_9
REMARK    5  A    between atoms: C_13  and  C_14
REMARK    6  A    between atoms: C_17  and  O_18
REMARK    7  A    between atoms: C_19  and  C_20
REMARK    8  A    between atoms: C_20  and  O_22
REMARK    9  A    between atoms: N_26  and  C_27
REMARK                            x       y       z     vdW  Elec       q    Type
REMARK                         _______ _______ _______ _____ _____    ______ ____
ROOT
ATOM      1  N   UNL     1      -0.521  10.941  21.482  0.00  0.00    +0.000 N 
ATOM      2  C   UNL     1       0.339  10.017  22.045  0.00  0.00    +0.000 C 
ATOM      3  O   UNL     1       0.655   9.940  23.225  0.00  0.00    +0.000 OA
ATOM      4  C   UNL     1       0.784   9.037  21.009  0.00  0.00    +0.000 C 
ATOM      5  C   UNL     1       1.434   7.898  21.286  0.00  0.00    +0.000 C 
ATOM      6  S   UNL     1       0.241   9.559  19.466  0.00  0.00    +0.000 S 
ATOM      7  C   UNL     1      -0.855  10.734  20.167  0.00  0.00    +0.000 C 
ATOM      8  N   UNL     1      -1.869  11.313  19.610  0.00  0.00    +0.000 NA
ENDROOT
BRANCH   5   9
ATOM      9  C   UNL     1       1.827   6.904  20.275  0.00  0.00    +0.000 A 
ATOM     10  C   UNL     1       2.575   7.306  19.165  0.00  0.00    +0.000 A 
ATOM     11  C   UNL     1       2.906   6.389  18.163  0.00  0.00    +0.000 A 
ATOM     12  C   UNL     1       2.488   5.062  18.267  0.00  0.00    +0.000 A 
ATOM     13  C   UNL     1       1.744   4.633  19.375  0.00  0.00    +0.000 A 
ATOM     14  C   UNL     1       1.420   5.567  20.378  0.00  0.00    +0.000 A 
BRANCH  12  15
ATOM     15  O   UNL     1       2.819   4.179  17.273  0.00  0.00    +0.000 OA
ATOM     16  H   UNL     1       2.465   3.298  17.503  0.00  0.00    +0.000 HD
ENDBRANCH  12  15
BRANCH  13  17
ATOM     17  C   UNL     1       1.255   3.232  19.553  0.00  0.00    +0.000 C 
ATOM     18  O   UNL     1       1.333   2.648  20.624  0.00  0.00    +0.000 OA
BRANCH  17  19
ATOM     19  O   UNL     1       0.712   2.659  18.459  0.00  0.00    +0.000 OA
ATOM     20  H   UNL     1      -0.170   2.271  18.640  0.00  0.00    +0.000 HD
ENDBRANCH  17  19
ENDBRANCH  13  17
ENDBRANCH   5   9
BRANCH   8  21
ATOM     21  C   UNL     1      -2.325  10.934  18.335  0.00  0.00    +0.000 A 
ATOM     22  C   UNL     1      -2.019  11.690  17.193  0.00  0.00    +0.000 A 
ATOM     23  C   UNL     1      -2.485  11.317  15.932  0.00  0.00    +0.000 A 
ATOM     24  C   UNL     1      -3.191  10.129  15.785  0.00  0.00    +0.000 A 
ATOM     25  C   UNL     1      -3.426   9.319  16.897  0.00  0.00    +0.000 A 
ATOM     26  C   UNL     1      -3.000   9.725  18.167  0.00  0.00    +0.000 A 
ENDBRANCH   8  21
BRANCH   1  27
ATOM     27  C   UNL     1      -1.218  11.909  22.312  0.00  0.00    +0.000 C 
BRANCH  27  31
ATOM     28  C   UNL     1       0.735  15.769  22.408  0.00  0.00    +0.000 A 
ATOM     29  C   UNL     1       1.198  14.774  21.541  0.00  0.00    +0.000 A 
ATOM     30  C   UNL     1       0.577  13.518  21.518  0.00  0.00    +0.000 A 
ATOM     31  C   UNL     1      -0.518  13.251  22.354  0.00  0.00    +0.000 A 
ATOM     32  C   UNL     1      -0.974  14.256  23.217  0.00  0.00    +0.000 A 
ATOM     33  C   UNL     1      -0.364  15.515  23.235  0.00  0.00    +0.000 A 
BRANCH  28  35
ATOM     34  O   UNL     1       2.211  17.445  23.236  0.00  0.00    +0.000 OA
ATOM     35  C   UNL     1       1.409  17.093  22.389  0.00  0.00    +0.000 C 
BRANCH  35  36
ATOM     36  O   UNL     1       1.012  17.888  21.373  0.00  0.00    +0.000 OA
ATOM     37  H   UNL     1       0.986  18.840  21.581  0.00  0.00    +0.000 HD
ENDBRANCH  35  36
ENDBRANCH  28  35
ENDBRANCH  27  31
ENDBRANCH   1  27
TORSDOF 9
ENDMDL
MODEL 8
REMARK VINA RESULT:      -6.9      2.356      4.905
REMARK  Name = 
REMARK  9 active torsions:
REMARK  status: ('A' for Active; 'I' for Inactive)
REMARK    1  A    between atoms: C_2  and  O_3
REMARK    2  A    between atoms: C_2  and  C_4
REMARK    3  A    between atoms: C_7  and  C_8
REMARK    4  A    between atoms: C_8  and  N_9
REMARK    5  A    between atoms: C_13  and  C_14
REMARK    6  A    between atoms: C_17  and  O_18
REMARK    7  A    between atoms: C_19  and  C_20
REMARK    8  A    between atoms: C_20  and  O_22
REMARK    9  A    between atoms: N_26  and  C_27
REMARK                            x       y       z     vdW  Elec       q    Type
REMARK                         _______ _______ _______ _____ _____    ______ ____
ROOT
ATOM      1  N   UNL     1       0.597  10.442  19.559  0.00  0.00    +0.000 N 
ATOM      2  C   UNL     1       0.736  11.144  20.742  0.00  0.00    +0.000 C 
ATOM      3  O   UNL     1       1.772  11.317  21.370  0.00  0.00    +0.000 OA
ATOM      4  C   UNL     1      -0.572  11.756  21.127  0.00  0.00    +0.000 C 
ATOM      5  C   UNL     1      -0.712  12.675  22.094  0.00  0.00    +0.000 C 
ATOM      6  S   UNL     1      -1.800  11.174  20.079  0.00  0.00    +0.000 S 
ATOM      7  C   UNL     1      -0.631  10.519  18.950  0.00  0.00    +0.000 C 
ATOM      8  N   UNL     1      -0.813  10.189  17.713  0.00  0.00    +0.000 NA
ENDROOT
BRANCH   5   9
ATOM      9  C   UNL     1      -1.986  13.321  22.441  0.00  0.00    +0.000 A 
ATOM     10  C   UNL     1      -2.240  14.626  22.009  0.00  0.00    +0.000 A 
ATOM     11  C   UNL     1      -3.419  15.279  22.380  0.00  0.00    +0.000 A 
ATOM     12  C   UNL     1      -4.353  14.629  23.187  0.00  0.00    +0.000 A 
ATOM     13  C   UNL     1      -4.124  13.317  23.626  0.00  0.00    +0.000 A 
ATOM     14  C   UNL     1      -2.934  12.669  23.243  0.00  0.00    +0.000 A 
BRANCH  12  15
ATOM     15  O   UNL     1      -5.500  15.287  23.543  0.00  0.00    +0.000 OA
ATOM     16  H   UNL     1      -6.257  14.872  23.084  0.00  0.00    +0.000 HD
ENDBRANCH  12  15
BRANCH  13  17
ATOM     17  C   UNL     1      -5.072  12.558  24.498  0.00  0.00    +0.000 C 
ATOM     18  O   UNL     1      -6.187  12.234  24.117  0.00  0.00    +0.000 OA
BRANCH  17  19
ATOM     19  O   UNL     1      -4.612  12.246  25.727  0.00  0.00    +0.000 OA
ATOM     20  H   UNL     1      -4.220  11.347  25.761  0.00  0.00    +0.000 HD
ENDBRANCH  17  19
ENDBRANCH  13  17
ENDBRANCH   5   9
BRANCH   8  21
ATOM     21  C   UNL     1      -2.017  10.471  17.044  0.00  0.00    +0.000 A 
ATOM     22  C   UNL     1      -2.358   9.824  15.846  0.00  0.00    +0.000 A 
ATOM     23  C   UNL     1      -3.549  10.116  15.181  0.00  0.00    +0.000 A 
ATOM     24  C   UNL     1      -4.458  10.996  15.753  0.00  0.00    +0.000 A 
ATOM     25  C   UNL     1      -4.175  11.579  16.989  0.00  0.00    +0.000 A 
ATOM     26  C   UNL     1      -2.956  11.322  17.627  0.00  0.00    +0.000 A 
ENDBRANCH   8  21
BRANCH   1  27
ATOM     27  C   UNL     1       1.758   9.882  18.887  0.00  0.00    +0.000 C 
BRANCH  27  31
ATOM     28  C   UNL     1       2.234   5.653  19.668  0.00  0.00    +0.000 A 
ATOM     29  C   UNL     1       1.750   6.498  20.671  0.00  0.00    +0.000 A 
ATOM     30  C   UNL     1       1.609   7.870  20.428  0.00  0.00    +0.000 A 
ATOM     31  C   UNL     1       1.940   8.407  19.174  0.00  0.00    +0.000 A 
ATOM     32  C   UNL     1       2.422   7.550  18.175  0.00  0.00    +0.000 A 
ATOM     33  C   UNL     1       2.554   6.178  18.412  0.00  0.00    +0.000 A 
BRANCH  28  35
ATOM     34  O   UNL     1       2.446   3.352  19.092  0.00  0.00    +0.000 OA
ATOM     35  C   UNL     1       2.353   4.201  19.960  0.00  0.00    +0.000 C 
BRANCH  35  36
ATOM     36  O   UNL     1       2.300   3.908  21.277  0.00  0.00    +0.000 OA
ATOM     37  H   UNL     1       3.053   4.238  21.802  0.00  0.00    +0.000 HD
ENDBRANCH  35  36
ENDBRANCH  28  35
ENDBRANCH  27  31
ENDBRANCH   1  27
TORSDOF 9
ENDMDL
MODEL 9
REMARK VINA RESULT:      -6.9      3.671      8.528
REMARK  Name = 
REMARK  9 active torsions:
REMARK  status: ('A' for Active; 'I' for Inactive)
REMARK    1  A    between atoms: C_2  and  O_3
REMARK    2  A    between atoms: C_2  and  C_4
REMARK    3  A    between atoms: C_7  and  C_8
REMARK    4  A    between atoms: C_8  and  N_9
REMARK    5  A    between atoms: C_13  and  C_14
REMARK    6  A    between atoms: C_17  and  O_18
REMARK    7  A    between atoms: C_19  and  C_20
REMARK    8  A    between atoms: C_20  and  O_22
REMARK    9  A    between atoms: N_26  and  C_27
REMARK                            x       y       z     vdW  Elec       q    Type
REMARK                         _______ _______ _______ _____ _____    ______ ____
ROOT
ATOM      1  N   UNL     1       0.101  10.990  21.037  0.00  0.00    +0.000 N 
ATOM      2  C   UNL     1       0.939  10.035  21.583  0.00  0.00    +0.000 C 
ATOM      3  O   UNL     1       1.402  10.033  22.715  0.00  0.00    +0.000 OA
ATOM      4  C   UNL     1       1.147   8.923  20.606  0.00  0.00    +0.000 C 
ATOM      5  C   UNL     1       1.721   7.752  20.917  0.00  0.00    +0.000 C 
ATOM      6  S   UNL     1       0.453   9.357  19.097  0.00  0.00    +0.000 S 
ATOM      7  C   UNL     1      -0.425  10.700  19.804  0.00  0.00    +0.000 C 
ATOM      8  N   UNL     1      -1.446  11.330  19.320  0.00  0.00    +0.000 NA
ENDROOT
BRANCH   5   9
ATOM      9  C   UNL     1       1.880   6.635  19.975  0.00  0.00    +0.000 A 
ATOM     10  C   UNL     1       2.542   6.843  18.761  0.00  0.00    +0.000 A 
ATOM     11  C   UNL     1       2.649   5.809  17.826  0.00  0.00    +0.000 A 
ATOM     12  C   UNL     1       2.094   4.559  18.100  0.00  0.00    +0.000 A 
ATOM     13  C   UNL     1       1.434   4.324  19.314  0.00  0.00    +0.000 A 
ATOM     14  C   UNL     1       1.334   5.372  20.249  0.00  0.00    +0.000 A 
BRANCH  12  15
ATOM     15  O   UNL     1       2.208   3.560  17.170  0.00  0.00    +0.000 OA
ATOM     16  H   UNL     1       1.744   3.834  16.355  0.00  0.00    +0.000 HD
ENDBRANCH  12  15
BRANCH  13  17
ATOM     17  C   UNL     1       0.808   3.015  19.677  0.00  0.00    +0.000 C 
ATOM     18  O   UNL     1       0.298   2.285  18.840  0.00  0.00    +0.000 OA
BRANCH  17  19
ATOM     19  O   UNL     1       0.853   2.689  20.985  0.00  0.00    +0.000 OA
ATOM     20  H   UNL     1       0.582   1.760  21.147  0.00  0.00    +0.000 HD
ENDBRANCH  17  19
ENDBRANCH  13  17
ENDBRANCH   5   9
BRANCH   8  21
ATOM     21  C   UNL     1      -2.103  10.887  18.158  0.00  0.00    +0.000 A 
ATOM     22  C   UNL     1      -1.873  11.490  16.912  0.00  0.00    +0.000 A 
ATOM     23  C   UNL     1      -2.537  11.054  15.765  0.00  0.00    +0.000 A 
ATOM     24  C   UNL     1      -3.375   9.948  15.834  0.00  0.00    +0.000 A 
ATOM     25  C   UNL     1      -3.544   9.281  17.048  0.00  0.00    +0.000 A 
ATOM     26  C   UNL     1      -2.915   9.754  18.206  0.00  0.00    +0.000 A 
ENDBRANCH   8  21
BRANCH   1  27
ATOM     27  C   UNL     1      -0.386  12.098  21.843  0.00  0.00    +0.000 C 
BRANCH  27  31
ATOM     28  C   UNL     1       0.949  15.924  20.327  0.00  0.00    +0.000 A 
ATOM     29  C   UNL     1       1.886  14.946  20.674  0.00  0.00    +0.000 A 
ATOM     30  C   UNL     1       1.458  13.712  21.179  0.00  0.00    +0.000 A 
ATOM     31  C   UNL     1       0.089  13.441  21.331  0.00  0.00    +0.000 A 
ATOM     32  C   UNL     1      -0.840  14.429  20.978  0.00  0.00    +0.000 A 
ATOM     33  C   UNL     1      -0.417  15.658  20.463  0.00  0.00    +0.000 A 
BRANCH  28  35
ATOM     34  O   UNL     1       1.202  18.292  20.291  0.00  0.00    +0.000 OA
ATOM     35  C   UNL     1       1.442  17.214  19.777  0.00  0.00    +0.000 C 
BRANCH  35  36
ATOM     36  O   UNL     1       2.142  17.082  18.630  0.00  0.00    +0.000 OA
ATOM     37  H   UNL     1       3.022  17.500  18.634  0.00  0.00    +0.000 HD
ENDBRANCH  35  36
ENDBRANCH  28  35
ENDBRANCH  27  31
ENDBRANCH   1  27
TORSDOF 9
ENDMDL
