MODEL 1
REMARK VINA RESULT:      -8.0      0.000      0.000
REMARK  Name = 
REMARK  13 active torsions:
REMARK  status: ('A' for Active; 'I' for Inactive)
REMARK    1  A    between atoms: C_1  and  C_2
REMARK    2  A    between atoms: C_2  and  N_3
REMARK    3  A    between atoms: C_8  and  C_9
REMARK    4  A    between atoms: C_9  and  O_10
REMARK    5  A    between atoms: C_9  and  C_14
REMARK    6  A    between atoms: O_10  and  C_11
REMARK    7  A    between atoms: C_11  and  C_12
REMARK    8  A    between atoms: C_16  and  O_17
REMARK    9  A    between atoms: O_17  and  C_18
REMARK   10  A    between atoms: C_19  and  O_20
REMARK   11  A    between atoms: O_20  and  C_21
REMARK   12  A    between atoms: C_22  and  O_23
REMARK   13  A    between atoms: O_23  and  C_24
REMARK                            x       y       z     vdW  Elec       q    Type
REMARK                         _______ _______ _______ _____ _____    ______ ____
ROOT
ATOM      1  C   UNL     1       3.698   4.416  17.859  0.00  0.00    +0.000 C 
ENDROOT
BRANCH   1   7
ATOM      2  N   UNL     1       1.255   9.081  19.993  0.00  0.00    +0.000 N 
ATOM      3  C   UNL     1       1.214   9.868  18.870  0.00  0.00    +0.000 A 
ATOM      4  C   UNL     1       1.721   9.136  17.823  0.00  0.00    +0.000 A 
ATOM      5  C   UNL     1       2.137   7.879  18.337  0.00  0.00    +0.000 A 
ATOM      6  C   UNL     1       2.725   6.742  17.752  0.00  0.00    +0.000 A 
ATOM      7  C   UNL     1       3.085   5.635  18.545  0.00  0.00    +0.000 A 
ATOM      8  C   UNL     1       2.819   5.672  19.922  0.00  0.00    +0.000 A 
ATOM      9  C   UNL     1       2.205   6.781  20.522  0.00  0.00    +0.000 A 
ATOM     10  C   UNL     1       1.870   7.877  19.709  0.00  0.00    +0.000 A 
BRANCH   2  12
ATOM     11  C   UNL     1      -0.534   8.592  21.633  0.00  0.00    +0.000 C 
ATOM     12  C   UNL     1       0.653   9.460  21.260  0.00  0.00    +0.000 C 
ENDBRANCH   2  12
ENDBRANCH   1   7
BRANCH   1  13
ATOM     13  C   UNL     1       4.844   4.727  16.891  0.00  0.00    +0.000 A 
ATOM     14  C   UNL     1       5.774   5.750  17.121  0.00  0.00    +0.000 A 
ATOM     15  C   UNL     1       6.860   5.959  16.264  0.00  0.00    +0.000 A 
ATOM     16  C   UNL     1       7.023   5.152  15.118  0.00  0.00    +0.000 A 
ATOM     17  C   UNL     1       6.086   4.128  14.853  0.00  0.00    +0.000 A 
ATOM     18  C   UNL     1       5.016   3.930  15.745  0.00  0.00    +0.000 A 
BRANCH  15  19
ATOM     19  O   UNL     1       7.789   6.953  16.479  0.00  0.00    +0.000 OA
ATOM     20  C   UNL     1       7.733   7.602  17.747  0.00  0.00    +0.000 C 
ENDBRANCH  15  19
BRANCH  16  21
ATOM     21  O   UNL     1       8.080   5.499  14.307  0.00  0.00    +0.000 OA
ATOM     22  C   UNL     1       7.848   5.574  12.907  0.00  0.00    +0.000 C 
ENDBRANCH  16  21
BRANCH  17  23
ATOM     23  O   UNL     1       6.254   3.381  13.720  0.00  0.00    +0.000 OA
ATOM     24  C   UNL     1       5.233   3.399  12.731  0.00  0.00    +0.000 C 
ENDBRANCH  17  23
ENDBRANCH   1  13
BRANCH   1  25
ATOM     25  O   UNL     1       2.703   3.658  17.150  0.00  0.00    +0.000 OA
BRANCH  25  26
ATOM     26  C   UNL     1       2.149   2.636  17.862  0.00  0.00    +0.000 C 
ATOM     27  C   UNL     1       3.200   1.682  18.333  0.00  0.00    +0.000 C 
ATOM     28  O   UNL     1       0.964   2.522  18.143  0.00  0.00    +0.000 OA
ENDBRANCH  25  26
ENDBRANCH   1  25
TORSDOF 8
ENDMDL
MODEL 2
REMARK VINA RESULT:      -7.7      0.394      2.474
REMARK  Name = 
REMARK  13 active torsions:
REMARK  status: ('A' for Active; 'I' for Inactive)
REMARK    1  A    between atoms: C_1  and  C_2
REMARK    2  A    between atoms: C_2  and  N_3
REMARK    3  A    between atoms: C_8  and  C_9
REMARK    4  A    between atoms: C_9  and  O_10
REMARK    5  A    between atoms: C_9  and  C_14
REMARK    6  A    between atoms: O_10  and  C_11
REMARK    7  A    between atoms: C_11  and  C_12
REMARK    8  A    between atoms: C_16  and  O_17
REMARK    9  A    between atoms: O_17  and  C_18
REMARK   10  A    between atoms: C_19  and  O_20
REMARK   11  A    between atoms: O_20  and  C_21
REMARK   12  A    between atoms: C_22  and  O_23
REMARK   13  A    between atoms: O_23  and  C_24
REMARK                            x       y       z     vdW  Elec       q    Type
REMARK                         _______ _______ _______ _____ _____    ______ ____
ROOT
ATOM      1  C   UNL     1       3.716   4.264  17.930  0.00  0.00    +0.000 C 
ENDROOT
BRANCH   1   7
ATOM      2  N   UNL     1       1.326   9.098  19.720  0.00  0.00    +0.000 N 
ATOM      3  C   UNL     1       1.436   9.858  18.581  0.00  0.00    +0.000 A 
ATOM      4  C   UNL     1       2.002   9.075  17.604  0.00  0.00    +0.000 A 
ATOM      5  C   UNL     1       2.300   7.812  18.182  0.00  0.00    +0.000 A 
ATOM      6  C   UNL     1       2.880   6.633  17.680  0.00  0.00    +0.000 A 
ATOM      7  C   UNL     1       3.103   5.530  18.527  0.00  0.00    +0.000 A 
ATOM      8  C   UNL     1       2.708   5.615  19.870  0.00  0.00    +0.000 A 
ATOM      9  C   UNL     1       2.099   6.768  20.385  0.00  0.00    +0.000 A 
ATOM     10  C   UNL     1       1.901   7.858  19.521  0.00  0.00    +0.000 A 
BRANCH   2  12
ATOM     11  C   UNL     1      -0.377  10.643  20.636  0.00  0.00    +0.000 C 
ATOM     12  C   UNL     1       0.625   9.539  20.913  0.00  0.00    +0.000 C 
ENDBRANCH   2  12
ENDBRANCH   1   7
BRANCH   1  13
ATOM     13  C   UNL     1       4.901   4.501  16.989  0.00  0.00    +0.000 A 
ATOM     14  C   UNL     1       5.084   3.774  15.805  0.00  0.00    +0.000 A 
ATOM     15  C   UNL     1       6.129   4.067  14.919  0.00  0.00    +0.000 A 
ATOM     16  C   UNL     1       7.048   5.093  15.224  0.00  0.00    +0.000 A 
ATOM     17  C   UNL     1       6.896   5.826  16.423  0.00  0.00    +0.000 A 
ATOM     18  C   UNL     1       5.824   5.520  17.282  0.00  0.00    +0.000 A 
BRANCH  15  19
ATOM     19  O   UNL     1       6.320   3.370  13.747  0.00  0.00    +0.000 OA
ATOM     20  C   UNL     1       5.276   3.467  12.781  0.00  0.00    +0.000 C 
ENDBRANCH  15  19
BRANCH  16  21
ATOM     21  O   UNL     1       8.078   5.239  14.322  0.00  0.00    +0.000 OA
ATOM     22  C   UNL     1       7.778   5.802  13.053  0.00  0.00    +0.000 C 
ENDBRANCH  16  21
BRANCH  17  23
ATOM     23  O   UNL     1       7.819   6.794  16.705  0.00  0.00    +0.000 OA
ATOM     24  C   UNL     1       7.447   7.865  17.563  0.00  0.00    +0.000 C 
ENDBRANCH  17  23
ENDBRANCH   1  13
BRANCH   1  25
ATOM     25  O   UNL     1       2.731   3.488  17.226  0.00  0.00    +0.000 OA
BRANCH  25  26
ATOM     26  C   UNL     1       2.164   2.486  17.957  0.00  0.00    +0.000 C 
ATOM     27  C   UNL     1       3.207   1.544  18.470  0.00  0.00    +0.000 C 
ATOM     28  O   UNL     1       0.975   2.380  18.221  0.00  0.00    +0.000 OA
ENDBRANCH  25  26
ENDBRANCH   1  25
TORSDOF 8
ENDMDL
MODEL 3
REMARK VINA RESULT:      -7.7      3.628      7.608
REMARK  Name = 
REMARK  13 active torsions:
REMARK  status: ('A' for Active; 'I' for Inactive)
REMARK    1  A    between atoms: C_1  and  C_2
REMARK    2  A    between atoms: C_2  and  N_3
REMARK    3  A    between atoms: C_8  and  C_9
REMARK    4  A    between atoms: C_9  and  O_10
REMARK    5  A    between atoms: C_9  and  C_14
REMARK    6  A    between atoms: O_10  and  C_11
REMARK    7  A    between atoms: C_11  and  C_12
REMARK    8  A    between atoms: C_16  and  O_17
REMARK    9  A    between atoms: O_17  and  C_18
REMARK   10  A    between atoms: C_19  and  O_20
REMARK   11  A    between atoms: O_20  and  C_21
REMARK   12  A    between atoms: C_22  and  O_23
REMARK   13  A    between atoms: O_23  and  C_24
REMARK                            x       y       z     vdW  Elec       q    Type
REMARK                         _______ _______ _______ _____ _____    ______ ____
ROOT
ATOM      1  C   UNL     1       2.040   5.721  19.966  0.00  0.00    +0.000 C 
ENDROOT
BRANCH   1   7
ATOM      2  N   UNL     1       6.561   4.505  16.747  0.00  0.00    +0.000 N 
ATOM      3  C   UNL     1       7.571   4.901  17.589  0.00  0.00    +0.000 A 
ATOM      4  C   UNL     1       6.998   5.329  18.763  0.00  0.00    +0.000 A 
ATOM      5  C   UNL     1       5.589   5.243  18.611  0.00  0.00    +0.000 A 
ATOM      6  C   UNL     1       4.506   5.543  19.458  0.00  0.00    +0.000 A 
ATOM      7  C   UNL     1       3.181   5.404  19.002  0.00  0.00    +0.000 A 
ATOM      8  C   UNL     1       2.959   4.932  17.700  0.00  0.00    +0.000 A 
ATOM      9  C   UNL     1       4.021   4.597  16.848  0.00  0.00    +0.000 A 
ATOM     10  C   UNL     1       5.332   4.758  17.326  0.00  0.00    +0.000 A 
BRANCH   2  12
ATOM     11  C   UNL     1       6.772   4.798  14.298  0.00  0.00    +0.000 C 
ATOM     12  C   UNL     1       6.792   3.842  15.475  0.00  0.00    +0.000 C 
ENDBRANCH   2  12
ENDBRANCH   1   7
BRANCH   1  13
ATOM     13  C   UNL     1       1.736   7.211  20.142  0.00  0.00    +0.000 A 
ATOM     14  C   UNL     1       1.669   8.103  19.063  0.00  0.00    +0.000 A 
ATOM     15  C   UNL     1       1.307   9.444  19.242  0.00  0.00    +0.000 A 
ATOM     16  C   UNL     1       1.030   9.936  20.535  0.00  0.00    +0.000 A 
ATOM     17  C   UNL     1       1.113   9.061  21.642  0.00  0.00    +0.000 A 
ATOM     18  C   UNL     1       1.460   7.714  21.427  0.00  0.00    +0.000 A 
BRANCH  15  19
ATOM     19  O   UNL     1       1.228  10.332  18.193  0.00  0.00    +0.000 OA
ATOM     20  C   UNL     1       2.426  11.033  17.870  0.00  0.00    +0.000 C 
ENDBRANCH  15  19
BRANCH  16  21
ATOM     21  O   UNL     1       0.764  11.285  20.600  0.00  0.00    +0.000 OA
ATOM     22  C   UNL     1      -0.587  11.705  20.468  0.00  0.00    +0.000 C 
ENDBRANCH  16  21
BRANCH  17  23
ATOM     23  O   UNL     1       0.867   9.573  22.885  0.00  0.00    +0.000 OA
ATOM     24  C   UNL     1      -0.469   9.576  23.373  0.00  0.00    +0.000 C 
ENDBRANCH  17  23
ENDBRANCH   1  13
BRANCH   1  25
ATOM     25  O   UNL     1       2.281   5.154  21.266  0.00  0.00    +0.000 OA
BRANCH  25  26
ATOM     26  C   UNL     1       1.976   3.830  21.378  0.00  0.00    +0.000 C 
ATOM     27  C   UNL     1       0.849   3.463  20.467  0.00  0.00    +0.000 C 
ATOM     28  O   UNL     1       2.567   3.019  22.077  0.00  0.00    +0.000 OA
ENDBRANCH  25  26
ENDBRANCH   1  25
TORSDOF 8
ENDMDL
MODEL 4
REMARK VINA RESULT:      -7.7      3.608      7.416
REMARK  Name = 
REMARK  13 active torsions:
REMARK  status: ('A' for Active; 'I' for Inactive)
REMARK    1  A    between atoms: C_1  and  C_2
REMARK    2  A    between atoms: C_2  and  N_3
REMARK    3  A    between atoms: C_8  and  C_9
REMARK    4  A    between atoms: C_9  and  O_10
REMARK    5  A    between atoms: C_9  and  C_14
REMARK    6  A    between atoms: O_10  and  C_11
REMARK    7  A    between atoms: C_11  and  C_12
REMARK    8  A    between atoms: C_16  and  O_17
REMARK    9  A    between atoms: O_17  and  C_18
REMARK   10  A    between atoms: C_19  and  O_20
REMARK   11  A    between atoms: O_20  and  C_21
REMARK   12  A    between atoms: C_22  and  O_23
REMARK   13  A    between atoms: O_23  and  C_24
REMARK                            x       y       z     vdW  Elec       q    Type
REMARK                         _______ _______ _______ _____ _____    ______ ____
ROOT
ATOM      1  C   UNL     1       2.011   5.648  19.985  0.00  0.00    +0.000 C 
ENDROOT
BRANCH   1   7
ATOM      2  N   UNL     1       6.579   4.555  16.789  0.00  0.00    +0.000 N 
ATOM      3  C   UNL     1       7.574   4.972  17.639  0.00  0.00    +0.000 A 
ATOM      4  C   UNL     1       6.984   5.382  18.810  0.00  0.00    +0.000 A 
ATOM      5  C   UNL     1       5.578   5.263  18.650  0.00  0.00    +0.000 A 
ATOM      6  C   UNL     1       4.483   5.533  19.492  0.00  0.00    +0.000 A 
ATOM      7  C   UNL     1       3.165   5.364  19.026  0.00  0.00    +0.000 A 
ATOM      8  C   UNL     1       2.962   4.891  17.721  0.00  0.00    +0.000 A 
ATOM      9  C   UNL     1       4.038   4.584  16.875  0.00  0.00    +0.000 A 
ATOM     10  C   UNL     1       5.341   4.776  17.361  0.00  0.00    +0.000 A 
BRANCH   2  12
ATOM     11  C   UNL     1       6.765   4.856  14.339  0.00  0.00    +0.000 C 
ATOM     12  C   UNL     1       6.834   3.902  15.516  0.00  0.00    +0.000 C 
ENDBRANCH   2  12
ENDBRANCH   1   7
BRANCH   1  13
ATOM     13  C   UNL     1       1.670   7.131  20.165  0.00  0.00    +0.000 A 
ATOM     14  C   UNL     1       1.413   7.702  21.418  0.00  0.00    +0.000 A 
ATOM     15  C   UNL     1       1.186   9.076  21.565  0.00  0.00    +0.000 A 
ATOM     16  C   UNL     1       1.181   9.917  20.432  0.00  0.00    +0.000 A 
ATOM     17  C   UNL     1       1.416   9.361  19.154  0.00  0.00    +0.000 A 
ATOM     18  C   UNL     1       1.660   7.979  19.042  0.00  0.00    +0.000 A 
BRANCH  15  19
ATOM     19  O   UNL     1       0.942   9.657  22.789  0.00  0.00    +0.000 OA
ATOM     20  C   UNL     1      -0.373   9.487  23.313  0.00  0.00    +0.000 C 
ENDBRANCH  15  19
BRANCH  16  21
ATOM     21  O   UNL     1       0.869  11.234  20.685  0.00  0.00    +0.000 OA
ATOM     22  C   UNL     1      -0.446  11.678  20.382  0.00  0.00    +0.000 C 
ENDBRANCH  16  21
BRANCH  17  23
ATOM     23  O   UNL     1       1.376  10.195  18.072  0.00  0.00    +0.000 OA
ATOM     24  C   UNL     1       2.399  11.171  17.922  0.00  0.00    +0.000 C 
ENDBRANCH  17  23
ENDBRANCH   1  13
BRANCH   1  25
ATOM     25  O   UNL     1       2.258   5.084  21.284  0.00  0.00    +0.000 OA
BRANCH  25  26
ATOM     26  C   UNL     1       1.968   3.756  21.395  0.00  0.00    +0.000 C 
ATOM     27  C   UNL     1       0.850   3.375  20.478  0.00  0.00    +0.000 C 
ATOM     28  O   UNL     1       2.566   2.951  22.096  0.00  0.00    +0.000 OA
ENDBRANCH  25  26
ENDBRANCH   1  25
TORSDOF 8
ENDMDL
MODEL 5
REMARK VINA RESULT:      -7.5      1.016      1.965
REMARK  Name = 
REMARK  13 active torsions:
REMARK  status: ('A' for Active; 'I' for Inactive)
REMARK    1  A    between atoms: C_1  and  C_2
REMARK    2  A    between atoms: C_2  and  N_3
REMARK    3  A    between atoms: C_8  and  C_9
REMARK    4  A    between atoms: C_9  and  O_10
REMARK    5  A    between atoms: C_9  and  C_14
REMARK    6  A    between atoms: O_10  and  C_11
REMARK    7  A    between atoms: C_11  and  C_12
REMARK    8  A    between atoms: C_16  and  O_17
REMARK    9  A    between atoms: O_17  and  C_18
REMARK   10  A    between atoms: C_19  and  O_20
REMARK   11  A    between atoms: O_20  and  C_21
REMARK   12  A    between atoms: C_22  and  O_23
REMARK   13  A    between atoms: O_23  and  C_24
REMARK                            x       y       z     vdW  Elec       q    Type
REMARK                         _______ _______ _______ _____ _____    ______ ____
ROOT
ATOM      1  C   UNL     1       3.108   5.363  18.209  0.00  0.00    +0.000 C 
ENDROOT
BRANCH   1   7
ATOM      2  N   UNL     1       0.931  10.374  19.768  0.00  0.00    +0.000 N 
ATOM      3  C   UNL     1       0.697  10.133  21.099  0.00  0.00    +0.000 A 
ATOM      4  C   UNL     1       1.140   8.863  21.381  0.00  0.00    +0.000 A 
ATOM      5  C   UNL     1       1.608   8.290  20.169  0.00  0.00    +0.000 A 
ATOM      6  C   UNL     1       2.161   7.038  19.843  0.00  0.00    +0.000 A 
ATOM      7  C   UNL     1       2.490   6.727  18.510  0.00  0.00    +0.000 A 
ATOM      8  C   UNL     1       2.287   7.698  17.517  0.00  0.00    +0.000 A 
ATOM      9  C   UNL     1       1.767   8.964  17.823  0.00  0.00    +0.000 A 
ATOM     10  C   UNL     1       1.435   9.241  19.160  0.00  0.00    +0.000 A 
BRANCH   2  12
ATOM     11  C   UNL     1       2.048  12.406  18.899  0.00  0.00    +0.000 C 
ATOM     12  C   UNL     1       0.743  11.673  19.143  0.00  0.00    +0.000 C 
ENDBRANCH   2  12
ENDBRANCH   1   7
BRANCH   1  13
ATOM     13  C   UNL     1       4.361   5.400  17.329  0.00  0.00    +0.000 A 
ATOM     14  C   UNL     1       5.362   6.370  17.477  0.00  0.00    +0.000 A 
ATOM     15  C   UNL     1       6.537   6.333  16.717  0.00  0.00    +0.000 A 
ATOM     16  C   UNL     1       6.722   5.322  15.750  0.00  0.00    +0.000 A 
ATOM     17  C   UNL     1       5.717   4.345  15.567  0.00  0.00    +0.000 A 
ATOM     18  C   UNL     1       4.556   4.399  16.361  0.00  0.00    +0.000 A 
BRANCH  15  19
ATOM     19  O   UNL     1       7.535   7.271  16.855  0.00  0.00    +0.000 OA
ATOM     20  C   UNL     1       8.040   7.462  18.174  0.00  0.00    +0.000 C 
ENDBRANCH  15  19
BRANCH  16  21
ATOM     21  O   UNL     1       7.876   5.430  15.007  0.00  0.00    +0.000 OA
ATOM     22  C   UNL     1       7.751   5.674  13.613  0.00  0.00    +0.000 C 
ENDBRANCH  16  21
BRANCH  17  23
ATOM     23  O   UNL     1       5.912   3.396  14.603  0.00  0.00    +0.000 OA
ATOM     24  C   UNL     1       5.303   3.576  13.331  0.00  0.00    +0.000 C 
ENDBRANCH  17  23
ENDBRANCH   1  13
BRANCH   1  25
ATOM     25  O   UNL     1       2.154   4.479  17.596  0.00  0.00    +0.000 OA
BRANCH  25  26
ATOM     26  C   UNL     1       1.667   3.505  18.417  0.00  0.00    +0.000 C 
ATOM     27  C   UNL     1       2.227   2.168  18.048  0.00  0.00    +0.000 C 
ATOM     28  O   UNL     1       0.921   3.681  19.369  0.00  0.00    +0.000 OA
ENDBRANCH  25  26
ENDBRANCH   1  25
TORSDOF 8
ENDMDL
MODEL 6
REMARK VINA RESULT:      -7.4      1.030      3.085
REMARK  Name = 
REMARK  13 active torsions:
REMARK  status: ('A' for Active; 'I' for Inactive)
REMARK    1  A    between atoms: C_1  and  C_2
REMARK    2  A    between atoms: C_2  and  N_3
REMARK    3  A    between atoms: C_8  and  C_9
REMARK    4  A    between atoms: C_9  and  O_10
REMARK    5  A    between atoms: C_9  and  C_14
REMARK    6  A    between atoms: O_10  and  C_11
REMARK    7  A    between atoms: C_11  and  C_12
REMARK    8  A    between atoms: C_16  and  O_17
REMARK    9  A    between atoms: O_17  and  C_18
REMARK   10  A    between atoms: C_19  and  O_20
REMARK   11  A    between atoms: O_20  and  C_21
REMARK   12  A    between atoms: C_22  and  O_23
REMARK   13  A    between atoms: O_23  and  C_24
REMARK                            x       y       z     vdW  Elec       q    Type
REMARK                         _______ _______ _______ _____ _____    ______ ____
ROOT
ATOM      1  C   UNL     1       3.601   5.014  18.396  0.00  0.00    +0.000 C 
ENDROOT
BRANCH   1   7
ATOM      2  N   UNL     1       1.028   9.962  19.477  0.00  0.00    +0.000 N 
ATOM      3  C   UNL     1       0.696   9.779  20.797  0.00  0.00    +0.000 A 
ATOM      4  C   UNL     1       1.182   8.555  21.188  0.00  0.00    +0.000 A 
ATOM      5  C   UNL     1       1.782   7.947  20.053  0.00  0.00    +0.000 A 
ATOM      6  C   UNL     1       2.428   6.714  19.847  0.00  0.00    +0.000 A 
ATOM      7  C   UNL     1       2.886   6.353  18.565  0.00  0.00    +0.000 A 
ATOM      8  C   UNL     1       2.715   7.255  17.504  0.00  0.00    +0.000 A 
ATOM      9  C   UNL     1       2.102   8.503  17.693  0.00  0.00    +0.000 A 
ATOM     10  C   UNL     1       1.644   8.830  18.980  0.00  0.00    +0.000 A 
BRANCH   2  12
ATOM     11  C   UNL     1       2.048  12.106  18.774  0.00  0.00    +0.000 C 
ATOM     12  C   UNL     1       0.822  11.212  18.765  0.00  0.00    +0.000 C 
ENDBRANCH   2  12
ENDBRANCH   1   7
BRANCH   1  13
ATOM     13  C   UNL     1       4.777   5.028  17.414  0.00  0.00    +0.000 A 
ATOM     14  C   UNL     1       4.886   4.121  16.351  0.00  0.00    +0.000 A 
ATOM     15  C   UNL     1       5.926   4.208  15.417  0.00  0.00    +0.000 A 
ATOM     16  C   UNL     1       6.915   5.206  15.550  0.00  0.00    +0.000 A 
ATOM     17  C   UNL     1       6.838   6.118  16.627  0.00  0.00    +0.000 A 
ATOM     18  C   UNL     1       5.770   6.017  17.537  0.00  0.00    +0.000 A 
BRANCH  15  19
ATOM     19  O   UNL     1       6.045   3.332  14.362  0.00  0.00    +0.000 OA
ATOM     20  C   UNL     1       5.229   3.603  13.225  0.00  0.00    +0.000 C 
ENDBRANCH  15  19
BRANCH  16  21
ATOM     21  O   UNL     1       7.931   5.147  14.623  0.00  0.00    +0.000 OA
ATOM     22  C   UNL     1       7.730   5.789  13.372  0.00  0.00    +0.000 C 
ENDBRANCH  16  21
BRANCH  17  23
ATOM     23  O   UNL     1       7.826   7.056  16.746  0.00  0.00    +0.000 OA
ATOM     24  C   UNL     1       7.717   8.039  17.767  0.00  0.00    +0.000 C 
ENDBRANCH  17  23
ENDBRANCH   1  13
BRANCH   1  25
ATOM     25  O   UNL     1       2.689   3.980  17.990  0.00  0.00    +0.000 OA
BRANCH  25  26
ATOM     26  C   UNL     1       2.349   3.098  18.973  0.00  0.00    +0.000 C 
ATOM     27  C   UNL     1       0.921   2.674  18.839  0.00  0.00    +0.000 C 
ATOM     28  O   UNL     1       3.105   2.652  19.824  0.00  0.00    +0.000 OA
ENDBRANCH  25  26
ENDBRANCH   1  25
TORSDOF 8
ENDMDL
MODEL 7
REMARK VINA RESULT:      -7.3      5.071      9.235
REMARK  Name = 
REMARK  13 active torsions:
REMARK  status: ('A' for Active; 'I' for Inactive)
REMARK    1  A    between atoms: C_1  and  C_2
REMARK    2  A    between atoms: C_2  and  N_3
REMARK    3  A    between atoms: C_8  and  C_9
REMARK    4  A    between atoms: C_9  and  O_10
REMARK    5  A    between atoms: C_9  and  C_14
REMARK    6  A    between atoms: O_10  and  C_11
REMARK    7  A    between atoms: C_11  and  C_12
REMARK    8  A    between atoms: C_16  and  O_17
REMARK    9  A    between atoms: O_17  and  C_18
REMARK   10  A    between atoms: C_19  and  O_20
REMARK   11  A    between atoms: O_20  and  C_21
REMARK   12  A    between atoms: C_22  and  O_23
REMARK   13  A    between atoms: O_23  and  C_24
REMARK                            x       y       z     vdW  Elec       q    Type
REMARK                         _______ _______ _______ _____ _____    ______ ____
ROOT
ATOM      1  C   UNL     1       0.707  10.796  19.638  0.00  0.00    +0.000 C 
ENDROOT
BRANCH   1   7
ATOM      2  N   UNL     1       2.635   5.453  19.744  0.00  0.00    +0.000 N 
ATOM      3  C   UNL     1       3.211   5.378  18.500  0.00  0.00    +0.000 A 
ATOM      4  C   UNL     1       3.078   6.608  17.900  0.00  0.00    +0.000 A 
ATOM      5  C   UNL     1       2.347   7.443  18.786  0.00  0.00    +0.000 A 
ATOM      6  C   UNL     1       1.910   8.779  18.714  0.00  0.00    +0.000 A 
ATOM      7  C   UNL     1       1.138   9.335  19.752  0.00  0.00    +0.000 A 
ATOM      8  C   UNL     1       0.838   8.545  20.872  0.00  0.00    +0.000 A 
ATOM      9  C   UNL     1       1.289   7.222  20.980  0.00  0.00    +0.000 A 
ATOM     10  C   UNL     1       2.046   6.690  19.923  0.00  0.00    +0.000 A 
BRANCH   2  12
ATOM     11  C   UNL     1       1.457   3.569  20.835  0.00  0.00    +0.000 C 
ATOM     12  C   UNL     1       2.726   4.393  20.734  0.00  0.00    +0.000 C 
ENDBRANCH   2  12
ENDBRANCH   1   7
BRANCH   1  13
ATOM     13  C   UNL     1      -0.745  11.010  19.201  0.00  0.00    +0.000 A 
ATOM     14  C   UNL     1      -1.616  11.883  19.867  0.00  0.00    +0.000 A 
ATOM     15  C   UNL     1      -2.913  12.125  19.398  0.00  0.00    +0.000 A 
ATOM     16  C   UNL     1      -3.384  11.459  18.247  0.00  0.00    +0.000 A 
ATOM     17  C   UNL     1      -2.532  10.557  17.570  0.00  0.00    +0.000 A 
ATOM     18  C   UNL     1      -1.227  10.350  18.056  0.00  0.00    +0.000 A 
BRANCH  15  19
ATOM     19  O   UNL     1      -3.779  12.985  20.034  0.00  0.00    +0.000 OA
ATOM     20  C   UNL     1      -3.741  12.976  21.459  0.00  0.00    +0.000 C 
ENDBRANCH  15  19
BRANCH  16  21
ATOM     21  O   UNL     1      -4.698  11.712  17.924  0.00  0.00    +0.000 OA
ATOM     22  C   UNL     1      -5.683  10.790  18.368  0.00  0.00    +0.000 C 
ENDBRANCH  16  21
BRANCH  17  23
ATOM     23  O   UNL     1      -3.026   9.905  16.475  0.00  0.00    +0.000 OA
ATOM     24  C   UNL     1      -2.927  10.532  15.202  0.00  0.00    +0.000 C 
ENDBRANCH  17  23
ENDBRANCH   1  13
BRANCH   1  25
ATOM     25  O   UNL     1       1.559  11.525  18.738  0.00  0.00    +0.000 OA
BRANCH  25  26
ATOM     26  C   UNL     1       2.032  12.706  19.229  0.00  0.00    +0.000 C 
ATOM     27  C   UNL     1       2.384  13.642  18.117  0.00  0.00    +0.000 C 
ATOM     28  O   UNL     1       2.111  13.007  20.411  0.00  0.00    +0.000 OA
ENDBRANCH  25  26
ENDBRANCH   1  25
TORSDOF 8
ENDMDL
MODEL 8
REMARK VINA RESULT:      -7.3      3.008      7.794
REMARK  Name = 
REMARK  13 active torsions:
REMARK  status: ('A' for Active; 'I' for Inactive)
REMARK    1  A    between atoms: C_1  and  C_2
REMARK    2  A    between atoms: C_2  and  N_3
REMARK    3  A    between atoms: C_8  and  C_9
REMARK    4  A    between atoms: C_9  and  O_10
REMARK    5  A    between atoms: C_9  and  C_14
REMARK    6  A    between atoms: O_10  and  C_11
REMARK    7  A    between atoms: C_11  and  C_12
REMARK    8  A    between atoms: C_16  and  O_17
REMARK    9  A    between atoms: O_17  and  C_18
REMARK   10  A    between atoms: C_19  and  O_20
REMARK   11  A    between atoms: O_20  and  C_21
REMARK   12  A    between atoms: C_22  and  O_23
REMARK   13  A    between atoms: O_23  and  C_24
REMARK                            x       y       z     vdW  Elec       q    Type
REMARK                         _______ _______ _______ _____ _____    ______ ____
ROOT
ATOM      1  C   UNL     1       6.303   5.546  17.492  0.00  0.00    +0.000 C 
ENDROOT
BRANCH   1   7
ATOM      2  N   UNL     1       6.243   3.553  12.172  0.00  0.00    +0.000 N 
ATOM      3  C   UNL     1       7.306   4.242  11.643  0.00  0.00    +0.000 A 
ATOM      4  C   UNL     1       7.858   5.001  12.647  0.00  0.00    +0.000 A 
ATOM      5  C   UNL     1       7.071   4.810  13.814  0.00  0.00    +0.000 A 
ATOM      6  C   UNL     1       7.145   5.321  15.124  0.00  0.00    +0.000 A 
ATOM      7  C   UNL     1       6.166   4.985  16.078  0.00  0.00    +0.000 A 
ATOM      8  C   UNL     1       5.134   4.109  15.712  0.00  0.00    +0.000 A 
ATOM      9  C   UNL     1       5.057   3.562  14.422  0.00  0.00    +0.000 A 
ATOM     10  C   UNL     1       6.040   3.926  13.487  0.00  0.00    +0.000 A 
BRANCH   2  12
ATOM     11  C   UNL     1       4.108   2.951  11.074  0.00  0.00    +0.000 C 
ATOM     12  C   UNL     1       5.514   2.525  11.448  0.00  0.00    +0.000 C 
ENDBRANCH   2  12
ENDBRANCH   1   7
BRANCH   1  13
ATOM     13  C   UNL     1       5.106   5.283  18.411  0.00  0.00    +0.000 A 
ATOM     14  C   UNL     1       4.952   4.091  19.131  0.00  0.00    +0.000 A 
ATOM     15  C   UNL     1       3.893   3.908  20.029  0.00  0.00    +0.000 A 
ATOM     16  C   UNL     1       2.930   4.925  20.203  0.00  0.00    +0.000 A 
ATOM     17  C   UNL     1       3.052   6.128  19.472  0.00  0.00    +0.000 A 
ATOM     18  C   UNL     1       4.139   6.289  18.592  0.00  0.00    +0.000 A 
BRANCH  15  19
ATOM     19  O   UNL     1       3.729   2.748  20.751  0.00  0.00    +0.000 OA
ATOM     20  C   UNL     1       4.554   1.649  20.370  0.00  0.00    +0.000 C 
ENDBRANCH  15  19
BRANCH  16  21
ATOM     21  O   UNL     1       1.892   4.606  21.049  0.00  0.00    +0.000 OA
ATOM     22  C   UNL     1       0.756   3.957  20.494  0.00  0.00    +0.000 C 
ENDBRANCH  16  21
BRANCH  17  23
ATOM     23  O   UNL     1       2.089   7.084  19.640  0.00  0.00    +0.000 OA
ATOM     24  C   UNL     1       2.093   8.218  18.784  0.00  0.00    +0.000 C 
ENDBRANCH  17  23
ENDBRANCH   1  13
BRANCH   1  25
ATOM     25  O   UNL     1       6.552   6.962  17.472  0.00  0.00    +0.000 OA
BRANCH  25  26
ATOM     26  C   UNL     1       7.680   7.354  18.129  0.00  0.00    +0.000 C 
ATOM     27  C   UNL     1       8.016   8.777  17.812  0.00  0.00    +0.000 C 
ATOM     28  O   UNL     1       8.316   6.675  18.922  0.00  0.00    +0.000 OA
ENDBRANCH  25  26
ENDBRANCH   1  25
TORSDOF 8
ENDMDL
MODEL 9
REMARK VINA RESULT:      -7.3      2.987      7.643
REMARK  Name = 
REMARK  13 active torsions:
REMARK  status: ('A' for Active; 'I' for Inactive)
REMARK    1  A    between atoms: C_1  and  C_2
REMARK    2  A    between atoms: C_2  and  N_3
REMARK    3  A    between atoms: C_8  and  C_9
REMARK    4  A    between atoms: C_9  and  O_10
REMARK    5  A    between atoms: C_9  and  C_14
REMARK    6  A    between atoms: O_10  and  C_11
REMARK    7  A    between atoms: C_11  and  C_12
REMARK    8  A    between atoms: C_16  and  O_17
REMARK    9  A    between atoms: O_17  and  C_18
REMARK   10  A    between atoms: C_19  and  O_20
REMARK   11  A    between atoms: O_20  and  C_21
REMARK   12  A    between atoms: C_22  and  O_23
REMARK   13  A    between atoms: O_23  and  C_24
REMARK                            x       y       z     vdW  Elec       q    Type
REMARK                         _______ _______ _______ _____ _____    ______ ____
ROOT
ATOM      1  C   UNL     1       6.380   5.740  17.437  0.00  0.00    +0.000 C 
ENDROOT
BRANCH   1   7
ATOM      2  N   UNL     1       6.217   3.555  12.195  0.00  0.00    +0.000 N 
ATOM      3  C   UNL     1       7.280   4.211  11.626  0.00  0.00    +0.000 A 
ATOM      4  C   UNL     1       7.856   4.999  12.593  0.00  0.00    +0.000 A 
ATOM      5  C   UNL     1       7.084   4.861  13.778  0.00  0.00    +0.000 A 
ATOM      6  C   UNL     1       7.184   5.418  15.066  0.00  0.00    +0.000 A 
ATOM      7  C   UNL     1       6.215   5.129  16.047  0.00  0.00    +0.000 A 
ATOM      8  C   UNL     1       5.167   4.253  15.728  0.00  0.00    +0.000 A 
ATOM      9  C   UNL     1       5.065   3.661  14.460  0.00  0.00    +0.000 A 
ATOM     10  C   UNL     1       6.038   3.978  13.498  0.00  0.00    +0.000 A 
BRANCH   2  12
ATOM     11  C   UNL     1       4.089   2.966  11.074  0.00  0.00    +0.000 C 
ATOM     12  C   UNL     1       5.465   2.510  11.520  0.00  0.00    +0.000 C 
ENDBRANCH   2  12
ENDBRANCH   1   7
BRANCH   1  13
ATOM     13  C   UNL     1       5.200   5.515  18.386  0.00  0.00    +0.000 A 
ATOM     14  C   UNL     1       4.200   6.475  18.593  0.00  0.00    +0.000 A 
ATOM     15  C   UNL     1       3.087   6.213  19.401  0.00  0.00    +0.000 A 
ATOM     16  C   UNL     1       2.966   4.970  20.057  0.00  0.00    +0.000 A 
ATOM     17  C   UNL     1       3.972   3.993  19.882  0.00  0.00    +0.000 A 
ATOM     18  C   UNL     1       5.069   4.280  19.047  0.00  0.00    +0.000 A 
BRANCH  15  19
ATOM     19  O   UNL     1       2.091   7.141  19.609  0.00  0.00    +0.000 OA
ATOM     20  C   UNL     1       2.022   8.210  18.668  0.00  0.00    +0.000 C 
ENDBRANCH  15  19
BRANCH  16  21
ATOM     21  O   UNL     1       1.874   4.852  20.887  0.00  0.00    +0.000 OA
ATOM     22  C   UNL     1       0.799   4.027  20.461  0.00  0.00    +0.000 C 
ENDBRANCH  16  21
BRANCH  17  23
ATOM     23  O   UNL     1       3.842   2.809  20.552  0.00  0.00    +0.000 OA
ATOM     24  C   UNL     1       4.302   1.616  19.931  0.00  0.00    +0.000 C 
ENDBRANCH  17  23
ENDBRANCH   1  13
BRANCH   1  25
ATOM     25  O   UNL     1       6.633   7.154  17.361  0.00  0.00    +0.000 OA
BRANCH  25  26
ATOM     26  C   UNL     1       7.738   7.574  18.039  0.00  0.00    +0.000 C 
ATOM     27  C   UNL     1       8.010   9.021  17.772  0.00  0.00    +0.000 C 
ATOM     28  O   UNL     1       8.401   6.898  18.813  0.00  0.00    +0.000 OA
ENDBRANCH  25  26
ENDBRANCH   1  25
TORSDOF 8
ENDMDL
