MODEL 1
REMARK VINA RESULT:      -7.8      0.000      0.000
REMARK  Name = 
REMARK  5 active torsions:
REMARK  status: ('A' for Active; 'I' for Inactive)
REMARK    1  A    between atoms: C_2  and  OXT_3
REMARK    2  A    between atoms: C_2  and  CA_4
REMARK    3  A    between atoms: C_8  and  N_9
REMARK    4  A    between atoms: C_13  and  N_14
REMARK    5  A    between atoms: C_17  and  O_18
REMARK                            x       y       z     vdW  Elec       q    Type
REMARK                         _______ _______ _______ _____ _____    ______ ____
ROOT
ATOM      1  CA  UNL     1       6.053   5.362  16.938  0.00  0.00    +0.000 A 
ATOM      2  C   UNL     1       5.555   6.637  16.802  0.00  0.00    +0.000 A 
ATOM      3  C   UNL     1       4.451   6.979  17.576  0.00  0.00    +0.000 A 
ATOM      4  C   UNL     1       3.862   6.040  18.465  0.00  0.00    +0.000 A 
ATOM      5  C   UNL     1       2.742   6.289  19.306  0.00  0.00    +0.000 A 
ATOM      6  C   UNL     1       2.203   5.321  20.157  0.00  0.00    +0.000 A 
ATOM      7  C   UNL     1       2.788   4.055  20.182  0.00  0.00    +0.000 A 
ATOM      8  C   UNL     1       3.904   3.778  19.375  0.00  0.00    +0.000 A 
ATOM      9  C   UNL     1       4.448   4.752  18.520  0.00  0.00    +0.000 A 
ATOM     10  N   UNL     1       5.523   4.428  17.772  0.00  0.00    +0.000 NA
ENDROOT
BRANCH   5  11
ATOM     11  N   UNL     1       2.111   7.599  19.336  0.00  0.00    +0.000 N 
ATOM     12  O   UNL     1       1.859   8.132  18.249  0.00  0.00    +0.000 OA
ATOM     13  O   UNL     1       1.847   8.062  20.452  0.00  0.00    +0.000 OA
ENDBRANCH   5  11
BRANCH   7  14
ATOM     14  N   UNL     1       2.210   3.033  21.062  0.00  0.00    +0.000 N 
ATOM     15  O   UNL     1       2.946   2.525  21.916  0.00  0.00    +0.000 OA
ATOM     16  O   UNL     1       1.016   2.748  20.896  0.00  0.00    +0.000 OA
ENDBRANCH   7  14
BRANCH   1  18
ATOM     17  O   UNL     1       7.467   5.224  15.000  0.00  0.00    +0.000 OA
ATOM     18  C   UNL     1       7.241   4.914  16.157  0.00  0.00    +0.000 C 
BRANCH  18  19
ATOM     19  OXT UNL     1       8.037   4.116  16.908  0.00  0.00    +0.000 OA
ATOM     20  HXT UNL     1       8.792   4.647  17.263  0.00  0.00    +0.000 HD
ENDBRANCH  18  19
ENDBRANCH   1  18
BRANCH   8  21
ATOM     21  O   UNL     1       4.539   2.551  19.364  0.00  0.00    +0.000 OA
ATOM     22  H   UNL     1       4.689   2.216  20.273  0.00  0.00    +0.000 HD
ENDBRANCH   8  21
TORSDOF 5
ENDMDL
MODEL 2
REMARK VINA RESULT:      -7.5      1.812      5.846
REMARK  Name = 
REMARK  5 active torsions:
REMARK  status: ('A' for Active; 'I' for Inactive)
REMARK    1  A    between atoms: C_2  and  OXT_3
REMARK    2  A    between atoms: C_2  and  CA_4
REMARK    3  A    between atoms: C_8  and  N_9
REMARK    4  A    between atoms: C_13  and  N_14
REMARK    5  A    between atoms: C_17  and  O_18
REMARK                            x       y       z     vdW  Elec       q    Type
REMARK                         _______ _______ _______ _____ _____    ______ ____
ROOT
ATOM      1  CA  UNL     1       2.495   7.631  18.439  0.00  0.00    +0.000 A 
ATOM      2  C   UNL     1       2.158   6.661  19.355  0.00  0.00    +0.000 A 
ATOM      3  C   UNL     1       2.799   5.430  19.249  0.00  0.00    +0.000 A 
ATOM      4  C   UNL     1       3.757   5.191  18.227  0.00  0.00    +0.000 A 
ATOM      5  C   UNL     1       4.474   3.978  18.037  0.00  0.00    +0.000 A 
ATOM      6  C   UNL     1       5.402   3.799  17.006  0.00  0.00    +0.000 A 
ATOM      7  C   UNL     1       5.633   4.857  16.127  0.00  0.00    +0.000 A 
ATOM      8  C   UNL     1       4.952   6.075  16.294  0.00  0.00    +0.000 A 
ATOM      9  C   UNL     1       4.020   6.255  17.331  0.00  0.00    +0.000 A 
ATOM     10  N   UNL     1       3.401   7.448  17.442  0.00  0.00    +0.000 NA
ENDROOT
BRANCH   5  11
ATOM     11  N   UNL     1       4.289   2.853  18.940  0.00  0.00    +0.000 N 
ATOM     12  O   UNL     1       3.420   2.024  18.643  0.00  0.00    +0.000 OA
ATOM     13  O   UNL     1       5.040   2.800  19.920  0.00  0.00    +0.000 OA
ENDBRANCH   5  11
BRANCH   7  14
ATOM     14  N   UNL     1       6.592   4.663  15.035  0.00  0.00    +0.000 N 
ATOM     15  O   UNL     1       7.561   5.429  14.976  0.00  0.00    +0.000 OA
ATOM     16  O   UNL     1       6.373   3.737  14.241  0.00  0.00    +0.000 OA
ENDBRANCH   7  14
BRANCH   1  18
ATOM     17  O   UNL     1       1.257   9.430  19.442  0.00  0.00    +0.000 OA
ATOM     18  C   UNL     1       1.867   8.982  18.486  0.00  0.00    +0.000 C 
BRANCH  18  19
ATOM     19  OXT UNL     1       2.068   9.646  17.323  0.00  0.00    +0.000 OA
ATOM     20  HXT UNL     1       3.036   9.807  17.201  0.00  0.00    +0.000 HD
ENDBRANCH  18  19
ENDBRANCH   1  18
BRANCH   8  21
ATOM     21  O   UNL     1       5.146   7.164  15.467  0.00  0.00    +0.000 OA
ATOM     22  H   UNL     1       4.702   7.965  15.819  0.00  0.00    +0.000 HD
ENDBRANCH   8  21
TORSDOF 5
ENDMDL
MODEL 3
REMARK VINA RESULT:      -7.5      1.180      1.403
REMARK  Name = 
REMARK  5 active torsions:
REMARK  status: ('A' for Active; 'I' for Inactive)
REMARK    1  A    between atoms: C_2  and  OXT_3
REMARK    2  A    between atoms: C_2  and  CA_4
REMARK    3  A    between atoms: C_8  and  N_9
REMARK    4  A    between atoms: C_13  and  N_14
REMARK    5  A    between atoms: C_17  and  O_18
REMARK                            x       y       z     vdW  Elec       q    Type
REMARK                         _______ _______ _______ _____ _____    ______ ____
ROOT
ATOM      1  CA  UNL     1       5.707   5.135  15.817  0.00  0.00    +0.000 A 
ATOM      2  C   UNL     1       5.359   6.461  15.940  0.00  0.00    +0.000 A 
ATOM      3  C   UNL     1       4.374   6.780  16.869  0.00  0.00    +0.000 A 
ATOM      4  C   UNL     1       3.751   5.769  17.651  0.00  0.00    +0.000 A 
ATOM      5  C   UNL     1       2.744   5.988  18.631  0.00  0.00    +0.000 A 
ATOM      6  C   UNL     1       2.163   4.950  19.365  0.00  0.00    +0.000 A 
ATOM      7  C   UNL     1       2.590   3.644  19.125  0.00  0.00    +0.000 A 
ATOM      8  C   UNL     1       3.592   3.393  18.174  0.00  0.00    +0.000 A 
ATOM      9  C   UNL     1       4.178   4.437  17.436  0.00  0.00    +0.000 A 
ATOM     10  N   UNL     1       5.139   4.134  16.539  0.00  0.00    +0.000 NA
ENDROOT
BRANCH   5  11
ATOM     11  N   UNL     1       2.282   7.333  18.937  0.00  0.00    +0.000 N 
ATOM     12  O   UNL     1       1.976   8.058  17.984  0.00  0.00    +0.000 OA
ATOM     13  O   UNL     1       2.202   7.633  20.134  0.00  0.00    +0.000 OA
ENDBRANCH   5  11
BRANCH   7  14
ATOM     14  N   UNL     1       1.967   2.554  19.883  0.00  0.00    +0.000 N 
ATOM     15  O   UNL     1       1.434   1.639  19.245  0.00  0.00    +0.000 OA
ATOM     16  O   UNL     1       2.019   2.616  21.120  0.00  0.00    +0.000 OA
ENDBRANCH   7  14
BRANCH   1  18
ATOM     17  O   UNL     1       7.791   5.321  14.634  0.00  0.00    +0.000 OA
ATOM     18  C   UNL     1       6.763   4.705  14.856  0.00  0.00    +0.000 C 
BRANCH  18  19
ATOM     19  OXT UNL     1       6.424   3.535  14.264  0.00  0.00    +0.000 OA
ATOM     20  HXT UNL     1       7.196   2.918  14.294  0.00  0.00    +0.000 HD
ENDBRANCH  18  19
ENDBRANCH   1  18
BRANCH   8  21
ATOM     21  O   UNL     1       4.068   2.126  17.899  0.00  0.00    +0.000 OA
ATOM     22  H   UNL     1       3.844   1.495  18.616  0.00  0.00    +0.000 HD
ENDBRANCH   8  21
TORSDOF 5
ENDMDL
MODEL 4
REMARK VINA RESULT:      -7.4      1.838      5.857
REMARK  Name = 
REMARK  5 active torsions:
REMARK  status: ('A' for Active; 'I' for Inactive)
REMARK    1  A    between atoms: C_2  and  OXT_3
REMARK    2  A    between atoms: C_2  and  CA_4
REMARK    3  A    between atoms: C_8  and  N_9
REMARK    4  A    between atoms: C_13  and  N_14
REMARK    5  A    between atoms: C_17  and  O_18
REMARK                            x       y       z     vdW  Elec       q    Type
REMARK                         _______ _______ _______ _____ _____    ______ ____
ROOT
ATOM      1  CA  UNL     1       2.576   7.589  18.345  0.00  0.00    +0.000 A 
ATOM      2  C   UNL     1       2.219   6.618  19.253  0.00  0.00    +0.000 A 
ATOM      3  C   UNL     1       2.840   5.378  19.140  0.00  0.00    +0.000 A 
ATOM      4  C   UNL     1       3.797   5.129  18.119  0.00  0.00    +0.000 A 
ATOM      5  C   UNL     1       4.494   3.905  17.923  0.00  0.00    +0.000 A 
ATOM      6  C   UNL     1       5.422   3.718  16.894  0.00  0.00    +0.000 A 
ATOM      7  C   UNL     1       5.674   4.778  16.023  0.00  0.00    +0.000 A 
ATOM      8  C   UNL     1       5.013   6.006  16.196  0.00  0.00    +0.000 A 
ATOM      9  C   UNL     1       4.081   6.195  17.232  0.00  0.00    +0.000 A 
ATOM     10  N   UNL     1       3.482   7.398  17.350  0.00  0.00    +0.000 NA
ENDROOT
BRANCH   5  11
ATOM     11  N   UNL     1       4.286   2.778  18.817  0.00  0.00    +0.000 N 
ATOM     12  O   UNL     1       3.469   1.918  18.466  0.00  0.00    +0.000 OA
ATOM     13  O   UNL     1       4.970   2.754  19.847  0.00  0.00    +0.000 OA
ENDBRANCH   5  11
BRANCH   7  14
ATOM     14  N   UNL     1       6.634   4.575  14.933  0.00  0.00    +0.000 N 
ATOM     15  O   UNL     1       6.387   3.692  14.104  0.00  0.00    +0.000 OA
ATOM     16  O   UNL     1       7.633   5.309  14.909  0.00  0.00    +0.000 OA
ENDBRANCH   7  14
BRANCH   1  18
ATOM     17  O   UNL     1       2.072   9.789  17.520  0.00  0.00    +0.000 OA
ATOM     18  C   UNL     1       1.971   8.950  18.399  0.00  0.00    +0.000 C 
BRANCH  18  19
ATOM     19  OXT UNL     1       1.292   9.129  19.558  0.00  0.00    +0.000 OA
ATOM     20  HXT UNL     1       1.188   8.258  20.013  0.00  0.00    +0.000 HD
ENDBRANCH  18  19
ENDBRANCH   1  18
BRANCH   8  21
ATOM     21  O   UNL     1       5.229   7.098  15.379  0.00  0.00    +0.000 OA
ATOM     22  H   UNL     1       4.466   7.714  15.394  0.00  0.00    +0.000 HD
ENDBRANCH   8  21
TORSDOF 5
ENDMDL
MODEL 5
REMARK VINA RESULT:      -7.4      0.460      1.259
REMARK  Name = 
REMARK  5 active torsions:
REMARK  status: ('A' for Active; 'I' for Inactive)
REMARK    1  A    between atoms: C_2  and  OXT_3
REMARK    2  A    between atoms: C_2  and  CA_4
REMARK    3  A    between atoms: C_8  and  N_9
REMARK    4  A    between atoms: C_13  and  N_14
REMARK    5  A    between atoms: C_17  and  O_18
REMARK                            x       y       z     vdW  Elec       q    Type
REMARK                         _______ _______ _______ _____ _____    ______ ____
ROOT
ATOM      1  CA  UNL     1       5.678   5.207  16.674  0.00  0.00    +0.000 A 
ATOM      2  C   UNL     1       5.207   6.497  16.578  0.00  0.00    +0.000 A 
ATOM      3  C   UNL     1       4.201   6.877  17.461  0.00  0.00    +0.000 A 
ATOM      4  C   UNL     1       3.681   5.962  18.415  0.00  0.00    +0.000 A 
ATOM      5  C   UNL     1       2.664   6.252  19.367  0.00  0.00    +0.000 A 
ATOM      6  C   UNL     1       2.188   5.305  20.279  0.00  0.00    +0.000 A 
ATOM      7  C   UNL     1       2.735   4.022  20.254  0.00  0.00    +0.000 A 
ATOM      8  C   UNL     1       3.751   3.706  19.337  0.00  0.00    +0.000 A 
ATOM      9  C   UNL     1       4.231   4.657  18.420  0.00  0.00    +0.000 A 
ATOM     10  N   UNL     1       5.211   4.295  17.567  0.00  0.00    +0.000 NA
ENDROOT
BRANCH   5  11
ATOM     11  N   UNL     1       2.079   7.580  19.450  0.00  0.00    +0.000 N 
ATOM     12  O   UNL     1       1.844   8.027  20.579  0.00  0.00    +0.000 OA
ATOM     13  O   UNL     1       1.892   8.172  18.380  0.00  0.00    +0.000 OA
ENDBRANCH   5  11
BRANCH   7  14
ATOM     14  N   UNL     1       2.222   3.025  21.199  0.00  0.00    +0.000 N 
ATOM     15  O   UNL     1       1.003   2.821  21.218  0.00  0.00    +0.000 OA
ATOM     16  O   UNL     1       3.047   2.443  21.918  0.00  0.00    +0.000 OA
ENDBRANCH   7  14
BRANCH   1  18
ATOM     17  O   UNL     1       7.903   4.475  16.137  0.00  0.00    +0.000 OA
ATOM     18  C   UNL     1       6.764   4.718  15.777  0.00  0.00    +0.000 C 
BRANCH  18  19
ATOM     19  OXT UNL     1       6.312   4.579  14.507  0.00  0.00    +0.000 OA
ATOM     20  HXT UNL     1       5.657   5.293  14.313  0.00  0.00    +0.000 HD
ENDBRANCH  18  19
ENDBRANCH   1  18
BRANCH   8  21
ATOM     21  O   UNL     1       4.343   2.460  19.271  0.00  0.00    +0.000 OA
ATOM     22  H   UNL     1       4.630   2.247  18.358  0.00  0.00    +0.000 HD
ENDBRANCH   8  21
TORSDOF 5
ENDMDL
MODEL 6
REMARK VINA RESULT:      -7.4      1.315      1.484
REMARK  Name = 
REMARK  5 active torsions:
REMARK  status: ('A' for Active; 'I' for Inactive)
REMARK    1  A    between atoms: C_2  and  OXT_3
REMARK    2  A    between atoms: C_2  and  CA_4
REMARK    3  A    between atoms: C_8  and  N_9
REMARK    4  A    between atoms: C_13  and  N_14
REMARK    5  A    between atoms: C_17  and  O_18
REMARK                            x       y       z     vdW  Elec       q    Type
REMARK                         _______ _______ _______ _____ _____    ______ ____
ROOT
ATOM      1  CA  UNL     1       5.452   5.120  15.958  0.00  0.00    +0.000 A 
ATOM      2  C   UNL     1       5.311   6.465  16.210  0.00  0.00    +0.000 A 
ATOM      3  C   UNL     1       4.329   6.847  17.119  0.00  0.00    +0.000 A 
ATOM      4  C   UNL     1       3.503   5.879  17.752  0.00  0.00    +0.000 A 
ATOM      5  C   UNL     1       2.481   6.160  18.700  0.00  0.00    +0.000 A 
ATOM      6  C   UNL     1       1.696   5.163  19.285  0.00  0.00    +0.000 A 
ATOM      7  C   UNL     1       1.925   3.836  18.923  0.00  0.00    +0.000 A 
ATOM      8  C   UNL     1       2.936   3.520  18.000  0.00  0.00    +0.000 A 
ATOM      9  C   UNL     1       3.727   4.522  17.412  0.00  0.00    +0.000 A 
ATOM     10  N   UNL     1       4.685   4.157  16.536  0.00  0.00    +0.000 NA
ENDROOT
BRANCH   5  11
ATOM     11  N   UNL     1       2.219   7.524  19.130  0.00  0.00    +0.000 N 
ATOM     12  O   UNL     1       2.059   8.376  18.248  0.00  0.00    +0.000 OA
ATOM     13  O   UNL     1       2.146   7.717  20.349  0.00  0.00    +0.000 OA
ENDBRANCH   5  11
BRANCH   7  14
ATOM     14  N   UNL     1       1.088   2.792  19.524  0.00  0.00    +0.000 N 
ATOM     15  O   UNL     1       1.181   2.608  20.743  0.00  0.00    +0.000 OA
ATOM     16  O   UNL     1       0.332   2.162  18.770  0.00  0.00    +0.000 OA
ENDBRANCH   7  14
BRANCH   1  18
ATOM     17  O   UNL     1       6.364   3.632  14.306  0.00  0.00    +0.000 OA
ATOM     18  C   UNL     1       6.487   4.621  15.008  0.00  0.00    +0.000 C 
BRANCH  18  19
ATOM     19  OXT UNL     1       7.584   5.416  15.031  0.00  0.00    +0.000 OA
ATOM     20  HXT UNL     1       7.892   5.522  15.964  0.00  0.00    +0.000 HD
ENDBRANCH  18  19
ENDBRANCH   1  18
BRANCH   8  21
ATOM     21  O   UNL     1       3.222   2.226  17.611  0.00  0.00    +0.000 OA
ATOM     22  H   UNL     1       2.436   1.785  17.225  0.00  0.00    +0.000 HD
ENDBRANCH   8  21
TORSDOF 5
ENDMDL
MODEL 7
REMARK VINA RESULT:      -7.1      2.452      3.845
REMARK  Name = 
REMARK  5 active torsions:
REMARK  status: ('A' for Active; 'I' for Inactive)
REMARK    1  A    between atoms: C_2  and  OXT_3
REMARK    2  A    between atoms: C_2  and  CA_4
REMARK    3  A    between atoms: C_8  and  N_9
REMARK    4  A    between atoms: C_13  and  N_14
REMARK    5  A    between atoms: C_17  and  O_18
REMARK                            x       y       z     vdW  Elec       q    Type
REMARK                         _______ _______ _______ _____ _____    ______ ____
ROOT
ATOM      1  CA  UNL     1       5.963   4.075  14.323  0.00  0.00    +0.000 A 
ATOM      2  C   UNL     1       7.157   4.692  14.619  0.00  0.00    +0.000 A 
ATOM      3  C   UNL     1       7.353   5.109  15.932  0.00  0.00    +0.000 A 
ATOM      4  C   UNL     1       6.351   4.908  16.920  0.00  0.00    +0.000 A 
ATOM      5  C   UNL     1       6.455   5.286  18.288  0.00  0.00    +0.000 A 
ATOM      6  C   UNL     1       5.430   5.067  19.214  0.00  0.00    +0.000 A 
ATOM      7  C   UNL     1       4.257   4.453  18.776  0.00  0.00    +0.000 A 
ATOM      8  C   UNL     1       4.126   4.054  17.436  0.00  0.00    +0.000 A 
ATOM      9  C   UNL     1       5.157   4.272  16.504  0.00  0.00    +0.000 A 
ATOM     10  N   UNL     1       4.975   3.864  15.232  0.00  0.00    +0.000 NA
ENDROOT
BRANCH   5  11
ATOM     11  N   UNL     1       7.666   5.907  18.800  0.00  0.00    +0.000 N 
ATOM     12  O   UNL     1       7.915   7.058  18.424  0.00  0.00    +0.000 OA
ATOM     13  O   UNL     1       8.335   5.242  19.598  0.00  0.00    +0.000 OA
ENDBRANCH   5  11
BRANCH   7  14
ATOM     14  N   UNL     1       3.176   4.240  19.744  0.00  0.00    +0.000 N 
ATOM     15  O   UNL     1       2.807   3.078  19.951  0.00  0.00    +0.000 OA
ATOM     16  O   UNL     1       2.702   5.241  20.300  0.00  0.00    +0.000 OA
ENDBRANCH   7  14
BRANCH   1  18
ATOM     17  O   UNL     1       4.607   3.724  12.370  0.00  0.00    +0.000 OA
ATOM     18  C   UNL     1       5.673   3.585  12.945  0.00  0.00    +0.000 C 
BRANCH  18  19
ATOM     19  OXT UNL     1       6.756   2.965  12.418  0.00  0.00    +0.000 OA
ATOM     20  HXT UNL     1       6.706   3.002  11.432  0.00  0.00    +0.000 HD
ENDBRANCH  18  19
ENDBRANCH   1  18
BRANCH   8  21
ATOM     21  O   UNL     1       2.998   3.428  16.943  0.00  0.00    +0.000 OA
ATOM     22  H   UNL     1       2.674   3.864  16.127  0.00  0.00    +0.000 HD
ENDBRANCH   8  21
TORSDOF 5
ENDMDL
MODEL 8
REMARK VINA RESULT:      -7.1      1.630      5.906
REMARK  Name = 
REMARK  5 active torsions:
REMARK  status: ('A' for Active; 'I' for Inactive)
REMARK    1  A    between atoms: C_2  and  OXT_3
REMARK    2  A    between atoms: C_2  and  CA_4
REMARK    3  A    between atoms: C_8  and  N_9
REMARK    4  A    between atoms: C_13  and  N_14
REMARK    5  A    between atoms: C_17  and  O_18
REMARK                            x       y       z     vdW  Elec       q    Type
REMARK                         _______ _______ _______ _____ _____    ______ ____
ROOT
ATOM      1  CA  UNL     1       2.191   6.926  20.031  0.00  0.00    +0.000 A 
ATOM      2  C   UNL     1       1.878   5.731  20.637  0.00  0.00    +0.000 A 
ATOM      3  C   UNL     1       2.543   4.593  20.191  0.00  0.00    +0.000 A 
ATOM      4  C   UNL     1       3.501   4.670  19.145  0.00  0.00    +0.000 A 
ATOM      5  C   UNL     1       4.242   3.573  18.624  0.00  0.00    +0.000 A 
ATOM      6  C   UNL     1       5.169   3.710  17.587  0.00  0.00    +0.000 A 
ATOM      7  C   UNL     1       5.376   4.977  17.040  0.00  0.00    +0.000 A 
ATOM      8  C   UNL     1       4.672   6.085  17.540  0.00  0.00    +0.000 A 
ATOM      9  C   UNL     1       3.740   5.948  18.584  0.00  0.00    +0.000 A 
ATOM     10  N   UNL     1       3.097   7.049  19.025  0.00  0.00    +0.000 NA
ENDROOT
BRANCH   5  11
ATOM     11  N   UNL     1       4.082   2.237  19.175  0.00  0.00    +0.000 N 
ATOM     12  O   UNL     1       3.271   1.488  18.619  0.00  0.00    +0.000 OA
ATOM     13  O   UNL     1       4.798   1.946  20.140  0.00  0.00    +0.000 OA
ENDBRANCH   5  11
BRANCH   7  14
ATOM     14  N   UNL     1       6.336   5.117  15.940  0.00  0.00    +0.000 N 
ATOM     15  O   UNL     1       7.476   4.669  16.109  0.00  0.00    +0.000 OA
ATOM     16  O   UNL     1       5.940   5.672  14.905  0.00  0.00    +0.000 OA
ENDBRANCH   7  14
BRANCH   1  18
ATOM     17  O   UNL     1       1.071   9.024  19.689  0.00  0.00    +0.000 OA
ATOM     18  C   UNL     1       1.537   8.197  20.454  0.00  0.00    +0.000 C 
BRANCH  18  19
ATOM     19  OXT UNL     1       1.528   8.307  21.804  0.00  0.00    +0.000 OA
ATOM     20  HXT UNL     1       0.598   8.246  22.131  0.00  0.00    +0.000 HD
ENDBRANCH  18  19
ENDBRANCH   1  18
BRANCH   8  21
ATOM     21  O   UNL     1       4.841   7.366  17.054  0.00  0.00    +0.000 OA
ATOM     22  H   UNL     1       4.264   8.007  17.522  0.00  0.00    +0.000 HD
ENDBRANCH   8  21
TORSDOF 5
ENDMDL
MODEL 9
REMARK VINA RESULT:      -7.1      1.691      3.928
REMARK  Name = 
REMARK  5 active torsions:
REMARK  status: ('A' for Active; 'I' for Inactive)
REMARK    1  A    between atoms: C_2  and  OXT_3
REMARK    2  A    between atoms: C_2  and  CA_4
REMARK    3  A    between atoms: C_8  and  N_9
REMARK    4  A    between atoms: C_13  and  N_14
REMARK    5  A    between atoms: C_17  and  O_18
REMARK                            x       y       z     vdW  Elec       q    Type
REMARK                         _______ _______ _______ _____ _____    ______ ____
ROOT
ATOM      1  CA  UNL     1       4.551   4.321  16.898  0.00  0.00    +0.000 A 
ATOM      2  C   UNL     1       4.289   3.155  17.580  0.00  0.00    +0.000 A 
ATOM      3  C   UNL     1       3.484   3.243  18.712  0.00  0.00    +0.000 A 
ATOM      4  C   UNL     1       2.965   4.493  19.144  0.00  0.00    +0.000 A 
ATOM      5  C   UNL     1       2.128   4.691  20.277  0.00  0.00    +0.000 A 
ATOM      6  C   UNL     1       1.651   5.949  20.657  0.00  0.00    +0.000 A 
ATOM      7  C   UNL     1       2.013   7.057  19.891  0.00  0.00    +0.000 A 
ATOM      8  C   UNL     1       2.827   6.897  18.757  0.00  0.00    +0.000 A 
ATOM      9  C   UNL     1       3.305   5.631  18.374  0.00  0.00    +0.000 A 
ATOM     10  N   UNL     1       4.079   5.539  17.273  0.00  0.00    +0.000 NA
ENDROOT
BRANCH   5  11
ATOM     11  N   UNL     1       1.702   3.566  21.094  0.00  0.00    +0.000 N 
ATOM     12  O   UNL     1       0.752   2.891  20.680  0.00  0.00    +0.000 OA
ATOM     13  O   UNL     1       2.348   3.356  22.127  0.00  0.00    +0.000 OA
ENDBRANCH   5  11
BRANCH   7  14
ATOM     14  N   UNL     1       1.528   8.380  20.300  0.00  0.00    +0.000 N 
ATOM     15  O   UNL     1       1.488   8.630  21.510  0.00  0.00    +0.000 OA
ATOM     16  O   UNL     1       1.192   9.167  19.404  0.00  0.00    +0.000 OA
ENDBRANCH   7  14
BRANCH   1  18
ATOM     17  O   UNL     1       5.449   5.234  14.864  0.00  0.00    +0.000 OA
ATOM     18  C   UNL     1       5.392   4.318  15.667  0.00  0.00    +0.000 C 
BRANCH  18  19
ATOM     19  OXT UNL     1       6.087   3.160  15.563  0.00  0.00    +0.000 OA
ATOM     20  HXT UNL     1       6.510   3.112  14.671  0.00  0.00    +0.000 HD
ENDBRANCH  18  19
ENDBRANCH   1  18
BRANCH   8  21
ATOM     21  O   UNL     1       3.208   7.950  17.949  0.00  0.00    +0.000 OA
ATOM     22  H   UNL     1       2.434   8.369  17.516  0.00  0.00    +0.000 HD
ENDBRANCH   8  21
TORSDOF 5
ENDMDL
