MODEL 1
REMARK VINA RESULT:      -8.3      0.000      0.000
REMARK  Name = 
REMARK  10 active torsions:
REMARK  status: ('A' for Active; 'I' for Inactive)
REMARK    1  A    between atoms: C_1  and  C_2
REMARK    2  A    between atoms: C_2  and  C_3
REMARK    3  A    between atoms: C_3  and  N_4
REMARK    4  A    between atoms: N_4  and  C_5
REMARK    5  A    between atoms: N_4  and  C_16
REMARK    6  A    between atoms: C_5  and  C_6
REMARK    7  A    between atoms: C_9  and  C_10
REMARK    8  A    between atoms: N_12  and  C_13
REMARK    9  A    between atoms: C_20  and  C_21
REMARK   10  A    between atoms: C_24  and  C_25
REMARK                            x       y       z     vdW  Elec       q    Type
REMARK                         _______ _______ _______ _____ _____    ______ ____
ROOT
ATOM      1  N   UNL     1       2.737   5.376  18.679  0.00  0.00    +0.000 NA
ENDROOT
BRANCH   1   2
ATOM      2  C   UNL     1       4.049   5.543  17.963  0.00  0.00    +0.000 C 
ATOM      3  C   UNL     1       4.102   6.845  17.099  0.00  0.00    +0.000 C 
ATOM      4  C   UNL     1       5.450   6.990  16.365  0.00  0.00    +0.000 C 
ATOM      5  C   UNL     1       5.651   5.807  15.412  0.00  0.00    +0.000 C 
ATOM      6  C   UNL     1       5.631   4.486  16.204  0.00  0.00    +0.000 C 
ATOM      7  C   UNL     1       5.818   3.299  15.253  0.00  0.00    +0.000 C 
ATOM      8  C   UNL     1       4.276   4.369  16.946  0.00  0.00    +0.000 C 
ATOM      9  C   UNL     1       6.775   4.508  17.241  0.00  0.00    +0.000 C 
ATOM     10  C   UNL     1       6.611   5.699  18.201  0.00  0.00    +0.000 C 
ATOM     11  C   UNL     1       7.729   5.725  19.247  0.00  0.00    +0.000 C 
ATOM     12  C   UNL     1       6.592   7.012  17.392  0.00  0.00    +0.000 C 
ATOM     13  C   UNL     1       5.268   5.550  18.926  0.00  0.00    +0.000 C 
ENDBRANCH   1   2
BRANCH   1  14
ATOM     14  C   UNL     1       2.284   3.965  18.743  0.00  0.00    +0.000 C 
BRANCH  14  16
ATOM     15  C   UNL     1       1.351   2.796  20.809  0.00  0.00    +0.000 C 
ATOM     16  C   UNL     1       1.036   3.615  19.568  0.00  0.00    +0.000 C 
ENDBRANCH  14  16
ENDBRANCH   1  14
BRANCH   1  17
ATOM     17  C   UNL     1       2.625   6.062  20.005  0.00  0.00    +0.000 C 
BRANCH  17  18
ATOM     18  C   UNL     1       2.013   7.463  20.033  0.00  0.00    +0.000 A 
ATOM     19  C   UNL     1       1.315   7.912  21.153  0.00  0.00    +0.000 A 
ATOM     20  C   UNL     1       0.540   9.075  21.057  0.00  0.00    +0.000 A 
ATOM     21  C   UNL     1       0.495   9.778  19.852  0.00  0.00    +0.000 A 
ATOM     22  C   UNL     1       1.290   9.308  18.815  0.00  0.00    +0.000 A 
ATOM     23  N   UNL     1       2.056   8.190  18.888  0.00  0.00    +0.000 NA
BRANCH  21  24
ATOM     24  C   UNL     1      -0.360  10.967  19.585  0.00  0.00    +0.000 C 
ATOM     25  O   UNL     1      -1.239  11.272  20.381  0.00  0.00    +0.000 OA
ATOM     26  N   UNL     1      -0.107  11.693  18.439  0.00  0.00    +0.000 N 
ATOM     27  C   UNL     1      -0.874  12.865  18.091  0.00  0.00    +0.000 C 
ATOM     28  H   UNL     1       0.638  11.437  17.810  0.00  0.00    +0.000 HD
ENDBRANCH  21  24
ENDBRANCH  17  18
ENDBRANCH   1  17
TORSDOF 6
ENDMDL
MODEL 2
REMARK VINA RESULT:      -8.3      1.159      2.620
REMARK  Name = 
REMARK  10 active torsions:
REMARK  status: ('A' for Active; 'I' for Inactive)
REMARK    1  A    between atoms: C_1  and  C_2
REMARK    2  A    between atoms: C_2  and  C_3
REMARK    3  A    between atoms: C_3  and  N_4
REMARK    4  A    between atoms: N_4  and  C_5
REMARK    5  A    between atoms: N_4  and  C_16
REMARK    6  A    between atoms: C_5  and  C_6
REMARK    7  A    between atoms: C_9  and  C_10
REMARK    8  A    between atoms: N_12  and  C_13
REMARK    9  A    between atoms: C_20  and  C_21
REMARK   10  A    between atoms: C_24  and  C_25
REMARK                            x       y       z     vdW  Elec       q    Type
REMARK                         _______ _______ _______ _____ _____    ______ ____
ROOT
ATOM      1  N   UNL     1       3.387   5.807  17.896  0.00  0.00    +0.000 NA
ENDROOT
BRANCH   1   2
ATOM      2  C   UNL     1       4.866   5.728  17.630  0.00  0.00    +0.000 C 
ATOM      3  C   UNL     1       5.610   4.805  18.649  0.00  0.00    +0.000 C 
ATOM      4  C   UNL     1       7.125   4.747  18.366  0.00  0.00    +0.000 C 
ATOM      5  C   UNL     1       7.731   6.148  18.500  0.00  0.00    +0.000 C 
ATOM      6  C   UNL     1       7.054   7.109  17.504  0.00  0.00    +0.000 C 
ATOM      7  C   UNL     1       7.647   8.515  17.642  0.00  0.00    +0.000 C 
ATOM      8  C   UNL     1       5.532   7.139  17.794  0.00  0.00    +0.000 C 
ATOM      9  C   UNL     1       7.283   6.586  16.069  0.00  0.00    +0.000 C 
ATOM     10  C   UNL     1       6.703   5.169  15.911  0.00  0.00    +0.000 C 
ATOM     11  C   UNL     1       6.908   4.642  14.488  0.00  0.00    +0.000 C 
ATOM     12  C   UNL     1       7.360   4.227  16.940  0.00  0.00    +0.000 C 
ATOM     13  C   UNL     1       5.198   5.234  16.196  0.00  0.00    +0.000 C 
ENDBRANCH   1   2
BRANCH   1  14
ATOM     14  C   UNL     1       2.683   4.523  17.660  0.00  0.00    +0.000 C 
BRANCH  14  16
ATOM     15  C   UNL     1       2.482   2.705  19.437  0.00  0.00    +0.000 C 
ATOM     16  C   UNL     1       1.834   3.916  18.786  0.00  0.00    +0.000 C 
ENDBRANCH  14  16
ENDBRANCH   1  14
BRANCH   1  17
ATOM     17  C   UNL     1       2.990   6.433  19.197  0.00  0.00    +0.000 C 
BRANCH  17  18
ATOM     18  C   UNL     1       2.115   7.686  19.147  0.00  0.00    +0.000 A 
ATOM     19  C   UNL     1       2.026   8.444  17.980  0.00  0.00    +0.000 A 
ATOM     20  C   UNL     1       1.446   9.719  18.034  0.00  0.00    +0.000 A 
ATOM     21  C   UNL     1       0.949  10.202  19.245  0.00  0.00    +0.000 A 
ATOM     22  C   UNL     1       1.001   9.346  20.337  0.00  0.00    +0.000 A 
ATOM     23  N   UNL     1       1.548   8.103  20.307  0.00  0.00    +0.000 NA
BRANCH  21  24
ATOM     24  C   UNL     1       0.400  11.569  19.462  0.00  0.00    +0.000 C 
ATOM     25  O   UNL     1       0.099  11.927  20.593  0.00  0.00    +0.000 OA
ATOM     26  N   UNL     1       0.268  12.389  18.359  0.00  0.00    +0.000 N 
ATOM     27  C   UNL     1      -0.247  13.733  18.463  0.00  0.00    +0.000 C 
ATOM     28  H   UNL     1       0.546  12.080  17.441  0.00  0.00    +0.000 HD
ENDBRANCH  21  24
ENDBRANCH  17  18
ENDBRANCH   1  17
TORSDOF 6
ENDMDL
MODEL 3
REMARK VINA RESULT:      -8.3      0.745      1.078
REMARK  Name = 
REMARK  10 active torsions:
REMARK  status: ('A' for Active; 'I' for Inactive)
REMARK    1  A    between atoms: C_1  and  C_2
REMARK    2  A    between atoms: C_2  and  C_3
REMARK    3  A    between atoms: C_3  and  N_4
REMARK    4  A    between atoms: N_4  and  C_5
REMARK    5  A    between atoms: N_4  and  C_16
REMARK    6  A    between atoms: C_5  and  C_6
REMARK    7  A    between atoms: C_9  and  C_10
REMARK    8  A    between atoms: N_12  and  C_13
REMARK    9  A    between atoms: C_20  and  C_21
REMARK   10  A    between atoms: C_24  and  C_25
REMARK                            x       y       z     vdW  Elec       q    Type
REMARK                         _______ _______ _______ _____ _____    ______ ____
ROOT
ATOM      1  N   UNL     1       2.905   5.364  18.640  0.00  0.00    +0.000 NA
ENDROOT
BRANCH   1   2
ATOM      2  C   UNL     1       4.227   5.540  17.943  0.00  0.00    +0.000 C 
ATOM      3  C   UNL     1       4.301   6.868  17.121  0.00  0.00    +0.000 C 
ATOM      4  C   UNL     1       5.658   7.023  16.406  0.00  0.00    +0.000 C 
ATOM      5  C   UNL     1       5.858   5.869  15.418  0.00  0.00    +0.000 C 
ATOM      6  C   UNL     1       5.817   4.524  16.168  0.00  0.00    +0.000 C 
ATOM      7  C   UNL     1       6.003   3.366  15.182  0.00  0.00    +0.000 C 
ATOM      8  C   UNL     1       4.453   4.396  16.892  0.00  0.00    +0.000 C 
ATOM      9  C   UNL     1       6.950   4.502  17.217  0.00  0.00    +0.000 C 
ATOM     10  C   UNL     1       6.788   5.664  18.212  0.00  0.00    +0.000 C 
ATOM     11  C   UNL     1       7.894   5.646  19.270  0.00  0.00    +0.000 C 
ATOM     12  C   UNL     1       6.789   7.002  17.445  0.00  0.00    +0.000 C 
ATOM     13  C   UNL     1       5.435   5.505  18.918  0.00  0.00    +0.000 C 
ENDBRANCH   1   2
BRANCH   1  14
ATOM     14  C   UNL     1       2.565   3.942  18.891  0.00  0.00    +0.000 C 
BRANCH  14  16
ATOM     15  C   UNL     1       1.467   3.012  20.997  0.00  0.00    +0.000 C 
ATOM     16  C   UNL     1       1.253   3.602  19.613  0.00  0.00    +0.000 C 
ENDBRANCH  14  16
ENDBRANCH   1  14
BRANCH   1  17
ATOM     17  C   UNL     1       2.689   6.215  19.853  0.00  0.00    +0.000 C 
BRANCH  17  18
ATOM     18  C   UNL     1       1.919   7.524  19.676  0.00  0.00    +0.000 A 
ATOM     19  C   UNL     1       1.865   8.154  18.433  0.00  0.00    +0.000 A 
ATOM     20  C   UNL     1       1.393   9.471  18.353  0.00  0.00    +0.000 A 
ATOM     21  C   UNL     1       0.965  10.124  19.509  0.00  0.00    +0.000 A 
ATOM     22  C   UNL     1       0.971   9.391  20.688  0.00  0.00    +0.000 A 
ATOM     23  N   UNL     1       1.413   8.111  20.789  0.00  0.00    +0.000 NA
BRANCH  21  24
ATOM     24  C   UNL     1       0.535  11.547  19.581  0.00  0.00    +0.000 C 
ATOM     25  O   UNL     1       0.599  12.146  20.647  0.00  0.00    +0.000 OA
ATOM     26  N   UNL     1       0.090  12.142  18.417  0.00  0.00    +0.000 N 
ATOM     27  C   UNL     1      -0.343  13.518  18.378  0.00  0.00    +0.000 C 
ATOM     28  H   UNL     1       0.070  11.636  17.545  0.00  0.00    +0.000 HD
ENDBRANCH  21  24
ENDBRANCH  17  18
ENDBRANCH   1  17
TORSDOF 6
ENDMDL
MODEL 4
REMARK VINA RESULT:      -8.2      1.643      4.300
REMARK  Name = 
REMARK  10 active torsions:
REMARK  status: ('A' for Active; 'I' for Inactive)
REMARK    1  A    between atoms: C_1  and  C_2
REMARK    2  A    between atoms: C_2  and  C_3
REMARK    3  A    between atoms: C_3  and  N_4
REMARK    4  A    between atoms: N_4  and  C_5
REMARK    5  A    between atoms: N_4  and  C_16
REMARK    6  A    between atoms: C_5  and  C_6
REMARK    7  A    between atoms: C_9  and  C_10
REMARK    8  A    between atoms: N_12  and  C_13
REMARK    9  A    between atoms: C_20  and  C_21
REMARK   10  A    between atoms: C_24  and  C_25
REMARK                            x       y       z     vdW  Elec       q    Type
REMARK                         _______ _______ _______ _____ _____    ______ ____
ROOT
ATOM      1  N   UNL     1       4.012   6.121  18.530  0.00  0.00    +0.000 NA
ENDROOT
BRANCH   1   2
ATOM      2  C   UNL     1       3.279   4.822  18.726  0.00  0.00    +0.000 C 
ATOM      3  C   UNL     1       1.922   4.774  17.951  0.00  0.00    +0.000 C 
ATOM      4  C   UNL     1       1.183   3.440  18.175  0.00  0.00    +0.000 C 
ATOM      5  C   UNL     1       0.859   3.270  19.663  0.00  0.00    +0.000 C 
ATOM      6  C   UNL     1       2.160   3.287  20.488  0.00  0.00    +0.000 C 
ATOM      7  C   UNL     1       1.841   3.131  21.979  0.00  0.00    +0.000 C 
ATOM      8  C   UNL     1       2.895   4.628  20.236  0.00  0.00    +0.000 C 
ATOM      9  C   UNL     1       3.061   2.123  20.024  0.00  0.00    +0.000 C 
ATOM     10  C   UNL     1       3.387   2.254  18.526  0.00  0.00    +0.000 C 
ATOM     11  C   UNL     1       4.295   1.115  18.054  0.00  0.00    +0.000 C 
ATOM     12  C   UNL     1       2.075   2.277  17.715  0.00  0.00    +0.000 C 
ATOM     13  C   UNL     1       4.120   3.584  18.310  0.00  0.00    +0.000 C 
ENDBRANCH   1   2
BRANCH   1  14
ATOM     14  C   UNL     1       5.433   5.937  18.149  0.00  0.00    +0.000 C 
BRANCH  14  16
ATOM     15  C   UNL     1       7.466   7.343  17.519  0.00  0.00    +0.000 C 
ATOM     16  C   UNL     1       6.067   6.894  17.129  0.00  0.00    +0.000 C 
ENDBRANCH  14  16
ENDBRANCH   1  14
BRANCH   1  17
ATOM     17  C   UNL     1       3.326   7.133  17.665  0.00  0.00    +0.000 C 
BRANCH  17  18
ATOM     18  C   UNL     1       2.458   8.187  18.353  0.00  0.00    +0.000 A 
ATOM     19  C   UNL     1       2.061   8.025  19.679  0.00  0.00    +0.000 A 
ATOM     20  C   UNL     1       1.056   8.851  20.200  0.00  0.00    +0.000 A 
ATOM     21  C   UNL     1       0.483   9.836  19.393  0.00  0.00    +0.000 A 
ATOM     22  C   UNL     1       1.000   9.983  18.113  0.00  0.00    +0.000 A 
ATOM     23  N   UNL     1       1.980   9.202  17.590  0.00  0.00    +0.000 NA
BRANCH  21  24
ATOM     24  C   UNL     1      -0.654  10.711  19.787  0.00  0.00    +0.000 C 
ATOM     25  O   UNL     1      -1.596  10.861  19.019  0.00  0.00    +0.000 OA
ATOM     26  N   UNL     1      -0.600  11.313  21.028  0.00  0.00    +0.000 N 
ATOM     27  C   UNL     1      -1.654  12.175  21.506  0.00  0.00    +0.000 C 
ATOM     28  H   UNL     1       0.175  11.155  21.653  0.00  0.00    +0.000 HD
ENDBRANCH  21  24
ENDBRANCH  17  18
ENDBRANCH   1  17
TORSDOF 6
ENDMDL
MODEL 5
REMARK VINA RESULT:      -8.2      1.833      4.472
REMARK  Name = 
REMARK  10 active torsions:
REMARK  status: ('A' for Active; 'I' for Inactive)
REMARK    1  A    between atoms: C_1  and  C_2
REMARK    2  A    between atoms: C_2  and  C_3
REMARK    3  A    between atoms: C_3  and  N_4
REMARK    4  A    between atoms: N_4  and  C_5
REMARK    5  A    between atoms: N_4  and  C_16
REMARK    6  A    between atoms: C_5  and  C_6
REMARK    7  A    between atoms: C_9  and  C_10
REMARK    8  A    between atoms: N_12  and  C_13
REMARK    9  A    between atoms: C_20  and  C_21
REMARK   10  A    between atoms: C_24  and  C_25
REMARK                            x       y       z     vdW  Elec       q    Type
REMARK                         _______ _______ _______ _____ _____    ______ ____
ROOT
ATOM      1  N   UNL     1       3.908   6.093  18.738  0.00  0.00    +0.000 NA
ENDROOT
BRANCH   1   2
ATOM      2  C   UNL     1       3.203   4.770  18.864  0.00  0.00    +0.000 C 
ATOM      3  C   UNL     1       1.883   4.709  18.027  0.00  0.00    +0.000 C 
ATOM      4  C   UNL     1       1.171   3.351  18.181  0.00  0.00    +0.000 C 
ATOM      5  C   UNL     1       0.786   3.130  19.648  0.00  0.00    +0.000 C 
ATOM      6  C   UNL     1       2.048   3.157  20.531  0.00  0.00    +0.000 C 
ATOM      7  C   UNL     1       1.667   2.950  22.000  0.00  0.00    +0.000 C 
ATOM      8  C   UNL     1       2.757   4.522  20.349  0.00  0.00    +0.000 C 
ATOM      9  C   UNL     1       3.000   2.029  20.076  0.00  0.00    +0.000 C 
ATOM     10  C   UNL     1       3.388   2.212  18.599  0.00  0.00    +0.000 C 
ATOM     11  C   UNL     1       4.347   1.111  18.137  0.00  0.00    +0.000 C 
ATOM     12  C   UNL     1       2.114   2.225  17.730  0.00  0.00    +0.000 C 
ATOM     13  C   UNL     1       4.094   3.566  18.453  0.00  0.00    +0.000 C 
ENDBRANCH   1   2
BRANCH   1  14
ATOM     14  C   UNL     1       5.339   5.957  18.370  0.00  0.00    +0.000 C 
BRANCH  14  16
ATOM     15  C   UNL     1       7.475   6.967  17.411  0.00  0.00    +0.000 C 
ATOM     16  C   UNL     1       5.956   6.955  17.379  0.00  0.00    +0.000 C 
ENDBRANCH  14  16
ENDBRANCH   1  14
BRANCH   1  17
ATOM     17  C   UNL     1       3.212   7.127  17.908  0.00  0.00    +0.000 C 
BRANCH  17  18
ATOM     18  C   UNL     1       2.205   8.041  18.608  0.00  0.00    +0.000 A 
ATOM     19  C   UNL     1       1.652   9.133  17.940  0.00  0.00    +0.000 A 
ATOM     20  C   UNL     1       0.953  10.101  18.672  0.00  0.00    +0.000 A 
ATOM     21  C   UNL     1       0.801   9.950  20.051  0.00  0.00    +0.000 A 
ATOM     22  C   UNL     1       1.308   8.789  20.620  0.00  0.00    +0.000 A 
ATOM     23  N   UNL     1       1.980   7.832  19.930  0.00  0.00    +0.000 NA
BRANCH  21  24
ATOM     24  C   UNL     1       0.170  10.947  20.959  0.00  0.00    +0.000 C 
ATOM     25  O   UNL     1       0.307  12.143  20.733  0.00  0.00    +0.000 OA
ATOM     26  N   UNL     1      -0.567  10.468  22.023  0.00  0.00    +0.000 N 
ATOM     27  C   UNL     1      -1.224  11.350  22.958  0.00  0.00    +0.000 C 
ATOM     28  H   UNL     1      -0.686   9.478  22.174  0.00  0.00    +0.000 HD
ENDBRANCH  21  24
ENDBRANCH  17  18
ENDBRANCH   1  17
TORSDOF 6
ENDMDL
MODEL 6
REMARK VINA RESULT:      -8.1      1.664      4.318
REMARK  Name = 
REMARK  10 active torsions:
REMARK  status: ('A' for Active; 'I' for Inactive)
REMARK    1  A    between atoms: C_1  and  C_2
REMARK    2  A    between atoms: C_2  and  C_3
REMARK    3  A    between atoms: C_3  and  N_4
REMARK    4  A    between atoms: N_4  and  C_5
REMARK    5  A    between atoms: N_4  and  C_16
REMARK    6  A    between atoms: C_5  and  C_6
REMARK    7  A    between atoms: C_9  and  C_10
REMARK    8  A    between atoms: N_12  and  C_13
REMARK    9  A    between atoms: C_20  and  C_21
REMARK   10  A    between atoms: C_24  and  C_25
REMARK                            x       y       z     vdW  Elec       q    Type
REMARK                         _______ _______ _______ _____ _____    ______ ____
ROOT
ATOM      1  N   UNL     1       3.846   6.197  18.487  0.00  0.00    +0.000 NA
ENDROOT
BRANCH   1   2
ATOM      2  C   UNL     1       3.179   4.866  18.705  0.00  0.00    +0.000 C 
ATOM      3  C   UNL     1       1.811   4.749  17.956  0.00  0.00    +0.000 C 
ATOM      4  C   UNL     1       1.140   3.383  18.203  0.00  0.00    +0.000 C 
ATOM      5  C   UNL     1       0.852   3.210  19.698  0.00  0.00    +0.000 C 
ATOM      6  C   UNL     1       2.166   3.294  20.498  0.00  0.00    +0.000 C 
ATOM      7  C   UNL     1       1.882   3.135  21.995  0.00  0.00    +0.000 C 
ATOM      8  C   UNL     1       2.832   4.665  20.223  0.00  0.00    +0.000 C 
ATOM      9  C   UNL     1       3.112   2.169  20.025  0.00  0.00    +0.000 C 
ATOM     10  C   UNL     1       3.403   2.305  18.520  0.00  0.00    +0.000 C 
ATOM     11  C   UNL     1       4.354   1.206  18.038  0.00  0.00    +0.000 C 
ATOM     12  C   UNL     1       2.077   2.260  17.734  0.00  0.00    +0.000 C 
ATOM     13  C   UNL     1       4.069   3.666  18.281  0.00  0.00    +0.000 C 
ENDBRANCH   1   2
BRANCH   1  14
ATOM     14  C   UNL     1       5.209   6.078  17.915  0.00  0.00    +0.000 C 
BRANCH  14  16
ATOM     15  C   UNL     1       5.481   5.577  15.429  0.00  0.00    +0.000 C 
ATOM     16  C   UNL     1       5.486   6.642  16.513  0.00  0.00    +0.000 C 
ENDBRANCH  14  16
ENDBRANCH   1  14
BRANCH   1  17
ATOM     17  C   UNL     1       3.027   7.228  17.774  0.00  0.00    +0.000 C 
BRANCH  17  18
ATOM     18  C   UNL     1       2.120   8.124  18.618  0.00  0.00    +0.000 A 
ATOM     19  C   UNL     1       1.596   9.304  18.090  0.00  0.00    +0.000 A 
ATOM     20  C   UNL     1       1.000  10.234  18.951  0.00  0.00    +0.000 A 
ATOM     21  C   UNL     1       0.920   9.961  20.317  0.00  0.00    +0.000 A 
ATOM     22  C   UNL     1       1.389   8.725  20.743  0.00  0.00    +0.000 A 
ATOM     23  N   UNL     1       1.961   7.803  19.926  0.00  0.00    +0.000 NA
BRANCH  21  24
ATOM     24  C   UNL     1       0.405  10.899  21.351  0.00  0.00    +0.000 C 
ATOM     25  O   UNL     1       0.271  10.514  22.505  0.00  0.00    +0.000 OA
ATOM     26  N   UNL     1       0.110  12.189  20.956  0.00  0.00    +0.000 N 
ATOM     27  C   UNL     1      -0.390  13.177  21.881  0.00  0.00    +0.000 C 
ATOM     28  H   UNL     1       0.251  12.490  20.004  0.00  0.00    +0.000 HD
ENDBRANCH  21  24
ENDBRANCH  17  18
ENDBRANCH   1  17
TORSDOF 6
ENDMDL
MODEL 7
REMARK VINA RESULT:      -8.0      0.991      2.412
REMARK  Name = 
REMARK  10 active torsions:
REMARK  status: ('A' for Active; 'I' for Inactive)
REMARK    1  A    between atoms: C_1  and  C_2
REMARK    2  A    between atoms: C_2  and  C_3
REMARK    3  A    between atoms: C_3  and  N_4
REMARK    4  A    between atoms: N_4  and  C_5
REMARK    5  A    between atoms: N_4  and  C_16
REMARK    6  A    between atoms: C_5  and  C_6
REMARK    7  A    between atoms: C_9  and  C_10
REMARK    8  A    between atoms: N_12  and  C_13
REMARK    9  A    between atoms: C_20  and  C_21
REMARK   10  A    between atoms: C_24  and  C_25
REMARK                            x       y       z     vdW  Elec       q    Type
REMARK                         _______ _______ _______ _____ _____    ______ ____
ROOT
ATOM      1  N   UNL     1       3.419   5.663  18.009  0.00  0.00    +0.000 NA
ENDROOT
BRANCH   1   2
ATOM      2  C   UNL     1       4.896   5.646  17.722  0.00  0.00    +0.000 C 
ATOM      3  C   UNL     1       5.700   4.791  18.755  0.00  0.00    +0.000 C 
ATOM      4  C   UNL     1       7.211   4.797  18.450  0.00  0.00    +0.000 C 
ATOM      5  C   UNL     1       7.751   6.230  18.531  0.00  0.00    +0.000 C 
ATOM      6  C   UNL     1       7.013   7.126  17.518  0.00  0.00    +0.000 C 
ATOM      7  C   UNL     1       7.540   8.562  17.604  0.00  0.00    +0.000 C 
ATOM      8  C   UNL     1       5.496   7.092  17.832  0.00  0.00    +0.000 C 
ATOM      9  C   UNL     1       7.246   6.570  16.096  0.00  0.00    +0.000 C 
ATOM     10  C   UNL     1       6.733   5.123  15.990  0.00  0.00    +0.000 C 
ATOM     11  C   UNL     1       6.941   4.563  14.580  0.00  0.00    +0.000 C 
ATOM     12  C   UNL     1       7.449   4.246  17.036  0.00  0.00    +0.000 C 
ATOM     13  C   UNL     1       5.230   5.124  16.297  0.00  0.00    +0.000 C 
ENDBRANCH   1   2
BRANCH   1  14
ATOM     14  C   UNL     1       2.728   4.423  17.580  0.00  0.00    +0.000 C 
BRANCH  14  16
ATOM     15  C   UNL     1       0.972   2.924  18.664  0.00  0.00    +0.000 C 
ATOM     16  C   UNL     1       2.436   3.330  18.619  0.00  0.00    +0.000 C 
ENDBRANCH  14  16
ENDBRANCH   1  14
BRANCH   1  17
ATOM     17  C   UNL     1       3.029   6.071  19.396  0.00  0.00    +0.000 C 
BRANCH  17  18
ATOM     18  C   UNL     1       2.321   7.415  19.569  0.00  0.00    +0.000 A 
ATOM     19  C   UNL     1       1.659   7.722  20.757  0.00  0.00    +0.000 A 
ATOM     20  C   UNL     1       0.798   8.827  20.797  0.00  0.00    +0.000 A 
ATOM     21  C   UNL     1       0.632   9.615  19.657  0.00  0.00    +0.000 A 
ATOM     22  C   UNL     1       1.396   9.288  18.545  0.00  0.00    +0.000 A 
ATOM     23  N   UNL     1       2.244   8.229  18.486  0.00  0.00    +0.000 NA
BRANCH  21  24
ATOM     24  C   UNL     1      -0.321  10.752  19.533  0.00  0.00    +0.000 C 
ATOM     25  O   UNL     1      -0.878  11.187  20.533  0.00  0.00    +0.000 OA
ATOM     26  N   UNL     1      -0.524  11.283  18.275  0.00  0.00    +0.000 N 
ATOM     27  C   UNL     1      -1.422  12.390  18.047  0.00  0.00    +0.000 C 
ATOM     28  H   UNL     1      -0.035  10.924  17.470  0.00  0.00    +0.000 HD
ENDBRANCH  21  24
ENDBRANCH  17  18
ENDBRANCH   1  17
TORSDOF 6
ENDMDL
MODEL 8
REMARK VINA RESULT:      -7.8      3.707      6.633
REMARK  Name = 
REMARK  10 active torsions:
REMARK  status: ('A' for Active; 'I' for Inactive)
REMARK    1  A    between atoms: C_1  and  C_2
REMARK    2  A    between atoms: C_2  and  C_3
REMARK    3  A    between atoms: C_3  and  N_4
REMARK    4  A    between atoms: N_4  and  C_5
REMARK    5  A    between atoms: N_4  and  C_16
REMARK    6  A    between atoms: C_5  and  C_6
REMARK    7  A    between atoms: C_9  and  C_10
REMARK    8  A    between atoms: N_12  and  C_13
REMARK    9  A    between atoms: C_20  and  C_21
REMARK   10  A    between atoms: C_24  and  C_25
REMARK                            x       y       z     vdW  Elec       q    Type
REMARK                         _______ _______ _______ _____ _____    ______ ____
ROOT
ATOM      1  N   UNL     1       6.073   5.160  17.305  0.00  0.00    +0.000 NA
ENDROOT
BRANCH   1   2
ATOM      2  C   UNL     1       4.768   4.714  17.905  0.00  0.00    +0.000 C 
ATOM      3  C   UNL     1       3.800   4.092  16.846  0.00  0.00    +0.000 C 
ATOM      4  C   UNL     1       2.465   3.653  17.481  0.00  0.00    +0.000 C 
ATOM      5  C   UNL     1       1.753   4.868  18.085  0.00  0.00    +0.000 C 
ATOM      6  C   UNL     1       2.648   5.520  19.157  0.00  0.00    +0.000 C 
ATOM      7  C   UNL     1       1.946   6.743  19.755  0.00  0.00    +0.000 C 
ATOM      8  C   UNL     1       3.988   5.938  18.503  0.00  0.00    +0.000 C 
ATOM      9  C   UNL     1       2.929   4.486  20.269  0.00  0.00    +0.000 C 
ATOM     10  C   UNL     1       3.626   3.243  19.688  0.00  0.00    +0.000 C 
ATOM     11  C   UNL     1       3.927   2.214  20.781  0.00  0.00    +0.000 C 
ATOM     12  C   UNL     1       2.739   2.624  18.588  0.00  0.00    +0.000 C 
ATOM     13  C   UNL     1       4.951   3.687  19.057  0.00  0.00    +0.000 C 
ENDBRANCH   1   2
BRANCH   1  14
ATOM     14  C   UNL     1       6.601   4.215  16.290  0.00  0.00    +0.000 C 
BRANCH  14  16
ATOM     15  C   UNL     1       6.005   3.886  13.832  0.00  0.00    +0.000 C 
ATOM     16  C   UNL     1       6.795   4.698  14.845  0.00  0.00    +0.000 C 
ENDBRANCH  14  16
ENDBRANCH   1  14
BRANCH   1  17
ATOM     17  C   UNL     1       6.120   6.579  16.827  0.00  0.00    +0.000 C 
BRANCH  17  18
ATOM     18  C   UNL     1       7.193   7.493  17.419  0.00  0.00    +0.000 A 
ATOM     19  C   UNL     1       8.006   7.053  18.462  0.00  0.00    +0.000 A 
ATOM     20  C   UNL     1       8.786   7.983  19.163  0.00  0.00    +0.000 A 
ATOM     21  C   UNL     1       8.755   9.328  18.795  0.00  0.00    +0.000 A 
ATOM     22  C   UNL     1       7.985   9.664  17.689  0.00  0.00    +0.000 A 
ATOM     23  N   UNL     1       7.230   8.780  16.988  0.00  0.00    +0.000 NA
BRANCH  21  24
ATOM     24  C   UNL     1       9.454  10.430  19.512  0.00  0.00    +0.000 C 
ATOM     25  O   UNL     1       9.272  10.581  20.713  0.00  0.00    +0.000 OA
ATOM     26  N   UNL     1      10.302  11.235  18.778  0.00  0.00    +0.000 N 
ATOM     27  C   UNL     1      11.031  12.326  19.380  0.00  0.00    +0.000 C 
ATOM     28  H   UNL     1      10.455  11.076  17.795  0.00  0.00    +0.000 HD
ENDBRANCH  21  24
ENDBRANCH  17  18
ENDBRANCH   1  17
TORSDOF 6
ENDMDL
MODEL 9
REMARK VINA RESULT:      -7.8      1.621      4.121
REMARK  Name = 
REMARK  10 active torsions:
REMARK  status: ('A' for Active; 'I' for Inactive)
REMARK    1  A    between atoms: C_1  and  C_2
REMARK    2  A    between atoms: C_2  and  C_3
REMARK    3  A    between atoms: C_3  and  N_4
REMARK    4  A    between atoms: N_4  and  C_5
REMARK    5  A    between atoms: N_4  and  C_16
REMARK    6  A    between atoms: C_5  and  C_6
REMARK    7  A    between atoms: C_9  and  C_10
REMARK    8  A    between atoms: N_12  and  C_13
REMARK    9  A    between atoms: C_20  and  C_21
REMARK   10  A    between atoms: C_24  and  C_25
REMARK                            x       y       z     vdW  Elec       q    Type
REMARK                         _______ _______ _______ _____ _____    ______ ____
ROOT
ATOM      1  N   UNL     1       4.403   5.936  18.565  0.00  0.00    +0.000 NA
ENDROOT
BRANCH   1   2
ATOM      2  C   UNL     1       3.764   4.580  18.703  0.00  0.00    +0.000 C 
ATOM      3  C   UNL     1       3.337   3.973  17.327  0.00  0.00    +0.000 C 
ATOM      4  C   UNL     1       2.675   2.591  17.494  0.00  0.00    +0.000 C 
ATOM      5  C   UNL     1       1.405   2.724  18.342  0.00  0.00    +0.000 C 
ATOM      6  C   UNL     1       1.758   3.300  19.726  0.00  0.00    +0.000 C 
ATOM      7  C   UNL     1       0.490   3.447  20.574  0.00  0.00    +0.000 C 
ATOM      8  C   UNL     1       2.437   4.679  19.536  0.00  0.00    +0.000 C 
ATOM      9  C   UNL     1       2.746   2.343  20.429  0.00  0.00    +0.000 C 
ATOM     10  C   UNL     1       4.024   2.174  19.589  0.00  0.00    +0.000 C 
ATOM     11  C   UNL     1       5.022   1.241  20.281  0.00  0.00    +0.000 C 
ATOM     12  C   UNL     1       3.653   1.635  18.192  0.00  0.00    +0.000 C 
ATOM     13  C   UNL     1       4.677   3.552  19.426  0.00  0.00    +0.000 C 
ENDBRANCH   1   2
BRANCH   1  14
ATOM     14  C   UNL     1       5.868   5.869  18.345  0.00  0.00    +0.000 C 
BRANCH  14  16
ATOM     15  C   UNL     1       7.613   7.566  17.583  0.00  0.00    +0.000 C 
ATOM     16  C   UNL     1       6.485   6.636  17.166  0.00  0.00    +0.000 C 
ENDBRANCH  14  16
ENDBRANCH   1  14
BRANCH   1  17
ATOM     17  C   UNL     1       3.735   6.877  17.611  0.00  0.00    +0.000 C 
BRANCH  17  18
ATOM     18  C   UNL     1       2.825   7.957  18.197  0.00  0.00    +0.000 A 
ATOM     19  C   UNL     1       2.284   7.815  19.474  0.00  0.00    +0.000 A 
ATOM     20  C   UNL     1       1.251   8.670  19.879  0.00  0.00    +0.000 A 
ATOM     21  C   UNL     1       0.793   9.662  19.012  0.00  0.00    +0.000 A 
ATOM     22  C   UNL     1       1.448   9.788  17.793  0.00  0.00    +0.000 A 
ATOM     23  N   UNL     1       2.458   8.979  17.383  0.00  0.00    +0.000 NA
BRANCH  21  24
ATOM     24  C   UNL     1      -0.357  10.569  19.276  0.00  0.00    +0.000 C 
ATOM     25  O   UNL     1      -0.623  10.889  20.428  0.00  0.00    +0.000 OA
ATOM     26  N   UNL     1      -1.075  11.027  18.190  0.00  0.00    +0.000 N 
ATOM     27  C   UNL     1      -2.204  11.914  18.338  0.00  0.00    +0.000 C 
ATOM     28  H   UNL     1      -0.822  10.769  17.249  0.00  0.00    +0.000 HD
ENDBRANCH  21  24
ENDBRANCH  17  18
ENDBRANCH   1  17
TORSDOF 6
ENDMDL
