MODEL 1
REMARK VINA RESULT:      -7.5      0.000      0.000
REMARK  Name = 
REMARK  9 active torsions:
REMARK  status: ('A' for Active; 'I' for Inactive)
REMARK    1  A    between atoms: C_1  and  O_2
REMARK    2  A    between atoms: O_2  and  C_3
REMARK    3  A    between atoms: C_6  and  N_7
REMARK    4  A    between atoms: C_8  and  C_10
REMARK    5  A    between atoms: C_10  and  C_11
REMARK    6  A    between atoms: C_11  and  C_12
REMARK    7  A    between atoms: C_18  and  C_19
REMARK    8  A    between atoms: C_19  and  C_20
REMARK    9  A    between atoms: C_19  and  C_21
REMARK                            x       y       z     vdW  Elec       q    Type
REMARK                         _______ _______ _______ _____ _____    ______ ____
ROOT
ATOM      1  C   UNL     1       8.149   7.430  18.538  0.00  0.00    +0.000 C 
ENDROOT
BRANCH   1   3
ATOM      2  N   UNL     1       9.331   9.431  19.254  0.00  0.00    +0.000 N 
ATOM      3  C   UNL     1       8.329   8.926  18.450  0.00  0.00    +0.000 C 
ATOM      4  O   UNL     1       7.686   9.563  17.616  0.00  0.00    +0.000 OA
ATOM      5  H   UNL     1       9.949   8.768  19.711  0.00  0.00    +0.000 HD
BRANCH   2   9
ATOM      6  C   UNL     1      10.448  13.509  19.460  0.00  0.00    +0.000 A 
ATOM      7  C   UNL     1       9.725  12.929  20.501  0.00  0.00    +0.000 A 
ATOM      8  C   UNL     1       9.359  11.583  20.446  0.00  0.00    +0.000 A 
ATOM      9  C   UNL     1       9.688  10.793  19.342  0.00  0.00    +0.000 A 
ATOM     10  C   UNL     1      10.405  11.370  18.290  0.00  0.00    +0.000 A 
ATOM     11  C   UNL     1      10.768  12.724  18.344  0.00  0.00    +0.000 A 
ATOM     12 CL   UNL     1      11.630  13.389  16.999  0.00  0.00    +0.000 Cl
BRANCH   6  14
ATOM     13  C   UNL     1      10.454  15.558  20.632  0.00  0.00    +0.000 C 
ATOM     14  O   UNL     1      10.832  14.825  19.468  0.00  0.00    +0.000 OA
ENDBRANCH   6  14
ENDBRANCH   2   9
ENDBRANCH   1   3
BRANCH   1  15
ATOM     15  C   UNL     1       7.579   6.928  17.215  0.00  0.00    +0.000 C 
BRANCH  15  16
ATOM     16  C   UNL     1       6.118   6.551  17.376  0.00  0.00    +0.000 C 
ATOM     17  O   UNL     1       5.249   7.345  17.026  0.00  0.00    +0.000 OA
ATOM     18  N   UNL     1       5.924   5.341  18.007  0.00  0.00    +0.000 N 
ATOM     19  C   UNL     1       4.662   4.846  18.211  0.00  0.00    +0.000 A 
ATOM     20  N   UNL     1       3.518   5.249  17.718  0.00  0.00    +0.000 NA
ATOM     21  N   UNL     1       2.459   4.493  18.179  0.00  0.00    +0.000 NA
ATOM     22  C   UNL     1       2.842   3.569  19.037  0.00  0.00    +0.000 A 
ATOM     23  S   UNL     1       4.551   3.513  19.276  0.00  0.00    +0.000 S 
ATOM     24  H   UNL     1       6.695   4.841  18.436  0.00  0.00    +0.000 HD
BRANCH  22  25
ATOM     25  C   UNL     1       1.905   2.650  19.772  0.00  0.00    +0.000 C 
ATOM     26  C   UNL     1       1.464   3.291  21.092  0.00  0.00    +0.000 C 
ATOM     27  C   UNL     1       0.682   2.317  18.916  0.00  0.00    +0.000 C 
ENDBRANCH  22  25
ENDBRANCH  15  16
ENDBRANCH   1  15
TORSDOF 6
ENDMDL
MODEL 2
REMARK VINA RESULT:      -7.5      1.767      2.051
REMARK  Name = 
REMARK  9 active torsions:
REMARK  status: ('A' for Active; 'I' for Inactive)
REMARK    1  A    between atoms: C_1  and  O_2
REMARK    2  A    between atoms: O_2  and  C_3
REMARK    3  A    between atoms: C_6  and  N_7
REMARK    4  A    between atoms: C_8  and  C_10
REMARK    5  A    between atoms: C_10  and  C_11
REMARK    6  A    between atoms: C_11  and  C_12
REMARK    7  A    between atoms: C_18  and  C_19
REMARK    8  A    between atoms: C_19  and  C_20
REMARK    9  A    between atoms: C_19  and  C_21
REMARK                            x       y       z     vdW  Elec       q    Type
REMARK                         _______ _______ _______ _____ _____    ______ ____
ROOT
ATOM      1  C   UNL     1       8.461   7.919  18.563  0.00  0.00    +0.000 C 
ENDROOT
BRANCH   1   3
ATOM      2  N   UNL     1       9.570  10.039  18.999  0.00  0.00    +0.000 N 
ATOM      3  C   UNL     1       8.549   9.406  18.319  0.00  0.00    +0.000 C 
ATOM      4  O   UNL     1       7.819   9.924  17.475  0.00  0.00    +0.000 OA
ATOM      5  H   UNL     1      10.254   9.457  19.474  0.00  0.00    +0.000 HD
BRANCH   2   9
ATOM      6  C   UNL     1      10.363  14.194  18.836  0.00  0.00    +0.000 A 
ATOM      7  C   UNL     1      11.072  13.314  18.019  0.00  0.00    +0.000 A 
ATOM      8  C   UNL     1      10.812  11.944  18.060  0.00  0.00    +0.000 A 
ATOM      9  C   UNL     1       9.854  11.419  18.931  0.00  0.00    +0.000 A 
ATOM     10  C   UNL     1       9.146  12.294  19.759  0.00  0.00    +0.000 A 
ATOM     11  C   UNL     1       9.411  13.670  19.721  0.00  0.00    +0.000 A 
ATOM     12 CL   UNL     1       8.523  14.700  20.791  0.00  0.00    +0.000 Cl
BRANCH   6  14
ATOM     13  C   UNL     1      10.007  16.248  17.729  0.00  0.00    +0.000 C 
ATOM     14  O   UNL     1      10.580  15.548  18.831  0.00  0.00    +0.000 OA
ENDBRANCH   6  14
ENDBRANCH   2   9
ENDBRANCH   1   3
BRANCH   1  15
ATOM     15  C   UNL     1       7.569   7.301  17.491  0.00  0.00    +0.000 C 
BRANCH  15  16
ATOM     16  C   UNL     1       7.043   5.955  17.951  0.00  0.00    +0.000 C 
ATOM     17  O   UNL     1       7.691   4.940  17.709  0.00  0.00    +0.000 OA
ATOM     18  N   UNL     1       5.796   6.017  18.537  0.00  0.00    +0.000 N 
ATOM     19  C   UNL     1       5.188   4.889  19.024  0.00  0.00    +0.000 A 
ATOM     20  N   UNL     1       5.684   3.693  19.223  0.00  0.00    +0.000 NA
ATOM     21  N   UNL     1       4.740   2.816  19.719  0.00  0.00    +0.000 NA
ATOM     22  C   UNL     1       3.554   3.376  19.840  0.00  0.00    +0.000 A 
ATOM     23  S   UNL     1       3.534   5.052  19.425  0.00  0.00    +0.000 S 
ATOM     24  H   UNL     1       5.249   6.871  18.521  0.00  0.00    +0.000 HD
BRANCH  22  25
ATOM     25  C   UNL     1       2.310   2.649  20.273  0.00  0.00    +0.000 C 
ATOM     26  C   UNL     1       1.775   3.249  21.578  0.00  0.00    +0.000 C 
ATOM     27  C   UNL     1       1.234   2.713  19.187  0.00  0.00    +0.000 C 
ENDBRANCH  22  25
ENDBRANCH  15  16
ENDBRANCH   1  15
TORSDOF 6
ENDMDL
MODEL 3
REMARK VINA RESULT:      -7.4      1.439      1.868
REMARK  Name = 
REMARK  9 active torsions:
REMARK  status: ('A' for Active; 'I' for Inactive)
REMARK    1  A    between atoms: C_1  and  O_2
REMARK    2  A    between atoms: O_2  and  C_3
REMARK    3  A    between atoms: C_6  and  N_7
REMARK    4  A    between atoms: C_8  and  C_10
REMARK    5  A    between atoms: C_10  and  C_11
REMARK    6  A    between atoms: C_11  and  C_12
REMARK    7  A    between atoms: C_18  and  C_19
REMARK    8  A    between atoms: C_19  and  C_20
REMARK    9  A    between atoms: C_19  and  C_21
REMARK                            x       y       z     vdW  Elec       q    Type
REMARK                         _______ _______ _______ _____ _____    ______ ____
ROOT
ATOM      1  C   UNL     1       7.884   7.495  18.265  0.00  0.00    +0.000 C 
ENDROOT
BRANCH   1   3
ATOM      2  N   UNL     1       9.183   9.266  19.308  0.00  0.00    +0.000 N 
ATOM      3  C   UNL     1       8.246   8.958  18.343  0.00  0.00    +0.000 C 
ATOM      4  O   UNL     1       7.798   9.737  17.502  0.00  0.00    +0.000 OA
ATOM      5  H   UNL     1       9.655   8.496  19.772  0.00  0.00    +0.000 HD
BRANCH   2   9
ATOM      6  C   UNL     1      10.630  13.156  20.145  0.00  0.00    +0.000 A 
ATOM      7  C   UNL     1      11.036  12.493  18.988  0.00  0.00    +0.000 A 
ATOM      8  C   UNL     1      10.558  11.214  18.699  0.00  0.00    +0.000 A 
ATOM      9  C   UNL     1       9.682  10.560  19.569  0.00  0.00    +0.000 A 
ATOM     10  C   UNL     1       9.277  11.215  20.735  0.00  0.00    +0.000 A 
ATOM     11  C   UNL     1       9.762  12.498  21.027  0.00  0.00    +0.000 A 
ATOM     12 CL   UNL     1       9.247  13.246  22.500  0.00  0.00    +0.000 Cl
BRANCH   6  14
ATOM     13  C   UNL     1      10.532  15.467  19.675  0.00  0.00    +0.000 C 
ATOM     14  O   UNL     1      11.069  14.413  20.471  0.00  0.00    +0.000 OA
ENDBRANCH   6  14
ENDBRANCH   2   9
ENDBRANCH   1   3
BRANCH   1  15
ATOM     15  C   UNL     1       7.531   7.156  16.821  0.00  0.00    +0.000 C 
BRANCH  15  16
ATOM     16  C   UNL     1       6.174   6.482  16.750  0.00  0.00    +0.000 C 
ATOM     17  O   UNL     1       5.562   6.472  15.685  0.00  0.00    +0.000 OA
ATOM     18  N   UNL     1       5.722   6.016  17.966  0.00  0.00    +0.000 N 
ATOM     19  C   UNL     1       4.520   5.364  18.069  0.00  0.00    +0.000 A 
ATOM     20  N   UNL     1       3.739   4.899  17.127  0.00  0.00    +0.000 NA
ATOM     21  N   UNL     1       2.599   4.314  17.639  0.00  0.00    +0.000 NA
ATOM     22  C   UNL     1       2.545   4.394  18.953  0.00  0.00    +0.000 A 
ATOM     23  S   UNL     1       3.939   5.129  19.659  0.00  0.00    +0.000 S 
ATOM     24  H   UNL     1       6.206   6.239  18.829  0.00  0.00    +0.000 HD
BRANCH  22  25
ATOM     25  C   UNL     1       1.386   3.922  19.787  0.00  0.00    +0.000 C 
ATOM     26  C   UNL     1       0.784   2.648  19.184  0.00  0.00    +0.000 C 
ATOM     27  C   UNL     1       1.821   3.663  21.231  0.00  0.00    +0.000 C 
ENDBRANCH  22  25
ENDBRANCH  15  16
ENDBRANCH   1  15
TORSDOF 6
ENDMDL
MODEL 4
REMARK VINA RESULT:      -7.4      0.995      1.219
REMARK  Name = 
REMARK  9 active torsions:
REMARK  status: ('A' for Active; 'I' for Inactive)
REMARK    1  A    between atoms: C_1  and  O_2
REMARK    2  A    between atoms: O_2  and  C_3
REMARK    3  A    between atoms: C_6  and  N_7
REMARK    4  A    between atoms: C_8  and  C_10
REMARK    5  A    between atoms: C_10  and  C_11
REMARK    6  A    between atoms: C_11  and  C_12
REMARK    7  A    between atoms: C_18  and  C_19
REMARK    8  A    between atoms: C_19  and  C_20
REMARK    9  A    between atoms: C_19  and  C_21
REMARK                            x       y       z     vdW  Elec       q    Type
REMARK                         _______ _______ _______ _____ _____    ______ ____
ROOT
ATOM      1  C   UNL     1       7.841   7.107  18.180  0.00  0.00    +0.000 C 
ENDROOT
BRANCH   1   3
ATOM      2  N   UNL     1       9.040   9.060  18.992  0.00  0.00    +0.000 N 
ATOM      3  C   UNL     1       8.069   8.598  18.127  0.00  0.00    +0.000 C 
ATOM      4  O   UNL     1       7.491   9.267  17.271  0.00  0.00    +0.000 OA
ATOM      5  H   UNL     1       9.614   8.373  19.471  0.00  0.00    +0.000 HD
BRANCH   2   9
ATOM      6  C   UNL     1      10.248  13.105  19.319  0.00  0.00    +0.000 A 
ATOM      7  C   UNL     1       9.683  12.453  20.414  0.00  0.00    +0.000 A 
ATOM      8  C   UNL     1       9.289  11.118  20.318  0.00  0.00    +0.000 A 
ATOM      9  C   UNL     1       9.431  10.410  19.123  0.00  0.00    +0.000 A 
ATOM     10  C   UNL     1       9.990  11.059  18.018  0.00  0.00    +0.000 A 
ATOM     11  C   UNL     1      10.380  12.402  18.114  0.00  0.00    +0.000 A 
ATOM     12 CL   UNL     1      11.039  13.160  16.704  0.00  0.00    +0.000 Cl
BRANCH   6  14
ATOM     13  C   UNL     1      11.896  14.640  20.026  0.00  0.00    +0.000 C 
ATOM     14  O   UNL     1      10.653  14.414  19.364  0.00  0.00    +0.000 OA
ENDBRANCH   6  14
ENDBRANCH   2   9
ENDBRANCH   1   3
BRANCH   1  15
ATOM     15  C   UNL     1       7.629   6.594  16.759  0.00  0.00    +0.000 C 
BRANCH  15  16
ATOM     16  C   UNL     1       6.367   5.757  16.679  0.00  0.00    +0.000 C 
ATOM     17  O   UNL     1       6.013   5.304  15.594  0.00  0.00    +0.000 OA
ATOM     18  N   UNL     1       5.683   5.671  17.873  0.00  0.00    +0.000 N 
ATOM     19  C   UNL     1       4.532   4.934  17.974  0.00  0.00    +0.000 A 
ATOM     20  N   UNL     1       4.013   4.075  17.132  0.00  0.00    +0.000 NA
ATOM     21  N   UNL     1       2.826   3.546  17.596  0.00  0.00    +0.000 NA
ATOM     22  C   UNL     1       2.472   4.057  18.757  0.00  0.00    +0.000 A 
ATOM     23  S   UNL     1       3.623   5.170  19.402  0.00  0.00    +0.000 S 
ATOM     24  H   UNL     1       5.946   6.236  18.673  0.00  0.00    +0.000 HD
BRANCH  22  25
ATOM     25  C   UNL     1       1.186   3.739  19.470  0.00  0.00    +0.000 C 
ATOM     26  C   UNL     1       0.638   2.389  18.996  0.00  0.00    +0.000 C 
ATOM     27  C   UNL     1       1.392   3.718  20.986  0.00  0.00    +0.000 C 
ENDBRANCH  22  25
ENDBRANCH  15  16
ENDBRANCH   1  15
TORSDOF 6
ENDMDL
MODEL 5
REMARK VINA RESULT:      -7.4      4.741      7.536
REMARK  Name = 
REMARK  9 active torsions:
REMARK  status: ('A' for Active; 'I' for Inactive)
REMARK    1  A    between atoms: C_1  and  O_2
REMARK    2  A    between atoms: O_2  and  C_3
REMARK    3  A    between atoms: C_6  and  N_7
REMARK    4  A    between atoms: C_8  and  C_10
REMARK    5  A    between atoms: C_10  and  C_11
REMARK    6  A    between atoms: C_11  and  C_12
REMARK    7  A    between atoms: C_18  and  C_19
REMARK    8  A    between atoms: C_19  and  C_20
REMARK    9  A    between atoms: C_19  and  C_21
REMARK                            x       y       z     vdW  Elec       q    Type
REMARK                         _______ _______ _______ _____ _____    ______ ____
ROOT
ATOM      1  C   UNL     1       7.561   7.571  17.737  0.00  0.00    +0.000 C 
ENDROOT
BRANCH   1   3
ATOM      2  N   UNL     1       7.441   5.853  16.021  0.00  0.00    +0.000 N 
ATOM      3  C   UNL     1       6.772   6.884  16.649  0.00  0.00    +0.000 C 
ATOM      4  O   UNL     1       5.592   7.186  16.476  0.00  0.00    +0.000 OA
ATOM      5  H   UNL     1       8.321   5.545  16.423  0.00  0.00    +0.000 HD
BRANCH   2   9
ATOM      6  C   UNL     1       5.889   3.525  12.843  0.00  0.00    +0.000 A 
ATOM      7  C   UNL     1       5.431   3.325  14.146  0.00  0.00    +0.000 A 
ATOM      8  C   UNL     1       5.931   4.093  15.198  0.00  0.00    +0.000 A 
ATOM      9  C   UNL     1       6.912   5.063  14.978  0.00  0.00    +0.000 A 
ATOM     10  C   UNL     1       7.382   5.263  13.677  0.00  0.00    +0.000 A 
ATOM     11  C   UNL     1       6.883   4.487  12.621  0.00  0.00    +0.000 A 
ATOM     12 CL   UNL     1       7.524   4.761  11.037  0.00  0.00    +0.000 Cl
BRANCH   6  14
ATOM     13  C   UNL     1       6.171   1.618  11.482  0.00  0.00    +0.000 C 
ATOM     14  O   UNL     1       5.427   2.798  11.777  0.00  0.00    +0.000 OA
ENDBRANCH   6  14
ENDBRANCH   2   9
ENDBRANCH   1   3
BRANCH   1  15
ATOM     15  C   UNL     1       8.116   6.510  18.682  0.00  0.00    +0.000 C 
BRANCH  15  16
ATOM     16  C   UNL     1       7.151   5.346  18.798  0.00  0.00    +0.000 C 
ATOM     17  O   UNL     1       7.502   4.232  18.419  0.00  0.00    +0.000 OA
ATOM     18  N   UNL     1       5.901   5.705  19.255  0.00  0.00    +0.000 N 
ATOM     19  C   UNL     1       4.919   4.766  19.436  0.00  0.00    +0.000 A 
ATOM     20  N   UNL     1       5.002   3.460  19.432  0.00  0.00    +0.000 NA
ATOM     21  N   UNL     1       3.776   2.860  19.638  0.00  0.00    +0.000 NA
ATOM     22  C   UNL     1       2.804   3.742  19.752  0.00  0.00    +0.000 A 
ATOM     23  S   UNL     1       3.344   5.380  19.693  0.00  0.00    +0.000 S 
ATOM     24  H   UNL     1       5.639   6.680  19.362  0.00  0.00    +0.000 HD
BRANCH  22  25
ATOM     25  C   UNL     1       1.348   3.389  19.898  0.00  0.00    +0.000 C 
ATOM     26  C   UNL     1       0.928   2.413  18.794  0.00  0.00    +0.000 C 
ATOM     27  C   UNL     1       1.070   2.777  21.272  0.00  0.00    +0.000 C 
ENDBRANCH  22  25
ENDBRANCH  15  16
ENDBRANCH   1  15
TORSDOF 6
ENDMDL
MODEL 6
REMARK VINA RESULT:      -7.3      2.092      2.753
REMARK  Name = 
REMARK  9 active torsions:
REMARK  status: ('A' for Active; 'I' for Inactive)
REMARK    1  A    between atoms: C_1  and  O_2
REMARK    2  A    between atoms: O_2  and  C_3
REMARK    3  A    between atoms: C_6  and  N_7
REMARK    4  A    between atoms: C_8  and  C_10
REMARK    5  A    between atoms: C_10  and  C_11
REMARK    6  A    between atoms: C_11  and  C_12
REMARK    7  A    between atoms: C_18  and  C_19
REMARK    8  A    between atoms: C_19  and  C_20
REMARK    9  A    between atoms: C_19  and  C_21
REMARK                            x       y       z     vdW  Elec       q    Type
REMARK                         _______ _______ _______ _____ _____    ______ ____
ROOT
ATOM      1  C   UNL     1       8.971   9.198  18.884  0.00  0.00    +0.000 C 
ENDROOT
BRANCH   1   3
ATOM      2  N   UNL     1      10.444  11.130  18.975  0.00  0.00    +0.000 N 
ATOM      3  C   UNL     1       9.237  10.638  18.520  0.00  0.00    +0.000 C 
ATOM      4  O   UNL     1       8.458  11.225  17.771  0.00  0.00    +0.000 OA
ATOM      5  H   UNL     1      11.105  10.470  19.373  0.00  0.00    +0.000 HD
BRANCH   2   9
ATOM      6  C   UNL     1      11.829  15.088  18.391  0.00  0.00    +0.000 A 
ATOM      7  C   UNL     1      11.921  14.155  17.358  0.00  0.00    +0.000 A 
ATOM      8  C   UNL     1      11.460  12.851  17.539  0.00  0.00    +0.000 A 
ATOM      9  C   UNL     1      10.916  12.442  18.759  0.00  0.00    +0.000 A 
ATOM     10  C   UNL     1      10.829  13.369  19.801  0.00  0.00    +0.000 A 
ATOM     11  C   UNL     1      11.297  14.679  19.621  0.00  0.00    +0.000 A 
ATOM     12 CL   UNL     1      11.188  15.773  20.957  0.00  0.00    +0.000 Cl
BRANCH   6  14
ATOM     13  C   UNL     1      11.638  17.131  17.223  0.00  0.00    +0.000 C 
ATOM     14  O   UNL     1      12.265  16.381  18.261  0.00  0.00    +0.000 OA
ENDBRANCH   6  14
ENDBRANCH   2   9
ENDBRANCH   1   3
BRANCH   1  15
ATOM     15  C   UNL     1       8.103   8.572  17.798  0.00  0.00    +0.000 C 
BRANCH  15  16
ATOM     16  C   UNL     1       7.604   7.209  18.237  0.00  0.00    +0.000 C 
ATOM     17  O   UNL     1       8.327   6.496  18.929  0.00  0.00    +0.000 OA
ATOM     18  N   UNL     1       6.374   6.872  17.711  0.00  0.00    +0.000 N 
ATOM     19  C   UNL     1       5.774   5.681  18.027  0.00  0.00    +0.000 A 
ATOM     20  N   UNL     1       6.085   4.809  18.953  0.00  0.00    +0.000 NA
ATOM     21  N   UNL     1       5.238   3.719  18.945  0.00  0.00    +0.000 NA
ATOM     22  C   UNL     1       4.339   3.793  17.984  0.00  0.00    +0.000 A 
ATOM     23  S   UNL     1       4.424   5.254  17.068  0.00  0.00    +0.000 S 
ATOM     24  H   UNL     1       5.935   7.440  16.994  0.00  0.00    +0.000 HD
BRANCH  22  25
ATOM     25  C   UNL     1       3.337   2.716  17.672  0.00  0.00    +0.000 C 
ATOM     26  C   UNL     1       3.645   1.456  18.488  0.00  0.00    +0.000 C 
ATOM     27  C   UNL     1       1.913   3.194  17.963  0.00  0.00    +0.000 C 
ENDBRANCH  22  25
ENDBRANCH  15  16
ENDBRANCH   1  15
TORSDOF 6
ENDMDL
MODEL 7
REMARK VINA RESULT:      -7.3      4.140     10.751
REMARK  Name = 
REMARK  9 active torsions:
REMARK  status: ('A' for Active; 'I' for Inactive)
REMARK    1  A    between atoms: C_1  and  O_2
REMARK    2  A    between atoms: O_2  and  C_3
REMARK    3  A    between atoms: C_6  and  N_7
REMARK    4  A    between atoms: C_8  and  C_10
REMARK    5  A    between atoms: C_10  and  C_11
REMARK    6  A    between atoms: C_11  and  C_12
REMARK    7  A    between atoms: C_18  and  C_19
REMARK    8  A    between atoms: C_19  and  C_20
REMARK    9  A    between atoms: C_19  and  C_21
REMARK                            x       y       z     vdW  Elec       q    Type
REMARK                         _______ _______ _______ _____ _____    ______ ____
ROOT
ATOM      1  C   UNL     1       7.942   7.417  18.057  0.00  0.00    +0.000 C 
ENDROOT
BRANCH   1   3
ATOM      2  N   UNL     1       5.920   6.165  18.564  0.00  0.00    +0.000 N 
ATOM      3  C   UNL     1       6.760   6.617  17.566  0.00  0.00    +0.000 C 
ATOM      4  O   UNL     1       6.555   6.522  16.357  0.00  0.00    +0.000 OA
ATOM      5  H   UNL     1       6.068   6.519  19.504  0.00  0.00    +0.000 HD
BRANCH   2   9
ATOM      6  C   UNL     1       2.457   3.814  17.923  0.00  0.00    +0.000 A 
ATOM      7  C   UNL     1       2.353   5.201  18.022  0.00  0.00    +0.000 A 
ATOM      8  C   UNL     1       3.489   5.985  18.225  0.00  0.00    +0.000 A 
ATOM      9  C   UNL     1       4.752   5.401  18.355  0.00  0.00    +0.000 A 
ATOM     10  C   UNL     1       4.863   4.011  18.266  0.00  0.00    +0.000 A 
ATOM     11  C   UNL     1       3.720   3.224  18.067  0.00  0.00    +0.000 A 
ATOM     12 CL   UNL     1       3.918   1.506  17.994  0.00  0.00    +0.000 Cl
BRANCH   6  14
ATOM     13  C   UNL     1       0.631   2.679  18.898  0.00  0.00    +0.000 C 
ATOM     14  O   UNL     1       1.371   3.002  17.722  0.00  0.00    +0.000 OA
ENDBRANCH   6  14
ENDBRANCH   2   9
ENDBRANCH   1   3
BRANCH   1  15
ATOM     15  C   UNL     1       7.779   8.862  17.596  0.00  0.00    +0.000 C 
BRANCH  15  16
ATOM     16  C   UNL     1       8.676   9.781  18.403  0.00  0.00    +0.000 C 
ATOM     17  O   UNL     1       9.184   9.367  19.441  0.00  0.00    +0.000 OA
ATOM     18  N   UNL     1       8.751  11.063  17.902  0.00  0.00    +0.000 N 
ATOM     19  C   UNL     1       9.536  12.011  18.504  0.00  0.00    +0.000 A 
ATOM     20  N   UNL     1      10.447  11.872  19.434  0.00  0.00    +0.000 NA
ATOM     21  N   UNL     1      11.014  13.080  19.790  0.00  0.00    +0.000 NA
ATOM     22  C   UNL     1      10.478  14.093  19.140  0.00  0.00    +0.000 A 
ATOM     23  S   UNL     1       9.290  13.620  17.980  0.00  0.00    +0.000 S 
ATOM     24  H   UNL     1       8.145  11.370  17.148  0.00  0.00    +0.000 HD
BRANCH  22  25
ATOM     25  C   UNL     1      10.829  15.536  19.377  0.00  0.00    +0.000 C 
ATOM     26  C   UNL     1      12.330  15.677  19.651  0.00  0.00    +0.000 C 
ATOM     27  C   UNL     1      10.432  16.399  18.177  0.00  0.00    +0.000 C 
ENDBRANCH  22  25
ENDBRANCH  15  16
ENDBRANCH   1  15
TORSDOF 6
ENDMDL
MODEL 8
REMARK VINA RESULT:      -7.3      8.784     11.618
REMARK  Name = 
REMARK  9 active torsions:
REMARK  status: ('A' for Active; 'I' for Inactive)
REMARK    1  A    between atoms: C_1  and  O_2
REMARK    2  A    between atoms: O_2  and  C_3
REMARK    3  A    between atoms: C_6  and  N_7
REMARK    4  A    between atoms: C_8  and  C_10
REMARK    5  A    between atoms: C_10  and  C_11
REMARK    6  A    between atoms: C_11  and  C_12
REMARK    7  A    between atoms: C_18  and  C_19
REMARK    8  A    between atoms: C_19  and  C_20
REMARK    9  A    between atoms: C_19  and  C_21
REMARK                            x       y       z     vdW  Elec       q    Type
REMARK                         _______ _______ _______ _____ _____    ______ ____
ROOT
ATOM      1  C   UNL     1       1.245   9.600  22.093  0.00  0.00    +0.000 C 
ENDROOT
BRANCH   1   3
ATOM      2  N   UNL     1       2.062   7.691  20.829  0.00  0.00    +0.000 N 
ATOM      3  C   UNL     1       0.947   8.338  21.322  0.00  0.00    +0.000 C 
ATOM      4  O   UNL     1      -0.207   7.912  21.284  0.00  0.00    +0.000 OA
ATOM      5  H   UNL     1       2.973   8.015  21.138  0.00  0.00    +0.000 HD
BRANCH   2   9
ATOM      6  C   UNL     1       1.985   4.063  18.647  0.00  0.00    +0.000 A 
ATOM      7  C   UNL     1       2.315   5.257  18.008  0.00  0.00    +0.000 A 
ATOM      8  C   UNL     1       2.351   6.456  18.720  0.00  0.00    +0.000 A 
ATOM      9  C   UNL     1       2.038   6.494  20.081  0.00  0.00    +0.000 A 
ATOM     10  C   UNL     1       1.697   5.303  20.727  0.00  0.00    +0.000 A 
ATOM     11  C   UNL     1       1.656   4.099  20.009  0.00  0.00    +0.000 A 
ATOM     12 CL   UNL     1       1.199   2.661  20.857  0.00  0.00    +0.000 Cl
BRANCH   6  14
ATOM     13  C   UNL     1       3.185   2.173  17.898  0.00  0.00    +0.000 C 
ATOM     14  O   UNL     1       1.938   2.860  17.992  0.00  0.00    +0.000 OA
ENDBRANCH   6  14
ENDBRANCH   2   9
ENDBRANCH   1   3
BRANCH   1  15
ATOM     15  C   UNL     1       0.415  10.738  21.507  0.00  0.00    +0.000 C 
BRANCH  15  16
ATOM     16  C   UNL     1      -0.803  11.006  22.371  0.00  0.00    +0.000 C 
ATOM     17  O   UNL     1      -0.920  10.421  23.444  0.00  0.00    +0.000 OA
ATOM     18  N   UNL     1      -1.725  11.846  21.784  0.00  0.00    +0.000 N 
ATOM     19  C   UNL     1      -2.873  12.204  22.442  0.00  0.00    +0.000 A 
ATOM     20  N   UNL     1      -3.202  12.033  23.698  0.00  0.00    +0.000 NA
ATOM     21  N   UNL     1      -4.462  12.525  23.975  0.00  0.00    +0.000 NA
ATOM     22  C   UNL     1      -5.053  13.015  22.904  0.00  0.00    +0.000 A 
ATOM     23  S   UNL     1      -4.063  12.978  21.490  0.00  0.00    +0.000 S 
ATOM     24  H   UNL     1      -1.637  12.130  20.814  0.00  0.00    +0.000 HD
BRANCH  22  25
ATOM     25  C   UNL     1      -6.462  13.542  22.876  0.00  0.00    +0.000 C 
ATOM     26  C   UNL     1      -7.101  13.269  21.510  0.00  0.00    +0.000 C 
ATOM     27  C   UNL     1      -7.304  12.910  23.985  0.00  0.00    +0.000 C 
ENDBRANCH  22  25
ENDBRANCH  15  16
ENDBRANCH   1  15
TORSDOF 6
ENDMDL
MODEL 9
REMARK VINA RESULT:      -7.2      4.195     10.462
REMARK  Name = 
REMARK  9 active torsions:
REMARK  status: ('A' for Active; 'I' for Inactive)
REMARK    1  A    between atoms: C_1  and  O_2
REMARK    2  A    between atoms: O_2  and  C_3
REMARK    3  A    between atoms: C_6  and  N_7
REMARK    4  A    between atoms: C_8  and  C_10
REMARK    5  A    between atoms: C_10  and  C_11
REMARK    6  A    between atoms: C_11  and  C_12
REMARK    7  A    between atoms: C_18  and  C_19
REMARK    8  A    between atoms: C_19  and  C_20
REMARK    9  A    between atoms: C_19  and  C_21
REMARK                            x       y       z     vdW  Elec       q    Type
REMARK                         _______ _______ _______ _____ _____    ______ ____
ROOT
ATOM      1  C   UNL     1       8.109   6.884  18.440  0.00  0.00    +0.000 C 
ENDROOT
BRANCH   1   3
ATOM      2  N   UNL     1       5.919   6.063  17.776  0.00  0.00    +0.000 N 
ATOM      3  C   UNL     1       6.882   6.067  18.765  0.00  0.00    +0.000 C 
ATOM      4  O   UNL     1       6.863   5.387  19.790  0.00  0.00    +0.000 OA
ATOM      5  H   UNL     1       6.162   6.467  16.877  0.00  0.00    +0.000 HD
BRANCH   2   9
ATOM      6  C   UNL     1       2.267   3.930  17.971  0.00  0.00    +0.000 A 
ATOM      7  C   UNL     1       2.265   5.324  17.987  0.00  0.00    +0.000 A 
ATOM      8  C   UNL     1       3.462   6.036  17.915  0.00  0.00    +0.000 A 
ATOM      9  C   UNL     1       4.690   5.373  17.846  0.00  0.00    +0.000 A 
ATOM     10  C   UNL     1       4.701   3.975  17.839  0.00  0.00    +0.000 A 
ATOM     11  C   UNL     1       3.497   3.261  17.916  0.00  0.00    +0.000 A 
ATOM     12 CL   UNL     1       3.576   1.533  17.932  0.00  0.00    +0.000 Cl
BRANCH   6  14
ATOM     13  C   UNL     1       0.667   2.885  19.356  0.00  0.00    +0.000 C 
ATOM     14  O   UNL     1       1.117   3.187  18.037  0.00  0.00    +0.000 OA
ENDBRANCH   6  14
ENDBRANCH   2   9
ENDBRANCH   1   3
BRANCH   1  15
ATOM     15  C   UNL     1       7.674   8.151  17.711  0.00  0.00    +0.000 C 
BRANCH  15  16
ATOM     16  C   UNL     1       8.443   9.351  18.228  0.00  0.00    +0.000 C 
ATOM     17  O   UNL     1       9.216   9.211  19.172  0.00  0.00    +0.000 OA
ATOM     18  N   UNL     1       8.105  10.536  17.609  0.00  0.00    +0.000 N 
ATOM     19  C   UNL     1       8.724  11.711  17.947  0.00  0.00    +0.000 A 
ATOM     20  N   UNL     1       9.792  11.912  18.677  0.00  0.00    +0.000 NA
ATOM     21  N   UNL     1      10.094  13.253  18.798  0.00  0.00    +0.000 NA
ATOM     22  C   UNL     1       9.215  14.019  18.184  0.00  0.00    +0.000 A 
ATOM     23  S   UNL     1       7.994  13.134  17.343  0.00  0.00    +0.000 S 
ATOM     24  H   UNL     1       7.317  10.591  16.973  0.00  0.00    +0.000 HD
BRANCH  22  25
ATOM     25  C   UNL     1       9.231  15.523  18.211  0.00  0.00    +0.000 C 
ATOM     26  C   UNL     1       8.748  16.032  19.574  0.00  0.00    +0.000 C 
ATOM     27  C   UNL     1      10.633  16.060  17.918  0.00  0.00    +0.000 C 
ENDBRANCH  22  25
ENDBRANCH  15  16
ENDBRANCH   1  15
TORSDOF 6
ENDMDL
