MODEL 1
REMARK VINA RESULT:      -7.7      0.000      0.000
REMARK  Name = 
REMARK  5 active torsions:
REMARK  status: ('A' for Active; 'I' for Inactive)
REMARK    1  A    between atoms: C_1  and  N_2
REMARK    2  A    between atoms: C_6  and  C_7
REMARK    3  A    between atoms: C_9  and  C_10
REMARK    4  A    between atoms: C_15  and  C_16
REMARK    5  A    between atoms: C_23  and  C_24
REMARK                            x       y       z     vdW  Elec       q    Type
REMARK                         _______ _______ _______ _____ _____    ______ ____
ROOT
ATOM      1  C   UNL     1       3.935   5.070  19.394  0.00  0.00    +0.000 A 
ATOM      2  C   UNL     1       3.417   6.330  19.713  0.00  0.00    +0.000 A 
ATOM      3  C   UNL     1       2.112   6.476  20.183  0.00  0.00    +0.000 A 
ATOM      4  N   UNL     1       1.303   5.410  20.330  0.00  0.00    +0.000 NA
ATOM      5  C   UNL     1       1.794   4.180  20.077  0.00  0.00    +0.000 A 
ATOM      6  N   UNL     1       0.870   3.151  20.255  0.00  0.00    +0.000 N 
ATOM      7  C   UNL     1       3.091   3.958  19.597  0.00  0.00    +0.000 A 
ATOM      8  H   UNL     1       0.038   3.547  20.683  0.00  0.00    +0.000 HD
ATOM      9  H   UNL     1       1.226   2.359  20.779  0.00  0.00    +0.000 HD
ENDROOT
BRANCH   1  15
ATOM     10  C   UNL     1       4.700   4.334  16.360  0.00  0.00    +0.000 C 
ATOM     11  N   UNL     1       5.585   4.604  17.468  0.00  0.00    +0.000 N 
ATOM     12  C   UNL     1       6.948   4.573  17.346  0.00  0.00    +0.000 A 
ATOM     13  N   UNL     1       7.542   4.902  18.463  0.00  0.00    +0.000 NA
ATOM     14  C   UNL     1       6.528   5.156  19.342  0.00  0.00    +0.000 A 
ATOM     15  C   UNL     1       5.273   4.973  18.769  0.00  0.00    +0.000 A 
ENDBRANCH   1  15
BRANCH   3  16
ATOM     16  C   UNL     1       1.510   7.802  20.448  0.00  0.00    +0.000 A 
ATOM     17  C   UNL     1       0.962   8.050  21.734  0.00  0.00    +0.000 A 
ATOM     18  C   UNL     1       0.416   9.280  22.098  0.00  0.00    +0.000 A 
ATOM     19  C   UNL     1       0.425  10.325  21.192  0.00  0.00    +0.000 A 
ATOM     20  C   UNL     1       0.947  10.119  19.917  0.00  0.00    +0.000 A 
ATOM     21  C   UNL     1       1.469   8.863  19.512  0.00  0.00    +0.000 A 
BRANCH  21  22
ATOM     22  C   UNL     1       1.924   8.790  18.066  0.00  0.00    +0.000 C 
ATOM     23  F   UNL     1       3.251   8.639  17.825  0.00  0.00    +0.000 F 
ATOM     24  F   UNL     1       1.355   7.710  17.438  0.00  0.00    +0.000 F 
ATOM     25  F   UNL     1       1.516   9.869  17.339  0.00  0.00    +0.000 F 
ENDBRANCH  21  22
ENDBRANCH   3  16
BRANCH   7  26
ATOM     26  C   UNL     1       3.514   2.617  19.346  0.00  0.00    +0.000 C 
ATOM     27  N   UNL     1       3.848   1.526  19.118  0.00  0.00    +0.000 NA
ENDBRANCH   7  26
TORSDOF 4
ENDMDL
MODEL 2
REMARK VINA RESULT:      -7.6      2.928      6.409
REMARK  Name = 
REMARK  5 active torsions:
REMARK  status: ('A' for Active; 'I' for Inactive)
REMARK    1  A    between atoms: C_1  and  N_2
REMARK    2  A    between atoms: C_6  and  C_7
REMARK    3  A    between atoms: C_9  and  C_10
REMARK    4  A    between atoms: C_15  and  C_16
REMARK    5  A    between atoms: C_23  and  C_24
REMARK                            x       y       z     vdW  Elec       q    Type
REMARK                         _______ _______ _______ _____ _____    ______ ____
ROOT
ATOM      1  C   UNL     1       2.941   5.098  19.424  0.00  0.00    +0.000 A 
ATOM      2  C   UNL     1       3.878   4.678  18.475  0.00  0.00    +0.000 A 
ATOM      3  C   UNL     1       4.344   5.548  17.489  0.00  0.00    +0.000 A 
ATOM      4  N   UNL     1       3.896   6.814  17.410  0.00  0.00    +0.000 NA
ATOM      5  C   UNL     1       3.030   7.257  18.344  0.00  0.00    +0.000 A 
ATOM      6  N   UNL     1       2.627   8.580  18.164  0.00  0.00    +0.000 N 
ATOM      7  C   UNL     1       2.515   6.441  19.359  0.00  0.00    +0.000 A 
ATOM      8  H   UNL     1       3.194   8.983  17.423  0.00  0.00    +0.000 HD
ATOM      9  H   UNL     1       2.651   9.141  19.008  0.00  0.00    +0.000 HD
ENDROOT
BRANCH   1  15
ATOM     10  C   UNL     1       0.846   2.729  18.842  0.00  0.00    +0.000 C 
ATOM     11  N   UNL     1       1.426   3.124  20.103  0.00  0.00    +0.000 N 
ATOM     12  C   UNL     1       1.127   2.492  21.281  0.00  0.00    +0.000 A 
ATOM     13  N   UNL     1       1.810   2.985  22.282  0.00  0.00    +0.000 NA
ATOM     14  C   UNL     1       2.579   3.971  21.734  0.00  0.00    +0.000 A 
ATOM     15  C   UNL     1       2.368   4.108  20.366  0.00  0.00    +0.000 A 
ENDBRANCH   1  15
BRANCH   3  16
ATOM     16  C   UNL     1       5.271   5.108  16.421  0.00  0.00    +0.000 A 
ATOM     17  C   UNL     1       4.723   4.723  15.169  0.00  0.00    +0.000 A 
ATOM     18  C   UNL     1       5.513   4.340  14.086  0.00  0.00    +0.000 A 
ATOM     19  C   UNL     1       6.891   4.356  14.206  0.00  0.00    +0.000 A 
ATOM     20  C   UNL     1       7.465   4.722  15.421  0.00  0.00    +0.000 A 
ATOM     21  C   UNL     1       6.680   5.074  16.549  0.00  0.00    +0.000 A 
BRANCH  21  22
ATOM     22  C   UNL     1       7.464   5.368  17.814  0.00  0.00    +0.000 C 
ATOM     23  F   UNL     1       6.790   5.382  18.992  0.00  0.00    +0.000 F 
ATOM     24  F   UNL     1       8.436   4.418  18.008  0.00  0.00    +0.000 F 
ATOM     25  F   UNL     1       8.143   6.549  17.741  0.00  0.00    +0.000 F 
ENDBRANCH  21  22
ENDBRANCH   3  16
BRANCH   7  26
ATOM     26  C   UNL     1       1.591   7.001  20.293  0.00  0.00    +0.000 C 
ATOM     27  N   UNL     1       0.838   7.480  21.041  0.00  0.00    +0.000 NA
ENDBRANCH   7  26
TORSDOF 4
ENDMDL
MODEL 3
REMARK VINA RESULT:      -7.5      0.962      1.564
REMARK  Name = 
REMARK  5 active torsions:
REMARK  status: ('A' for Active; 'I' for Inactive)
REMARK    1  A    between atoms: C_1  and  N_2
REMARK    2  A    between atoms: C_6  and  C_7
REMARK    3  A    between atoms: C_9  and  C_10
REMARK    4  A    between atoms: C_15  and  C_16
REMARK    5  A    between atoms: C_23  and  C_24
REMARK                            x       y       z     vdW  Elec       q    Type
REMARK                         _______ _______ _______ _____ _____    ______ ____
ROOT
ATOM      1  C   UNL     1       3.784   5.762  18.793  0.00  0.00    +0.000 A 
ATOM      2  C   UNL     1       3.225   6.969  19.224  0.00  0.00    +0.000 A 
ATOM      3  C   UNL     1       2.095   6.989  20.042  0.00  0.00    +0.000 A 
ATOM      4  N   UNL     1       1.498   5.847  20.430  0.00  0.00    +0.000 NA
ATOM      5  C   UNL     1       2.048   4.670  20.069  0.00  0.00    +0.000 A 
ATOM      6  N   UNL     1       1.345   3.552  20.520  0.00  0.00    +0.000 N 
ATOM      7  C   UNL     1       3.176   4.573  19.246  0.00  0.00    +0.000 A 
ATOM      8  H   UNL     1       0.623   3.872  21.159  0.00  0.00    +0.000 HD
ATOM      9  H   UNL     1       1.929   2.834  20.935  0.00  0.00    +0.000 HD
ENDROOT
BRANCH   1  15
ATOM     10  C   UNL     1       6.946   5.501  19.320  0.00  0.00    +0.000 C 
ATOM     11  N   UNL     1       6.259   5.721  18.069  0.00  0.00    +0.000 N 
ATOM     12  C   UNL     1       6.923   5.857  16.879  0.00  0.00    +0.000 A 
ATOM     13  N   UNL     1       6.096   5.994  15.876  0.00  0.00    +0.000 NA
ATOM     14  C   UNL     1       4.851   5.945  16.434  0.00  0.00    +0.000 A 
ATOM     15  C   UNL     1       4.897   5.786  17.816  0.00  0.00    +0.000 A 
ENDBRANCH   1  15
BRANCH   3  16
ATOM     16  C   UNL     1       1.431   8.250  20.444  0.00  0.00    +0.000 A 
ATOM     17  C   UNL     1       1.186   8.473  21.824  0.00  0.00    +0.000 A 
ATOM     18  C   UNL     1       0.610   9.647  22.308  0.00  0.00    +0.000 A 
ATOM     19  C   UNL     1       0.284  10.661  21.426  0.00  0.00    +0.000 A 
ATOM     20  C   UNL     1       0.503  10.477  20.063  0.00  0.00    +0.000 A 
ATOM     21  C   UNL     1       1.048   9.273  19.545  0.00  0.00    +0.000 A 
BRANCH  21  22
ATOM     22  C   UNL     1       1.147   9.210  18.032  0.00  0.00    +0.000 C 
ATOM     23  F   UNL     1       1.189   7.985  17.448  0.00  0.00    +0.000 F 
ATOM     24  F   UNL     1       0.054   9.807  17.454  0.00  0.00    +0.000 F 
ATOM     25  F   UNL     1       2.217   9.906  17.552  0.00  0.00    +0.000 F 
ENDBRANCH  21  22
ENDBRANCH   3  16
BRANCH   7  26
ATOM     26  C   UNL     1       3.675   3.277  18.909  0.00  0.00    +0.000 C 
ATOM     27  N   UNL     1       4.076   2.214  18.658  0.00  0.00    +0.000 NA
ENDBRANCH   7  26
TORSDOF 4
ENDMDL
MODEL 4
REMARK VINA RESULT:      -7.4      2.728      6.309
REMARK  Name = 
REMARK  5 active torsions:
REMARK  status: ('A' for Active; 'I' for Inactive)
REMARK    1  A    between atoms: C_1  and  N_2
REMARK    2  A    between atoms: C_6  and  C_7
REMARK    3  A    between atoms: C_9  and  C_10
REMARK    4  A    between atoms: C_15  and  C_16
REMARK    5  A    between atoms: C_23  and  C_24
REMARK                            x       y       z     vdW  Elec       q    Type
REMARK                         _______ _______ _______ _____ _____    ______ ____
ROOT
ATOM      1  C   UNL     1       2.806   5.076  18.625  0.00  0.00    +0.000 A 
ATOM      2  C   UNL     1       3.747   5.276  17.609  0.00  0.00    +0.000 A 
ATOM      3  C   UNL     1       4.361   4.198  16.972  0.00  0.00    +0.000 A 
ATOM      4  N   UNL     1       4.080   2.930  17.325  0.00  0.00    +0.000 NA
ATOM      5  C   UNL     1       3.140   2.710  18.266  0.00  0.00    +0.000 A 
ATOM      6  N   UNL     1       2.932   1.362  18.558  0.00  0.00    +0.000 N 
ATOM      7  C   UNL     1       2.487   3.742  18.952  0.00  0.00    +0.000 A 
ATOM      8  H   UNL     1       3.451   0.810  17.881  0.00  0.00    +0.000 HD
ATOM      9  H   UNL     1       1.955   1.091  18.599  0.00  0.00    +0.000 HD
ENDROOT
BRANCH   1  15
ATOM     10  C   UNL     1       2.546   8.134  17.666  0.00  0.00    +0.000 C 
ATOM     11  N   UNL     1       2.225   7.567  18.955  0.00  0.00    +0.000 N 
ATOM     12  C   UNL     1       1.741   8.320  19.991  0.00  0.00    +0.000 A 
ATOM     13  N   UNL     1       1.472   7.586  21.039  0.00  0.00    +0.000 NA
ATOM     14  C   UNL     1       1.792   6.311  20.670  0.00  0.00    +0.000 A 
ATOM     15  C   UNL     1       2.283   6.244  19.369  0.00  0.00    +0.000 A 
ENDBRANCH   1  15
BRANCH   3  16
ATOM     16  C   UNL     1       5.421   4.379  15.954  0.00  0.00    +0.000 A 
ATOM     17  C   UNL     1       5.084   4.190  14.588  0.00  0.00    +0.000 A 
ATOM     18  C   UNL     1       5.996   4.383  13.552  0.00  0.00    +0.000 A 
ATOM     19  C   UNL     1       7.282   4.805  13.844  0.00  0.00    +0.000 A 
ATOM     20  C   UNL     1       7.652   4.994  15.173  0.00  0.00    +0.000 A 
ATOM     21  C   UNL     1       6.752   4.762  16.245  0.00  0.00    +0.000 A 
BRANCH  21  22
ATOM     22  C   UNL     1       7.342   4.940  17.632  0.00  0.00    +0.000 C 
ATOM     23  F   UNL     1       6.557   4.647  18.700  0.00  0.00    +0.000 F 
ATOM     24  F   UNL     1       8.433   4.123  17.797  0.00  0.00    +0.000 F 
ATOM     25  F   UNL     1       7.819   6.202  17.835  0.00  0.00    +0.000 F 
ENDBRANCH  21  22
ENDBRANCH   3  16
BRANCH   7  26
ATOM     26  C   UNL     1       1.514   3.405  19.943  0.00  0.00    +0.000 C 
ATOM     27  N   UNL     1       0.707   3.119  20.731  0.00  0.00    +0.000 NA
ENDBRANCH   7  26
TORSDOF 4
ENDMDL
MODEL 5
REMARK VINA RESULT:      -7.2      1.966      2.535
REMARK  Name = 
REMARK  5 active torsions:
REMARK  status: ('A' for Active; 'I' for Inactive)
REMARK    1  A    between atoms: C_1  and  N_2
REMARK    2  A    between atoms: C_6  and  C_7
REMARK    3  A    between atoms: C_9  and  C_10
REMARK    4  A    between atoms: C_15  and  C_16
REMARK    5  A    between atoms: C_23  and  C_24
REMARK                            x       y       z     vdW  Elec       q    Type
REMARK                         _______ _______ _______ _____ _____    ______ ____
ROOT
ATOM      1  C   UNL     1       4.282   5.129  18.000  0.00  0.00    +0.000 A 
ATOM      2  C   UNL     1       3.870   6.446  18.227  0.00  0.00    +0.000 A 
ATOM      3  C   UNL     1       2.560   6.736  18.611  0.00  0.00    +0.000 A 
ATOM      4  N   UNL     1       1.646   5.759  18.758  0.00  0.00    +0.000 NA
ATOM      5  C   UNL     1       2.032   4.477  18.593  0.00  0.00    +0.000 A 
ATOM      6  N   UNL     1       1.006   3.548  18.763  0.00  0.00    +0.000 N 
ATOM      7  C   UNL     1       3.327   4.112  18.203  0.00  0.00    +0.000 A 
ATOM      8  H   UNL     1       0.192   4.041  19.121  0.00  0.00    +0.000 HD
ATOM      9  H   UNL     1       1.255   2.756  19.344  0.00  0.00    +0.000 HD
ENDROOT
BRANCH   1  15
ATOM     10  C   UNL     1       5.191   4.655  14.952  0.00  0.00    +0.000 C 
ATOM     11  N   UNL     1       6.003   4.624  16.146  0.00  0.00    +0.000 N 
ATOM     12  C   UNL     1       7.347   4.368  16.116  0.00  0.00    +0.000 A 
ATOM     13  N   UNL     1       7.882   4.445  17.307  0.00  0.00    +0.000 NA
ATOM     14  C   UNL     1       6.847   4.763  18.139  0.00  0.00    +0.000 A 
ATOM     15  C   UNL     1       5.638   4.876  17.461  0.00  0.00    +0.000 A 
ENDBRANCH   1  15
BRANCH   3  16
ATOM     16  C   UNL     1       2.073   8.124  18.777  0.00  0.00    +0.000 A 
ATOM     17  C   UNL     1       2.270   9.040  17.710  0.00  0.00    +0.000 A 
ATOM     18  C   UNL     1       1.808  10.355  17.749  0.00  0.00    +0.000 A 
ATOM     19  C   UNL     1       1.099  10.797  18.853  0.00  0.00    +0.000 A 
ATOM     20  C   UNL     1       0.892   9.929  19.922  0.00  0.00    +0.000 A 
ATOM     21  C   UNL     1       1.391   8.601  19.921  0.00  0.00    +0.000 A 
BRANCH  21  22
ATOM     22  C   UNL     1       1.143   7.819  21.198  0.00  0.00    +0.000 C 
ATOM     23  F   UNL     1       1.784   6.632  21.350  0.00  0.00    +0.000 F 
ATOM     24  F   UNL     1       1.544   8.546  22.291  0.00  0.00    +0.000 F 
ATOM     25  F   UNL     1      -0.182   7.576  21.409  0.00  0.00    +0.000 F 
ENDBRANCH  21  22
ENDBRANCH   3  16
BRANCH   7  26
ATOM     26  C   UNL     1       3.633   2.726  18.041  0.00  0.00    +0.000 C 
ATOM     27  N   UNL     1       3.903   1.603  17.893  0.00  0.00    +0.000 NA
ENDBRANCH   7  26
TORSDOF 4
ENDMDL
MODEL 6
REMARK VINA RESULT:      -7.1      1.847      2.434
REMARK  Name = 
REMARK  5 active torsions:
REMARK  status: ('A' for Active; 'I' for Inactive)
REMARK    1  A    between atoms: C_1  and  N_2
REMARK    2  A    between atoms: C_6  and  C_7
REMARK    3  A    between atoms: C_9  and  C_10
REMARK    4  A    between atoms: C_15  and  C_16
REMARK    5  A    between atoms: C_23  and  C_24
REMARK                            x       y       z     vdW  Elec       q    Type
REMARK                         _______ _______ _______ _____ _____    ______ ____
ROOT
ATOM      1  C   UNL     1       4.237   5.513  19.204  0.00  0.00    +0.000 A 
ATOM      2  C   UNL     1       3.713   6.804  19.084  0.00  0.00    +0.000 A 
ATOM      3  C   UNL     1       2.390   7.081  19.429  0.00  0.00    +0.000 A 
ATOM      4  N   UNL     1       1.570   6.111  19.874  0.00  0.00    +0.000 NA
ATOM      5  C   UNL     1       2.066   4.868  20.046  0.00  0.00    +0.000 A 
ATOM      6  N   UNL     1       1.130   3.941  20.505  0.00  0.00    +0.000 N 
ATOM      7  C   UNL     1       3.381   4.516  19.716  0.00  0.00    +0.000 A 
ATOM      8  H   UNL     1       0.282   4.446  20.749  0.00  0.00    +0.000 HD
ATOM      9  H   UNL     1       1.460   3.361  21.267  0.00  0.00    +0.000 HD
ENDROOT
BRANCH   1  15
ATOM     10  C   UNL     1       5.127   4.248  16.385  0.00  0.00    +0.000 C 
ATOM     11  N   UNL     1       5.961   4.640  17.497  0.00  0.00    +0.000 N 
ATOM     12  C   UNL     1       7.324   4.505  17.478  0.00  0.00    +0.000 A 
ATOM     13  N   UNL     1       7.872   4.973  18.569  0.00  0.00    +0.000 NA
ATOM     14  C   UNL     1       6.828   5.429  19.322  0.00  0.00    +0.000 A 
ATOM     15  C   UNL     1       5.600   5.233  18.698  0.00  0.00    +0.000 A 
ENDBRANCH   1  15
BRANCH   3  16
ATOM     16  C   UNL     1       1.784   8.418  19.233  0.00  0.00    +0.000 A 
ATOM     17  C   UNL     1       1.991   9.076  17.993  0.00  0.00    +0.000 A 
ATOM     18  C   UNL     1       1.425  10.315  17.693  0.00  0.00    +0.000 A 
ATOM     19  C   UNL     1       0.601  10.931  18.617  0.00  0.00    +0.000 A 
ATOM     20  C   UNL     1       0.380  10.318  19.849  0.00  0.00    +0.000 A 
ATOM     21  C   UNL     1       0.980   9.079  20.191  0.00  0.00    +0.000 A 
BRANCH  21  22
ATOM     22  C   UNL     1       0.696   8.594  21.601  0.00  0.00    +0.000 C 
ATOM     23  F   UNL     1       1.700   7.975  22.274  0.00  0.00    +0.000 F 
ATOM     24  F   UNL     1       0.362   9.649  22.413  0.00  0.00    +0.000 F 
ATOM     25  F   UNL     1      -0.381   7.759  21.655  0.00  0.00    +0.000 F 
ENDBRANCH  21  22
ENDBRANCH   3  16
BRANCH   7  26
ATOM     26  C   UNL     1       3.807   3.168  19.923  0.00  0.00    +0.000 C 
ATOM     27  N   UNL     1       4.174   2.074  20.075  0.00  0.00    +0.000 NA
ENDBRANCH   7  26
TORSDOF 4
ENDMDL
MODEL 7
REMARK VINA RESULT:      -7.0      1.917      2.765
REMARK  Name = 
REMARK  5 active torsions:
REMARK  status: ('A' for Active; 'I' for Inactive)
REMARK    1  A    between atoms: C_1  and  N_2
REMARK    2  A    between atoms: C_6  and  C_7
REMARK    3  A    between atoms: C_9  and  C_10
REMARK    4  A    between atoms: C_15  and  C_16
REMARK    5  A    between atoms: C_23  and  C_24
REMARK                            x       y       z     vdW  Elec       q    Type
REMARK                         _______ _______ _______ _____ _____    ______ ____
ROOT
ATOM      1  C   UNL     1       3.990   5.035  17.815  0.00  0.00    +0.000 A 
ATOM      2  C   UNL     1       3.640   6.374  18.015  0.00  0.00    +0.000 A 
ATOM      3  C   UNL     1       2.464   6.721  18.681  0.00  0.00    +0.000 A 
ATOM      4  N   UNL     1       1.620   5.778  19.138  0.00  0.00    +0.000 NA
ATOM      5  C   UNL     1       1.959   4.480  19.002  0.00  0.00    +0.000 A 
ATOM      6  N   UNL     1       1.012   3.589  19.505  0.00  0.00    +0.000 N 
ATOM      7  C   UNL     1       3.120   4.057  18.341  0.00  0.00    +0.000 A 
ATOM      8  H   UNL     1       0.309   4.127  20.005  0.00  0.00    +0.000 HD
ATOM      9  H   UNL     1       1.401   2.848  20.077  0.00  0.00    +0.000 HD
ENDROOT
BRANCH   1  15
ATOM     10  C   UNL     1       7.108   5.219  18.577  0.00  0.00    +0.000 C 
ATOM     11  N   UNL     1       6.513   4.843  17.316  0.00  0.00    +0.000 N 
ATOM     12  C   UNL     1       7.261   4.501  16.222  0.00  0.00    +0.000 A 
ATOM     13  N   UNL     1       6.509   4.147  15.212  0.00  0.00    +0.000 NA
ATOM     14  C   UNL     1       5.227   4.263  15.668  0.00  0.00    +0.000 A 
ATOM     15  C   UNL     1       5.172   4.709  16.985  0.00  0.00    +0.000 A 
ENDBRANCH   1  15
BRANCH   3  16
ATOM     16  C   UNL     1       2.027   8.127  18.832  0.00  0.00    +0.000 A 
ATOM     17  C   UNL     1       2.237   9.020  17.749  0.00  0.00    +0.000 A 
ATOM     18  C   UNL     1       1.819  10.350  17.774  0.00  0.00    +0.000 A 
ATOM     19  C   UNL     1       1.144  10.832  18.882  0.00  0.00    +0.000 A 
ATOM     20  C   UNL     1       0.925   9.988  19.968  0.00  0.00    +0.000 A 
ATOM     21  C   UNL     1       1.380   8.644  19.980  0.00  0.00    +0.000 A 
BRANCH  21  22
ATOM     22  C   UNL     1       1.127   7.890  21.273  0.00  0.00    +0.000 C 
ATOM     23  F   UNL     1       1.851   6.765  21.504  0.00  0.00    +0.000 F 
ATOM     24  F   UNL     1       1.410   8.686  22.355  0.00  0.00    +0.000 F 
ATOM     25  F   UNL     1      -0.184   7.548  21.426  0.00  0.00    +0.000 F 
ENDBRANCH  21  22
ENDBRANCH   3  16
BRANCH   7  26
ATOM     26  C   UNL     1       3.384   2.657  18.237  0.00  0.00    +0.000 C 
ATOM     27  N   UNL     1       3.579   1.512  18.170  0.00  0.00    +0.000 NA
ENDBRANCH   7  26
TORSDOF 4
ENDMDL
MODEL 8
REMARK VINA RESULT:      -7.0      2.263      6.106
REMARK  Name = 
REMARK  5 active torsions:
REMARK  status: ('A' for Active; 'I' for Inactive)
REMARK    1  A    between atoms: C_1  and  N_2
REMARK    2  A    between atoms: C_6  and  C_7
REMARK    3  A    between atoms: C_9  and  C_10
REMARK    4  A    between atoms: C_15  and  C_16
REMARK    5  A    between atoms: C_23  and  C_24
REMARK                            x       y       z     vdW  Elec       q    Type
REMARK                         _______ _______ _______ _____ _____    ______ ____
ROOT
ATOM      1  C   UNL     1       2.808   5.133  18.611  0.00  0.00    +0.000 A 
ATOM      2  C   UNL     1       3.729   5.356  17.583  0.00  0.00    +0.000 A 
ATOM      3  C   UNL     1       4.360   4.292  16.937  0.00  0.00    +0.000 A 
ATOM      4  N   UNL     1       4.114   3.018  17.294  0.00  0.00    +0.000 NA
ATOM      5  C   UNL     1       3.193   2.776  18.249  0.00  0.00    +0.000 A 
ATOM      6  N   UNL     1       3.022   1.423  18.544  0.00  0.00    +0.000 N 
ATOM      7  C   UNL     1       2.525   3.792  18.943  0.00  0.00    +0.000 A 
ATOM      8  H   UNL     1       3.545   0.884  17.859  0.00  0.00    +0.000 HD
ATOM      9  H   UNL     1       2.053   1.130  18.599  0.00  0.00    +0.000 HD
ENDROOT
BRANCH   1  15
ATOM     10  C   UNL     1       2.523   8.198  17.680  0.00  0.00    +0.000 C 
ATOM     11  N   UNL     1       2.198   7.615  18.960  0.00  0.00    +0.000 N 
ATOM     12  C   UNL     1       1.699   8.353  20.000  0.00  0.00    +0.000 A 
ATOM     13  N   UNL     1       1.430   7.607  21.039  0.00  0.00    +0.000 NA
ATOM     14  C   UNL     1       1.766   6.339  20.660  0.00  0.00    +0.000 A 
ATOM     15  C   UNL     1       2.267   6.289  19.363  0.00  0.00    +0.000 A 
ENDBRANCH   1  15
BRANCH   3  16
ATOM     16  C   UNL     1       5.400   4.498  15.904  0.00  0.00    +0.000 A 
ATOM     17  C   UNL     1       5.290   3.784  14.683  0.00  0.00    +0.000 A 
ATOM     18  C   UNL     1       6.190   3.943  13.630  0.00  0.00    +0.000 A 
ATOM     19  C   UNL     1       7.226   4.853  13.750  0.00  0.00    +0.000 A 
ATOM     20  C   UNL     1       7.371   5.568  14.937  0.00  0.00    +0.000 A 
ATOM     21  C   UNL     1       6.492   5.390  16.036  0.00  0.00    +0.000 A 
BRANCH  21  22
ATOM     22  C   UNL     1       6.841   6.189  17.277  0.00  0.00    +0.000 C 
ATOM     23  F   UNL     1       8.010   6.878  17.282  0.00  0.00    +0.000 F 
ATOM     24  F   UNL     1       5.894   7.156  17.507  0.00  0.00    +0.000 F 
ATOM     25  F   UNL     1       6.836   5.423  18.406  0.00  0.00    +0.000 F 
ENDBRANCH  21  22
ENDBRANCH   3  16
BRANCH   7  26
ATOM     26  C   UNL     1       1.575   3.433  19.948  0.00  0.00    +0.000 C 
ATOM     27  N   UNL     1       0.803   3.114  20.759  0.00  0.00    +0.000 NA
ENDBRANCH   7  26
TORSDOF 4
ENDMDL
MODEL 9
REMARK VINA RESULT:      -6.8      1.914      2.732
REMARK  Name = 
REMARK  5 active torsions:
REMARK  status: ('A' for Active; 'I' for Inactive)
REMARK    1  A    between atoms: C_1  and  N_2
REMARK    2  A    between atoms: C_6  and  C_7
REMARK    3  A    between atoms: C_9  and  C_10
REMARK    4  A    between atoms: C_15  and  C_16
REMARK    5  A    between atoms: C_23  and  C_24
REMARK                            x       y       z     vdW  Elec       q    Type
REMARK                         _______ _______ _______ _____ _____    ______ ____
ROOT
ATOM      1  C   UNL     1       4.256   5.360  18.716  0.00  0.00    +0.000 A 
ATOM      2  C   UNL     1       3.700   6.637  18.588  0.00  0.00    +0.000 A 
ATOM      3  C   UNL     1       2.566   7.005  19.312  0.00  0.00    +0.000 A 
ATOM      4  N   UNL     1       1.960   6.139  20.144  0.00  0.00    +0.000 NA
ATOM      5  C   UNL     1       2.506   4.918  20.322  0.00  0.00    +0.000 A 
ATOM      6  N   UNL     1       1.795   4.100  21.200  0.00  0.00    +0.000 N 
ATOM      7  C   UNL     1       3.639   4.477  19.627  0.00  0.00    +0.000 A 
ATOM      8  H   UNL     1       1.070   4.663  21.637  0.00  0.00    +0.000 HD
ATOM      9  H   UNL     1       2.372   3.626  21.885  0.00  0.00    +0.000 HD
ENDROOT
BRANCH   1  15
ATOM     10  C   UNL     1       7.421   5.659  19.195  0.00  0.00    +0.000 C 
ATOM     11  N   UNL     1       6.734   5.146  18.034  0.00  0.00    +0.000 N 
ATOM     12  C   UNL     1       7.398   4.699  16.923  0.00  0.00    +0.000 A 
ATOM     13  N   UNL     1       6.575   4.232  16.021  0.00  0.00    +0.000 NA
ATOM     14  C   UNL     1       5.332   4.380  16.566  0.00  0.00    +0.000 A 
ATOM     15  C   UNL     1       5.374   4.962  17.830  0.00  0.00    +0.000 A 
ENDBRANCH   1  15
BRANCH   3  16
ATOM     16  C   UNL     1       1.907   8.319  19.134  0.00  0.00    +0.000 A 
ATOM     17  C   UNL     1       2.075   8.996  17.898  0.00  0.00    +0.000 A 
ATOM     18  C   UNL     1       1.458  10.214  17.614  0.00  0.00    +0.000 A 
ATOM     19  C   UNL     1       0.620  10.790  18.553  0.00  0.00    +0.000 A 
ATOM     20  C   UNL     1       0.436  10.159  19.781  0.00  0.00    +0.000 A 
ATOM     21  C   UNL     1       1.088   8.941  20.106  0.00  0.00    +0.000 A 
BRANCH  21  22
ATOM     22  C   UNL     1       0.838   8.432  21.514  0.00  0.00    +0.000 C 
ATOM     23  F   UNL     1       1.916   8.143  22.286  0.00  0.00    +0.000 F 
ATOM     24  F   UNL     1       0.155   9.370  22.248  0.00  0.00    +0.000 F 
ATOM     25  F   UNL     1       0.038   7.327  21.532  0.00  0.00    +0.000 F 
ENDBRANCH  21  22
ENDBRANCH   3  16
BRANCH   7  26
ATOM     26  C   UNL     1       4.132   3.160  19.876  0.00  0.00    +0.000 C 
ATOM     27  N   UNL     1       4.515   2.083  20.097  0.00  0.00    +0.000 NA
ENDBRANCH   7  26
TORSDOF 4
ENDMDL
