MODEL 1
REMARK VINA RESULT:      -8.8      0.000      0.000
REMARK  Name = 
REMARK  8 active torsions:
REMARK  status: ('A' for Active; 'I' for Inactive)
REMARK    1  A    between atoms: C_1  and  C_2
REMARK    2  A    between atoms: C_2  and  C_3
REMARK    3  A    between atoms: C_2  and  C_4
REMARK    4  A    between atoms: C_2  and  C_5
REMARK    5  A    between atoms: C_5  and  C_6
REMARK    6  A    between atoms: C_6  and  N_7
REMARK    7  A    between atoms: C_8  and  C_10
REMARK    8  A    between atoms: N_13  and  C_14
REMARK                            x       y       z     vdW  Elec       q    Type
REMARK                         _______ _______ _______ _____ _____    ______ ____
ROOT
ATOM      1  N   UNL     1       5.826   5.389  18.860  0.00  0.00    +0.000 N 
ATOM      2  C   UNL     1       7.150   5.543  18.500  0.00  0.00    +0.000 C 
ATOM      3  O   UNL     1       7.930   4.609  18.373  0.00  0.00    +0.000 OA
ATOM      4  H   UNL     1       5.240   6.203  18.993  0.00  0.00    +0.000 HD
ENDROOT
BRANCH   2   5
ATOM      5  C   UNL     1       7.547   6.909  18.262  0.00  0.00    +0.000 A 
ATOM      6  C   UNL     1       7.172   7.740  17.193  0.00  0.00    +0.000 A 
ATOM      7  N   UNL     1       7.702   8.962  17.283  0.00  0.00    +0.000 NA
ATOM      8  N   UNL     1       8.482   8.920  18.393  0.00  0.00    +0.000 N 
ATOM      9  C   UNL     1       8.403   7.691  19.009  0.00  0.00    +0.000 A 
BRANCH   8  10
ATOM     10  C   UNL     1       9.261  10.035  18.800  0.00  0.00    +0.000 A 
ATOM     11  C   UNL     1       9.962  10.777  17.839  0.00  0.00    +0.000 A 
ATOM     12  C   UNL     1      10.741  11.867  18.229  0.00  0.00    +0.000 A 
ATOM     13  C   UNL     1      10.827  12.219  19.575  0.00  0.00    +0.000 A 
ATOM     14  C   UNL     1      10.130  11.488  20.534  0.00  0.00    +0.000 A 
ATOM     15  C   UNL     1       9.344  10.401  20.152  0.00  0.00    +0.000 A 
ENDBRANCH   8  10
ENDBRANCH   2   5
BRANCH   1  16
ATOM     16  C   UNL     1       5.315   4.073  19.180  0.00  0.00    +0.000 C 
BRANCH  16  17
ATOM     17  C   UNL     1       3.777   3.941  19.246  0.00  0.00    +0.000 C 
ATOM     18  N   UNL     1       3.373   3.053  20.337  0.00  0.00    +0.000 N 
ATOM     19  C   UNL     1       2.594   3.680  21.279  0.00  0.00    +0.000 C 
ATOM     20  O   UNL     1       2.128   3.144  22.266  0.00  0.00    +0.000 OA
ATOM     21  N   UNL     1       2.467   4.979  20.933  0.00  0.00    +0.000 N 
ATOM     22  C   UNL     1       3.164   5.253  19.796  0.00  0.00    +0.000 C 
ATOM     23  O   UNL     1       3.262   6.369  19.309  0.00  0.00    +0.000 OA
ATOM     24  H   UNL     1       3.552   2.059  20.397  0.00  0.00    +0.000 HD
ATOM     25  H   UNL     1       1.969   5.664  21.476  0.00  0.00    +0.000 HD
BRANCH  17  27
ATOM     26  C   UNL     1       2.952   1.986  17.792  0.00  0.00    +0.000 C 
ATOM     27  C   UNL     1       3.138   3.520  17.867  0.00  0.00    +0.000 C 
ATOM     28  C   UNL     1       4.035   3.929  16.674  0.00  0.00    +0.000 C 
ATOM     29  C   UNL     1       1.751   4.163  17.645  0.00  0.00    +0.000 C 
ENDBRANCH  17  27
ENDBRANCH  16  17
ENDBRANCH   1  16
TORSDOF 5
ENDMDL
MODEL 2
REMARK VINA RESULT:      -8.7      0.086      1.283
REMARK  Name = 
REMARK  8 active torsions:
REMARK  status: ('A' for Active; 'I' for Inactive)
REMARK    1  A    between atoms: C_1  and  C_2
REMARK    2  A    between atoms: C_2  and  C_3
REMARK    3  A    between atoms: C_2  and  C_4
REMARK    4  A    between atoms: C_2  and  C_5
REMARK    5  A    between atoms: C_5  and  C_6
REMARK    6  A    between atoms: C_6  and  N_7
REMARK    7  A    between atoms: C_8  and  C_10
REMARK    8  A    between atoms: N_13  and  C_14
REMARK                            x       y       z     vdW  Elec       q    Type
REMARK                         _______ _______ _______ _____ _____    ______ ____
ROOT
ATOM      1  N   UNL     1       5.874   5.400  18.957  0.00  0.00    +0.000 N 
ATOM      2  C   UNL     1       7.162   5.544  18.482  0.00  0.00    +0.000 C 
ATOM      3  O   UNL     1       7.908   4.600  18.256  0.00  0.00    +0.000 OA
ATOM      4  H   UNL     1       5.319   6.220  19.167  0.00  0.00    +0.000 HD
ENDROOT
BRANCH   2   5
ATOM      5  C   UNL     1       7.563   6.909  18.250  0.00  0.00    +0.000 A 
ATOM      6  C   UNL     1       7.211   7.738  17.171  0.00  0.00    +0.000 A 
ATOM      7  N   UNL     1       7.738   8.960  17.270  0.00  0.00    +0.000 NA
ATOM      8  N   UNL     1       8.493   8.921  18.397  0.00  0.00    +0.000 N 
ATOM      9  C   UNL     1       8.402   7.693  19.014  0.00  0.00    +0.000 A 
BRANCH   8  10
ATOM     10  C   UNL     1       9.263  10.038  18.818  0.00  0.00    +0.000 A 
ATOM     11  C   UNL     1       9.301  10.378  20.176  0.00  0.00    +0.000 A 
ATOM     12  C   UNL     1      10.043  11.482  20.600  0.00  0.00    +0.000 A 
ATOM     13  C   UNL     1      10.746  12.250  19.672  0.00  0.00    +0.000 A 
ATOM     14  C   UNL     1      10.715  11.913  18.321  0.00  0.00    +0.000 A 
ATOM     15  C   UNL     1       9.981  10.809  17.891  0.00  0.00    +0.000 A 
ENDBRANCH   8  10
ENDBRANCH   2   5
BRANCH   1  16
ATOM     16  C   UNL     1       5.367   4.085  19.283  0.00  0.00    +0.000 C 
BRANCH  16  17
ATOM     17  C   UNL     1       3.830   3.936  19.302  0.00  0.00    +0.000 C 
ATOM     18  N   UNL     1       3.401   3.059  20.392  0.00  0.00    +0.000 N 
ATOM     19  C   UNL     1       2.585   3.690  21.299  0.00  0.00    +0.000 C 
ATOM     20  O   UNL     1       2.094   3.163  22.279  0.00  0.00    +0.000 OA
ATOM     21  N   UNL     1       2.454   4.982  20.930  0.00  0.00    +0.000 N 
ATOM     22  C   UNL     1       3.184   5.248  19.812  0.00  0.00    +0.000 C 
ATOM     23  O   UNL     1       3.286   6.357  19.312  0.00  0.00    +0.000 OA
ATOM     24  H   UNL     1       3.589   2.068  20.473  0.00  0.00    +0.000 HD
ATOM     25  H   UNL     1       1.931   5.669  21.447  0.00  0.00    +0.000 HD
BRANCH  17  27
ATOM     26  C   UNL     1       4.127   3.993  16.747  0.00  0.00    +0.000 C 
ATOM     27  C   UNL     1       3.240   3.487  17.909  0.00  0.00    +0.000 C 
ATOM     28  C   UNL     1       1.820   4.058  17.680  0.00  0.00    +0.000 C 
ATOM     29  C   UNL     1       3.147   1.950  17.782  0.00  0.00    +0.000 C 
ENDBRANCH  17  27
ENDBRANCH  16  17
ENDBRANCH   1  16
TORSDOF 5
ENDMDL
MODEL 3
REMARK VINA RESULT:      -8.6      4.701      6.476
REMARK  Name = 
REMARK  8 active torsions:
REMARK  status: ('A' for Active; 'I' for Inactive)
REMARK    1  A    between atoms: C_1  and  C_2
REMARK    2  A    between atoms: C_2  and  C_3
REMARK    3  A    between atoms: C_2  and  C_4
REMARK    4  A    between atoms: C_2  and  C_5
REMARK    5  A    between atoms: C_5  and  C_6
REMARK    6  A    between atoms: C_6  and  N_7
REMARK    7  A    between atoms: C_8  and  C_10
REMARK    8  A    between atoms: N_13  and  C_14
REMARK                            x       y       z     vdW  Elec       q    Type
REMARK                         _______ _______ _______ _____ _____    ______ ____
ROOT
ATOM      1  N   UNL     1       3.394   6.282  19.486  0.00  0.00    +0.000 N 
ATOM      2  C   UNL     1       3.115   7.189  18.484  0.00  0.00    +0.000 C 
ATOM      3  O   UNL     1       3.631   7.152  17.375  0.00  0.00    +0.000 OA
ATOM      4  H   UNL     1       2.969   6.390  20.398  0.00  0.00    +0.000 HD
ENDROOT
BRANCH   2   5
ATOM      5  C   UNL     1       2.138   8.189  18.841  0.00  0.00    +0.000 A 
ATOM      6  C   UNL     1       1.532   9.137  18.000  0.00  0.00    +0.000 A 
ATOM      7  N   UNL     1       0.652   9.906  18.646  0.00  0.00    +0.000 NA
ATOM      8  N   UNL     1       0.720   9.499  19.938  0.00  0.00    +0.000 N 
ATOM      9  C   UNL     1       1.609   8.457  20.086  0.00  0.00    +0.000 A 
BRANCH   8  10
ATOM     10  C   UNL     1      -0.047  10.124  20.958  0.00  0.00    +0.000 A 
ATOM     11  C   UNL     1      -0.740  11.308  20.675  0.00  0.00    +0.000 A 
ATOM     12  C   UNL     1      -1.486  11.937  21.673  0.00  0.00    +0.000 A 
ATOM     13  C   UNL     1      -1.541  11.390  22.954  0.00  0.00    +0.000 A 
ATOM     14  C   UNL     1      -0.857  10.211  23.240  0.00  0.00    +0.000 A 
ATOM     15  C   UNL     1      -0.114   9.573  22.247  0.00  0.00    +0.000 A 
ENDBRANCH   8  10
ENDBRANCH   2   5
BRANCH   1  16
ATOM     16  C   UNL     1       4.397   5.260  19.275  0.00  0.00    +0.000 C 
BRANCH  16  17
ATOM     17  C   UNL     1       3.882   3.804  19.231  0.00  0.00    +0.000 C 
ATOM     18  N   UNL     1       4.921   2.867  19.659  0.00  0.00    +0.000 N 
ATOM     19  C   UNL     1       4.569   2.149  20.776  0.00  0.00    +0.000 C 
ATOM     20  O   UNL     1       5.262   1.302  21.307  0.00  0.00    +0.000 OA
ATOM     21  N   UNL     1       3.352   2.566  21.186  0.00  0.00    +0.000 N 
ATOM     22  C   UNL     1       2.884   3.567  20.392  0.00  0.00    +0.000 C 
ATOM     23  O   UNL     1       1.835   4.160  20.589  0.00  0.00    +0.000 OA
ATOM     24  H   UNL     1       5.788   2.672  19.175  0.00  0.00    +0.000 HD
ATOM     25  H   UNL     1       2.880   2.219  22.004  0.00  0.00    +0.000 HD
BRANCH  17  27
ATOM     26  C   UNL     1       3.110   1.879  17.709  0.00  0.00    +0.000 C 
ATOM     27  C   UNL     1       3.267   3.413  17.831  0.00  0.00    +0.000 C 
ATOM     28  C   UNL     1       4.171   3.874  16.662  0.00  0.00    +0.000 C 
ATOM     29  C   UNL     1       1.872   4.038  17.612  0.00  0.00    +0.000 C 
ENDBRANCH  17  27
ENDBRANCH  16  17
ENDBRANCH   1  16
TORSDOF 5
ENDMDL
MODEL 4
REMARK VINA RESULT:      -8.6      4.705      6.597
REMARK  Name = 
REMARK  8 active torsions:
REMARK  status: ('A' for Active; 'I' for Inactive)
REMARK    1  A    between atoms: C_1  and  C_2
REMARK    2  A    between atoms: C_2  and  C_3
REMARK    3  A    between atoms: C_2  and  C_4
REMARK    4  A    between atoms: C_2  and  C_5
REMARK    5  A    between atoms: C_5  and  C_6
REMARK    6  A    between atoms: C_6  and  N_7
REMARK    7  A    between atoms: C_8  and  C_10
REMARK    8  A    between atoms: N_13  and  C_14
REMARK                            x       y       z     vdW  Elec       q    Type
REMARK                         _______ _______ _______ _____ _____    ______ ____
ROOT
ATOM      1  N   UNL     1       3.340   6.320  19.460  0.00  0.00    +0.000 N 
ATOM      2  C   UNL     1       3.092   7.252  18.473  0.00  0.00    +0.000 C 
ATOM      3  O   UNL     1       3.643   7.243  17.380  0.00  0.00    +0.000 OA
ATOM      4  H   UNL     1       2.885   6.405  20.361  0.00  0.00    +0.000 HD
ENDROOT
BRANCH   2   5
ATOM      5  C   UNL     1       2.104   8.243  18.824  0.00  0.00    +0.000 A 
ATOM      6  C   UNL     1       1.464   9.159  17.971  0.00  0.00    +0.000 A 
ATOM      7  N   UNL     1       0.583   9.927  18.614  0.00  0.00    +0.000 NA
ATOM      8  N   UNL     1       0.683   9.555  19.915  0.00  0.00    +0.000 N 
ATOM      9  C   UNL     1       1.593   8.534  20.071  0.00  0.00    +0.000 A 
BRANCH   8  10
ATOM     10  C   UNL     1      -0.076  10.192  20.934  0.00  0.00    +0.000 A 
ATOM     11  C   UNL     1      -0.114   9.633  22.218  0.00  0.00    +0.000 A 
ATOM     12  C   UNL     1      -0.868  10.243  23.223  0.00  0.00    +0.000 A 
ATOM     13  C   UNL     1      -1.585  11.407  22.950  0.00  0.00    +0.000 A 
ATOM     14  C   UNL     1      -1.547  11.968  21.676  0.00  0.00    +0.000 A 
ATOM     15  C   UNL     1      -0.792  11.369  20.669  0.00  0.00    +0.000 A 
ENDBRANCH   8  10
ENDBRANCH   2   5
BRANCH   1  16
ATOM     16  C   UNL     1       4.349   5.304  19.256  0.00  0.00    +0.000 C 
BRANCH  16  17
ATOM     17  C   UNL     1       3.842   3.845  19.207  0.00  0.00    +0.000 C 
ATOM     18  N   UNL     1       4.889   2.912  19.627  0.00  0.00    +0.000 N 
ATOM     19  C   UNL     1       4.546   2.187  20.742  0.00  0.00    +0.000 C 
ATOM     20  O   UNL     1       5.246   1.342  21.266  0.00  0.00    +0.000 OA
ATOM     21  N   UNL     1       3.328   2.595  21.159  0.00  0.00    +0.000 N 
ATOM     22  C   UNL     1       2.851   3.598  20.371  0.00  0.00    +0.000 C 
ATOM     23  O   UNL     1       1.800   4.183  20.576  0.00  0.00    +0.000 OA
ATOM     24  H   UNL     1       5.755   2.724  19.138  0.00  0.00    +0.000 HD
ATOM     25  H   UNL     1       2.862   2.242  21.978  0.00  0.00    +0.000 HD
BRANCH  17  27
ATOM     26  C   UNL     1       1.839   4.120  17.617  0.00  0.00    +0.000 C 
ATOM     27  C   UNL     1       3.223   3.457  17.809  0.00  0.00    +0.000 C 
ATOM     28  C   UNL     1       3.018   1.928  17.681  0.00  0.00    +0.000 C 
ATOM     29  C   UNL     1       4.116   3.905  16.631  0.00  0.00    +0.000 C 
ENDBRANCH  17  27
ENDBRANCH  16  17
ENDBRANCH   1  16
TORSDOF 5
ENDMDL
MODEL 5
REMARK VINA RESULT:      -8.2      4.961      6.791
REMARK  Name = 
REMARK  8 active torsions:
REMARK  status: ('A' for Active; 'I' for Inactive)
REMARK    1  A    between atoms: C_1  and  C_2
REMARK    2  A    between atoms: C_2  and  C_3
REMARK    3  A    between atoms: C_2  and  C_4
REMARK    4  A    between atoms: C_2  and  C_5
REMARK    5  A    between atoms: C_5  and  C_6
REMARK    6  A    between atoms: C_6  and  N_7
REMARK    7  A    between atoms: C_8  and  C_10
REMARK    8  A    between atoms: N_13  and  C_14
REMARK                            x       y       z     vdW  Elec       q    Type
REMARK                         _______ _______ _______ _____ _____    ______ ____
ROOT
ATOM      1  N   UNL     1       2.710   6.334  19.786  0.00  0.00    +0.000 N 
ATOM      2  C   UNL     1       2.738   7.320  18.821  0.00  0.00    +0.000 C 
ATOM      3  O   UNL     1       3.473   7.288  17.842  0.00  0.00    +0.000 OA
ATOM      4  H   UNL     1       2.112   6.437  20.596  0.00  0.00    +0.000 HD
ENDROOT
BRANCH   2   5
ATOM      5  C   UNL     1       1.809   8.400  19.045  0.00  0.00    +0.000 A 
ATOM      6  C   UNL     1       1.326   9.327  18.106  0.00  0.00    +0.000 A 
ATOM      7  N   UNL     1       0.457  10.189  18.639  0.00  0.00    +0.000 NA
ATOM      8  N   UNL     1       0.409   9.864  19.955  0.00  0.00    +0.000 N 
ATOM      9  C   UNL     1       1.214   8.781  20.229  0.00  0.00    +0.000 A 
BRANCH   8  10
ATOM     10  C   UNL     1      -0.382  10.600  20.877  0.00  0.00    +0.000 A 
ATOM     11  C   UNL     1      -0.426  10.205  22.220  0.00  0.00    +0.000 A 
ATOM     12  C   UNL     1      -1.212  10.913  23.132  0.00  0.00    +0.000 A 
ATOM     13  C   UNL     1      -1.956  12.012  22.708  0.00  0.00    +0.000 A 
ATOM     14  C   UNL     1      -1.913  12.412  21.374  0.00  0.00    +0.000 A 
ATOM     15  C   UNL     1      -1.126  11.714  20.459  0.00  0.00    +0.000 A 
ENDBRANCH   8  10
ENDBRANCH   2   5
BRANCH   1  16
ATOM     16  C   UNL     1       3.632   5.221  19.708  0.00  0.00    +0.000 C 
BRANCH  16  17
ATOM     17  C   UNL     1       2.995   3.815  19.651  0.00  0.00    +0.000 C 
ATOM     18  N   UNL     1       2.795   3.275  20.997  0.00  0.00    +0.000 N 
ATOM     19  C   UNL     1       1.476   3.024  21.284  0.00  0.00    +0.000 C 
ATOM     20  O   UNL     1       1.067   2.561  22.332  0.00  0.00    +0.000 OA
ATOM     21  N   UNL     1       0.728   3.405  20.226  0.00  0.00    +0.000 N 
ATOM     22  C   UNL     1       1.506   3.933  19.242  0.00  0.00    +0.000 C 
ATOM     23  O   UNL     1       1.066   4.409  18.207  0.00  0.00    +0.000 OA
ATOM     24  H   UNL     1       3.522   3.019  21.653  0.00  0.00    +0.000 HD
ATOM     25  H   UNL     1      -0.277   3.355  20.195  0.00  0.00    +0.000 HD
BRANCH  17  27
ATOM     26  C   UNL     1       4.715   3.591  17.752  0.00  0.00    +0.000 C 
ATOM     27  C   UNL     1       3.789   2.819  18.721  0.00  0.00    +0.000 C 
ATOM     28  C   UNL     1       2.833   1.963  17.854  0.00  0.00    +0.000 C 
ATOM     29  C   UNL     1       4.676   1.846  19.529  0.00  0.00    +0.000 C 
ENDBRANCH  17  27
ENDBRANCH  16  17
ENDBRANCH   1  16
TORSDOF 5
ENDMDL
MODEL 6
REMARK VINA RESULT:      -8.2      4.964      6.687
REMARK  Name = 
REMARK  8 active torsions:
REMARK  status: ('A' for Active; 'I' for Inactive)
REMARK    1  A    between atoms: C_1  and  C_2
REMARK    2  A    between atoms: C_2  and  C_3
REMARK    3  A    between atoms: C_2  and  C_4
REMARK    4  A    between atoms: C_2  and  C_5
REMARK    5  A    between atoms: C_5  and  C_6
REMARK    6  A    between atoms: C_6  and  N_7
REMARK    7  A    between atoms: C_8  and  C_10
REMARK    8  A    between atoms: N_13  and  C_14
REMARK                            x       y       z     vdW  Elec       q    Type
REMARK                         _______ _______ _______ _____ _____    ______ ____
ROOT
ATOM      1  N   UNL     1       2.721   6.311  19.800  0.00  0.00    +0.000 N 
ATOM      2  C   UNL     1       2.752   7.304  18.841  0.00  0.00    +0.000 C 
ATOM      3  O   UNL     1       3.481   7.274  17.859  0.00  0.00    +0.000 OA
ATOM      4  H   UNL     1       2.129   6.413  20.614  0.00  0.00    +0.000 HD
ENDROOT
BRANCH   2   5
ATOM      5  C   UNL     1       1.831   8.389  19.078  0.00  0.00    +0.000 A 
ATOM      6  C   UNL     1       1.375   9.347  18.156  0.00  0.00    +0.000 A 
ATOM      7  N   UNL     1       0.508  10.205  18.696  0.00  0.00    +0.000 NA
ATOM      8  N   UNL     1       0.433   9.846  20.003  0.00  0.00    +0.000 N 
ATOM      9  C   UNL     1       1.220   8.746  20.262  0.00  0.00    +0.000 A 
BRANCH   8  10
ATOM     10  C   UNL     1      -0.366  10.567  20.930  0.00  0.00    +0.000 A 
ATOM     11  C   UNL     1      -1.055  11.710  20.506  0.00  0.00    +0.000 A 
ATOM     12  C   UNL     1      -1.833  12.434  21.412  0.00  0.00    +0.000 A 
ATOM     13  C   UNL     1      -1.923  12.022  22.741  0.00  0.00    +0.000 A 
ATOM     14  C   UNL     1      -1.242  10.884  23.167  0.00  0.00    +0.000 A 
ATOM     15  C   UNL     1      -0.469  10.152  22.266  0.00  0.00    +0.000 A 
ENDBRANCH   8  10
ENDBRANCH   2   5
BRANCH   1  16
ATOM     16  C   UNL     1       3.635   5.193  19.709  0.00  0.00    +0.000 C 
BRANCH  16  17
ATOM     17  C   UNL     1       2.987   3.791  19.652  0.00  0.00    +0.000 C 
ATOM     18  N   UNL     1       2.797   3.247  20.998  0.00  0.00    +0.000 N 
ATOM     19  C   UNL     1       1.478   3.004  21.296  0.00  0.00    +0.000 C 
ATOM     20  O   UNL     1       1.076   2.540  22.346  0.00  0.00    +0.000 OA
ATOM     21  N   UNL     1       0.723   3.394  20.247  0.00  0.00    +0.000 N 
ATOM     22  C   UNL     1       1.495   3.921  19.257  0.00  0.00    +0.000 C 
ATOM     23  O   UNL     1       1.049   4.405  18.229  0.00  0.00    +0.000 OA
ATOM     24  H   UNL     1       3.528   2.984  21.646  0.00  0.00    +0.000 HD
ATOM     25  H   UNL     1      -0.282   3.352  20.225  0.00  0.00    +0.000 HD
BRANCH  17  27
ATOM     26  C   UNL     1       4.676   1.854  19.536  0.00  0.00    +0.000 C 
ATOM     27  C   UNL     1       3.766   2.793  18.711  0.00  0.00    +0.000 C 
ATOM     28  C   UNL     1       4.675   3.546  17.709  0.00  0.00    +0.000 C 
ATOM     29  C   UNL     1       2.810   1.901  17.888  0.00  0.00    +0.000 C 
ENDBRANCH  17  27
ENDBRANCH  16  17
ENDBRANCH   1  16
TORSDOF 5
ENDMDL
MODEL 7
REMARK VINA RESULT:      -8.2      4.903      6.971
REMARK  Name = 
REMARK  8 active torsions:
REMARK  status: ('A' for Active; 'I' for Inactive)
REMARK    1  A    between atoms: C_1  and  C_2
REMARK    2  A    between atoms: C_2  and  C_3
REMARK    3  A    between atoms: C_2  and  C_4
REMARK    4  A    between atoms: C_2  and  C_5
REMARK    5  A    between atoms: C_5  and  C_6
REMARK    6  A    between atoms: C_6  and  N_7
REMARK    7  A    between atoms: C_8  and  C_10
REMARK    8  A    between atoms: N_13  and  C_14
REMARK                            x       y       z     vdW  Elec       q    Type
REMARK                         _______ _______ _______ _____ _____    ______ ____
ROOT
ATOM      1  N   UNL     1       3.014   6.237  20.055  0.00  0.00    +0.000 N 
ATOM      2  C   UNL     1       2.500   7.329  19.385  0.00  0.00    +0.000 C 
ATOM      3  O   UNL     1       2.782   7.607  18.227  0.00  0.00    +0.000 OA
ATOM      4  H   UNL     1       2.779   6.084  21.027  0.00  0.00    +0.000 HD
ENDROOT
BRANCH   2   5
ATOM      5  C   UNL     1       1.576   8.121  20.159  0.00  0.00    +0.000 A 
ATOM      6  C   UNL     1       1.018   7.813  21.411  0.00  0.00    +0.000 A 
ATOM      7  N   UNL     1       0.211   8.776  21.863  0.00  0.00    +0.000 NA
ATOM      8  N   UNL     1       0.190   9.703  20.873  0.00  0.00    +0.000 N 
ATOM      9  C   UNL     1       1.011   9.336  19.830  0.00  0.00    +0.000 A 
BRANCH   8  10
ATOM     10  C   UNL     1      -0.610  10.873  20.964  0.00  0.00    +0.000 A 
ATOM     11  C   UNL     1      -1.199  11.400  19.807  0.00  0.00    +0.000 A 
ATOM     12  C   UNL     1      -1.977  12.557  19.883  0.00  0.00    +0.000 A 
ATOM     13  C   UNL     1      -2.167  13.193  21.109  0.00  0.00    +0.000 A 
ATOM     14  C   UNL     1      -1.587  12.671  22.263  0.00  0.00    +0.000 A 
ATOM     15  C   UNL     1      -0.814  11.512  22.196  0.00  0.00    +0.000 A 
ENDBRANCH   8  10
ENDBRANCH   2   5
BRANCH   1  16
ATOM     16  C   UNL     1       3.995   5.392  19.409  0.00  0.00    +0.000 C 
BRANCH  16  17
ATOM     17  C   UNL     1       3.624   3.897  19.282  0.00  0.00    +0.000 C 
ATOM     18  N   UNL     1       4.765   3.043  19.615  0.00  0.00    +0.000 N 
ATOM     19  C   UNL     1       4.526   2.224  20.691  0.00  0.00    +0.000 C 
ATOM     20  O   UNL     1       5.317   1.418  21.142  0.00  0.00    +0.000 OA
ATOM     21  N   UNL     1       3.290   2.490  21.165  0.00  0.00    +0.000 N 
ATOM     22  C   UNL     1       2.697   3.488  20.454  0.00  0.00    +0.000 C 
ATOM     23  O   UNL     1       1.603   3.959  20.723  0.00  0.00    +0.000 OA
ATOM     24  H   UNL     1       5.628   2.967  19.092  0.00  0.00    +0.000 HD
ATOM     25  H   UNL     1       2.885   2.046  21.972  0.00  0.00    +0.000 HD
BRANCH  17  27
ATOM     26  C   UNL     1       3.953   3.943  16.731  0.00  0.00    +0.000 C 
ATOM     27  C   UNL     1       2.999   3.537  17.879  0.00  0.00    +0.000 C 
ATOM     28  C   UNL     1       1.660   4.279  17.644  0.00  0.00    +0.000 C 
ATOM     29  C   UNL     1       2.721   2.025  17.734  0.00  0.00    +0.000 C 
ENDBRANCH  17  27
ENDBRANCH  16  17
ENDBRANCH   1  16
TORSDOF 5
ENDMDL
MODEL 8
REMARK VINA RESULT:      -8.1      4.863      6.995
REMARK  Name = 
REMARK  8 active torsions:
REMARK  status: ('A' for Active; 'I' for Inactive)
REMARK    1  A    between atoms: C_1  and  C_2
REMARK    2  A    between atoms: C_2  and  C_3
REMARK    3  A    between atoms: C_2  and  C_4
REMARK    4  A    between atoms: C_2  and  C_5
REMARK    5  A    between atoms: C_5  and  C_6
REMARK    6  A    between atoms: C_6  and  N_7
REMARK    7  A    between atoms: C_8  and  C_10
REMARK    8  A    between atoms: N_13  and  C_14
REMARK                            x       y       z     vdW  Elec       q    Type
REMARK                         _______ _______ _______ _____ _____    ______ ____
ROOT
ATOM      1  N   UNL     1       3.094   6.241  19.996  0.00  0.00    +0.000 N 
ATOM      2  C   UNL     1       2.553   7.307  19.307  0.00  0.00    +0.000 C 
ATOM      3  O   UNL     1       2.809   7.555  18.136  0.00  0.00    +0.000 OA
ATOM      4  H   UNL     1       2.879   6.112  20.977  0.00  0.00    +0.000 HD
ENDROOT
BRANCH   2   5
ATOM      5  C   UNL     1       1.633   8.109  20.076  0.00  0.00    +0.000 A 
ATOM      6  C   UNL     1       1.105   7.831  21.348  0.00  0.00    +0.000 A 
ATOM      7  N   UNL     1       0.294   8.795  21.787  0.00  0.00    +0.000 NA
ATOM      8  N   UNL     1       0.240   9.692  20.771  0.00  0.00    +0.000 N 
ATOM      9  C   UNL     1       1.045   9.305  19.723  0.00  0.00    +0.000 A 
BRANCH   8  10
ATOM     10  C   UNL     1      -0.575  10.853  20.844  0.00  0.00    +0.000 A 
ATOM     11  C   UNL     1      -0.764  11.489  22.078  0.00  0.00    +0.000 A 
ATOM     12  C   UNL     1      -1.574  12.623  22.163  0.00  0.00    +0.000 A 
ATOM     13  C   UNL     1      -2.198  13.125  21.022  0.00  0.00    +0.000 A 
ATOM     14  C   UNL     1      -2.010  12.499  19.792  0.00  0.00    +0.000 A 
ATOM     15  C   UNL     1      -1.198  11.369  19.697  0.00  0.00    +0.000 A 
ENDBRANCH   8  10
ENDBRANCH   2   5
BRANCH   1  16
ATOM     16  C   UNL     1       4.074   5.390  19.356  0.00  0.00    +0.000 C 
BRANCH  16  17
ATOM     17  C   UNL     1       3.696   3.897  19.232  0.00  0.00    +0.000 C 
ATOM     18  N   UNL     1       4.823   3.038  19.601  0.00  0.00    +0.000 N 
ATOM     19  C   UNL     1       4.551   2.229  20.678  0.00  0.00    +0.000 C 
ATOM     20  O   UNL     1       5.325   1.423  21.156  0.00  0.00    +0.000 OA
ATOM     21  N   UNL     1       3.305   2.507  21.116  0.00  0.00    +0.000 N 
ATOM     22  C   UNL     1       2.737   3.503  20.382  0.00  0.00    +0.000 C 
ATOM     23  O   UNL     1       1.639   3.983  20.618  0.00  0.00    +0.000 OA
ATOM     24  H   UNL     1       5.699   2.953  19.102  0.00  0.00    +0.000 HD
ATOM     25  H   UNL     1       2.876   2.072  21.916  0.00  0.00    +0.000 HD
BRANCH  17  27
ATOM     26  C   UNL     1       1.739   4.216  17.594  0.00  0.00    +0.000 C 
ATOM     27  C   UNL     1       3.106   3.529  17.816  0.00  0.00    +0.000 C 
ATOM     28  C   UNL     1       2.879   2.004  17.671  0.00  0.00    +0.000 C 
ATOM     29  C   UNL     1       4.035   3.969  16.663  0.00  0.00    +0.000 C 
ENDBRANCH  17  27
ENDBRANCH  16  17
ENDBRANCH   1  16
TORSDOF 5
ENDMDL
MODEL 9
REMARK VINA RESULT:      -8.0      4.630      7.350
REMARK  Name = 
REMARK  8 active torsions:
REMARK  status: ('A' for Active; 'I' for Inactive)
REMARK    1  A    between atoms: C_1  and  C_2
REMARK    2  A    between atoms: C_2  and  C_3
REMARK    3  A    between atoms: C_2  and  C_4
REMARK    4  A    between atoms: C_2  and  C_5
REMARK    5  A    between atoms: C_5  and  C_6
REMARK    6  A    between atoms: C_6  and  N_7
REMARK    7  A    between atoms: C_8  and  C_10
REMARK    8  A    between atoms: N_13  and  C_14
REMARK                            x       y       z     vdW  Elec       q    Type
REMARK                         _______ _______ _______ _____ _____    ______ ____
ROOT
ATOM      1  N   UNL     1       3.322   6.880  18.542  0.00  0.00    +0.000 N 
ATOM      2  C   UNL     1       2.578   8.016  18.299  0.00  0.00    +0.000 C 
ATOM      3  O   UNL     1       2.575   8.607  17.226  0.00  0.00    +0.000 OA
ATOM      4  H   UNL     1       3.318   6.461  19.463  0.00  0.00    +0.000 HD
ENDROOT
BRANCH   2   5
ATOM      5  C   UNL     1       1.776   8.454  19.415  0.00  0.00    +0.000 A 
ATOM      6  C   UNL     1       1.588   7.804  20.646  0.00  0.00    +0.000 A 
ATOM      7  N   UNL     1       0.797   8.491  21.473  0.00  0.00    +0.000 NA
ATOM      8  N   UNL     1       0.411   9.578  20.758  0.00  0.00    +0.000 N 
ATOM      9  C   UNL     1       0.992   9.585  19.510  0.00  0.00    +0.000 A 
BRANCH   8  10
ATOM     10  C   UNL     1      -0.490  10.539  21.291  0.00  0.00    +0.000 A 
ATOM     11  C   UNL     1      -0.757  10.549  22.666  0.00  0.00    +0.000 A 
ATOM     12  C   UNL     1      -1.651  11.480  23.197  0.00  0.00    +0.000 A 
ATOM     13  C   UNL     1      -2.282  12.400  22.362  0.00  0.00    +0.000 A 
ATOM     14  C   UNL     1      -2.017  12.397  20.994  0.00  0.00    +0.000 A 
ATOM     15  C   UNL     1      -1.121  11.474  20.456  0.00  0.00    +0.000 A 
ENDBRANCH   8  10
ENDBRANCH   2   5
BRANCH   1  16
ATOM     16  C   UNL     1       4.212   6.368  17.522  0.00  0.00    +0.000 C 
BRANCH  16  17
ATOM     17  C   UNL     1       5.138   5.208  17.949  0.00  0.00    +0.000 C 
ATOM     18  N   UNL     1       4.711   4.640  19.229  0.00  0.00    +0.000 N 
ATOM     19  C   UNL     1       4.363   3.314  19.138  0.00  0.00    +0.000 C 
ATOM     20  O   UNL     1       3.992   2.627  20.070  0.00  0.00    +0.000 OA
ATOM     21  N   UNL     1       4.478   2.930  17.849  0.00  0.00    +0.000 N 
ATOM     22  C   UNL     1       4.867   3.969  17.061  0.00  0.00    +0.000 C 
ATOM     23  O   UNL     1       4.981   3.898  15.847  0.00  0.00    +0.000 OA
ATOM     24  H   UNL     1       4.729   5.107  20.127  0.00  0.00    +0.000 HD
ATOM     25  H   UNL     1       4.251   2.010  17.510  0.00  0.00    +0.000 HD
BRANCH  17  27
ATOM     26  C   UNL     1       7.202   5.704  19.402  0.00  0.00    +0.000 C 
ATOM     27  C   UNL     1       6.663   5.611  17.955  0.00  0.00    +0.000 C 
ATOM     28  C   UNL     1       6.891   6.993  17.295  0.00  0.00    +0.000 C 
ATOM     29  C   UNL     1       7.541   4.588  17.202  0.00  0.00    +0.000 C 
ENDBRANCH  17  27
ENDBRANCH  16  17
ENDBRANCH   1  16
TORSDOF 5
ENDMDL
