MODEL 1
REMARK VINA RESULT:      -9.3      0.000      0.000
REMARK  Name = 
REMARK  9 active torsions:
REMARK  status: ('A' for Active; 'I' for Inactive)
REMARK    1  A    between atoms: C_2  and  O_11
REMARK    2  A    between atoms: N_3  and  C_4
REMARK    3  A    between atoms: C_4  and  C_5
REMARK    4  A    between atoms: O_11  and  C_12
REMARK    5  A    between atoms: C_17  and  C_18
REMARK    6  A    between atoms: C_21  and  C_22
REMARK    7  A    between atoms: C_22  and  O_23
REMARK    8  A    between atoms: C_22  and  C_24
REMARK    9  A    between atoms: C_24  and  C_25
REMARK                            x       y       z     vdW  Elec       q    Type
REMARK                         _______ _______ _______ _____ _____    ______ ____
ROOT
ATOM      1  C   UNL     1       2.975   4.837  18.332  0.00  0.00    +0.000 C 
ATOM      2  C   UNL     1       1.616   4.199  17.939  0.00  0.00    +0.000 C 
ATOM      3  N   UNL     1       1.048   3.267  18.932  0.00  0.00    +0.000 NA
ATOM      4  C   UNL     1       0.999   3.787  20.298  0.00  0.00    +0.000 C 
ATOM      5  C   UNL     1       2.324   4.398  20.755  0.00  0.00    +0.000 C 
ATOM      6  C   UNL     1       2.929   5.421  19.769  0.00  0.00    +0.000 C 
ATOM      7  H   UNL     1       1.637   2.422  18.930  0.00  0.00    +0.000 HD
ENDROOT
BRANCH   6   8
ATOM      8  C   UNL     1       2.250   6.783  19.857  0.00  0.00    +0.000 A 
ATOM      9  C   UNL     1       2.288   7.692  18.789  0.00  0.00    +0.000 A 
ATOM     10  C   UNL     1       1.671   8.952  18.896  0.00  0.00    +0.000 A 
ATOM     11  C   UNL     1       1.015   9.336  20.075  0.00  0.00    +0.000 A 
ATOM     12  C   UNL     1       0.975   8.420  21.123  0.00  0.00    +0.000 A 
ATOM     13  C   UNL     1       1.575   7.179  21.010  0.00  0.00    +0.000 A 
BRANCH  11  14
ATOM     14  C   UNL     1       0.307  10.670  20.201  0.00  0.00    +0.000 C 
BRANCH  14  15
ATOM     15  O   UNL     1       1.163  11.528  20.960  0.00  0.00    +0.000 OA
ATOM     16  H   UNL     1       1.963  11.020  21.175  0.00  0.00    +0.000 HD
ENDBRANCH  14  15
BRANCH  14  17
ATOM     17  C   UNL     1      -0.001  11.301  18.824  0.00  0.00    +0.000 C 
BRANCH  17  18
ATOM     18  C   UNL     1      -1.400  11.059  18.331  0.00  0.00    +0.000 A 
ATOM     19  C   UNL     1      -1.661  10.000  17.444  0.00  0.00    +0.000 A 
ATOM     20  C   UNL     1      -2.955   9.767  16.994  0.00  0.00    +0.000 A 
ATOM     21  C   UNL     1      -3.997  10.591  17.421  0.00  0.00    +0.000 A 
ATOM     22  C   UNL     1      -3.745  11.639  18.303  0.00  0.00    +0.000 A 
ATOM     23  C   UNL     1      -2.449  11.877  18.759  0.00  0.00    +0.000 A 
ENDBRANCH  17  18
ENDBRANCH  14  17
ENDBRANCH  11  14
ENDBRANCH   6   8
BRANCH   1  24
ATOM     24  O   UNL     1       4.059   3.858  18.320  0.00  0.00    +0.000 OA
BRANCH  24  26
ATOM     25  O   UNL     1       6.141   4.531  19.002  0.00  0.00    +0.000 OA
ATOM     26  C   UNL     1       5.323   4.318  18.125  0.00  0.00    +0.000 C 
ATOM     27  N   UNL     1       5.530   4.631  16.810  0.00  0.00    +0.000 N 
ATOM     28  H   UNL     1       6.239   5.345  16.653  0.00  0.00    +0.000 HD
BRANCH  27  29
ATOM     29  C   UNL     1       5.299   3.699  15.729  0.00  0.00    +0.000 C 
BRANCH  29  30
ATOM     30  C   UNL     1       6.084   4.033  14.470  0.00  0.00    +0.000 A 
ATOM     31  C   UNL     1       5.789   3.435  13.233  0.00  0.00    +0.000 A 
ATOM     32  C   UNL     1       6.507   3.779  12.079  0.00  0.00    +0.000 A 
ATOM     33  C   UNL     1       7.517   4.738  12.137  0.00  0.00    +0.000 A 
ATOM     34  C   UNL     1       7.808   5.355  13.351  0.00  0.00    +0.000 A 
ATOM     35  C   UNL     1       7.098   5.006  14.506  0.00  0.00    +0.000 A 
ENDBRANCH  29  30
ENDBRANCH  27  29
ENDBRANCH  24  26
ENDBRANCH   1  24
TORSDOF 9
ENDMDL
MODEL 2
REMARK VINA RESULT:      -9.3      0.745      1.135
REMARK  Name = 
REMARK  9 active torsions:
REMARK  status: ('A' for Active; 'I' for Inactive)
REMARK    1  A    between atoms: C_2  and  O_11
REMARK    2  A    between atoms: N_3  and  C_4
REMARK    3  A    between atoms: C_4  and  C_5
REMARK    4  A    between atoms: O_11  and  C_12
REMARK    5  A    between atoms: C_17  and  C_18
REMARK    6  A    between atoms: C_21  and  C_22
REMARK    7  A    between atoms: C_22  and  O_23
REMARK    8  A    between atoms: C_22  and  C_24
REMARK    9  A    between atoms: C_24  and  C_25
REMARK                            x       y       z     vdW  Elec       q    Type
REMARK                         _______ _______ _______ _____ _____    ______ ____
ROOT
ATOM      1  C   UNL     1       3.025   4.845  18.309  0.00  0.00    +0.000 C 
ATOM      2  C   UNL     1       1.659   4.176  18.005  0.00  0.00    +0.000 C 
ATOM      3  N   UNL     1       1.094   3.370  19.104  0.00  0.00    +0.000 NA
ATOM      4  C   UNL     1       1.063   4.044  20.401  0.00  0.00    +0.000 C 
ATOM      5  C   UNL     1       2.395   4.694  20.773  0.00  0.00    +0.000 C 
ATOM      6  C   UNL     1       2.998   5.592  19.670  0.00  0.00    +0.000 C 
ATOM      7  H   UNL     1       1.678   2.526  19.195  0.00  0.00    +0.000 HD
ENDROOT
BRANCH   6   8
ATOM      8  C   UNL     1       2.328   6.960  19.605  0.00  0.00    +0.000 A 
ATOM      9  C   UNL     1       1.640   7.493  20.705  0.00  0.00    +0.000 A 
ATOM     10  C   UNL     1       1.014   8.750  20.620  0.00  0.00    +0.000 A 
ATOM     11  C   UNL     1       1.048   9.493  19.432  0.00  0.00    +0.000 A 
ATOM     12  C   UNL     1       1.743   8.958  18.350  0.00  0.00    +0.000 A 
ATOM     13  C   UNL     1       2.366   7.727  18.441  0.00  0.00    +0.000 A 
BRANCH  11  14
ATOM     14  C   UNL     1       0.415  10.867  19.326  0.00  0.00    +0.000 C 
BRANCH  14  15
ATOM     15  O   UNL     1       0.631  11.326  17.990  0.00  0.00    +0.000 OA
ATOM     16  H   UNL     1       0.848  10.549  17.449  0.00  0.00    +0.000 HD
ENDBRANCH  14  15
BRANCH  14  17
ATOM     17  C   UNL     1      -1.097  10.841  19.647  0.00  0.00    +0.000 C 
BRANCH  17  18
ATOM     18  C   UNL     1      -1.986  10.785  18.437  0.00  0.00    +0.000 A 
ATOM     19  C   UNL     1      -1.750   9.829  17.433  0.00  0.00    +0.000 A 
ATOM     20  C   UNL     1      -2.576   9.767  16.317  0.00  0.00    +0.000 A 
ATOM     21  C   UNL     1      -3.640  10.661  16.192  0.00  0.00    +0.000 A 
ATOM     22  C   UNL     1      -3.881  11.607  17.184  0.00  0.00    +0.000 A 
ATOM     23  C   UNL     1      -3.057  11.673  18.306  0.00  0.00    +0.000 A 
ENDBRANCH  17  18
ENDBRANCH  14  17
ENDBRANCH  11  14
ENDBRANCH   6   8
BRANCH   1  24
ATOM     24  O   UNL     1       4.103   3.863  18.400  0.00  0.00    +0.000 OA
BRANCH  24  26
ATOM     25  O   UNL     1       6.229   4.453  19.022  0.00  0.00    +0.000 OA
ATOM     26  C   UNL     1       5.371   4.294  18.172  0.00  0.00    +0.000 C 
ATOM     27  N   UNL     1       5.536   4.650  16.861  0.00  0.00    +0.000 N 
ATOM     28  H   UNL     1       6.259   5.349  16.701  0.00  0.00    +0.000 HD
BRANCH  27  29
ATOM     29  C   UNL     1       5.235   3.765  15.758  0.00  0.00    +0.000 C 
BRANCH  29  30
ATOM     30  C   UNL     1       6.048   4.067  14.508  0.00  0.00    +0.000 A 
ATOM     31  C   UNL     1       5.754   3.466  13.272  0.00  0.00    +0.000 A 
ATOM     32  C   UNL     1       6.498   3.780  12.126  0.00  0.00    +0.000 A 
ATOM     33  C   UNL     1       7.534   4.711  12.192  0.00  0.00    +0.000 A 
ATOM     34  C   UNL     1       7.824   5.330  13.405  0.00  0.00    +0.000 A 
ATOM     35  C   UNL     1       7.088   5.012  14.551  0.00  0.00    +0.000 A 
ENDBRANCH  29  30
ENDBRANCH  27  29
ENDBRANCH  24  26
ENDBRANCH   1  24
TORSDOF 9
ENDMDL
MODEL 3
REMARK VINA RESULT:      -9.2      1.003      1.214
REMARK  Name = 
REMARK  9 active torsions:
REMARK  status: ('A' for Active; 'I' for Inactive)
REMARK    1  A    between atoms: C_2  and  O_11
REMARK    2  A    between atoms: N_3  and  C_4
REMARK    3  A    between atoms: C_4  and  C_5
REMARK    4  A    between atoms: O_11  and  C_12
REMARK    5  A    between atoms: C_17  and  C_18
REMARK    6  A    between atoms: C_21  and  C_22
REMARK    7  A    between atoms: C_22  and  O_23
REMARK    8  A    between atoms: C_22  and  C_24
REMARK    9  A    between atoms: C_24  and  C_25
REMARK                            x       y       z     vdW  Elec       q    Type
REMARK                         _______ _______ _______ _____ _____    ______ ____
ROOT
ATOM      1  C   UNL     1       3.180   5.314  18.257  0.00  0.00    +0.000 C 
ATOM      2  C   UNL     1       1.892   4.540  17.870  0.00  0.00    +0.000 C 
ATOM      3  N   UNL     1       1.325   3.690  18.935  0.00  0.00    +0.000 NA
ATOM      4  C   UNL     1       1.160   4.359  20.225  0.00  0.00    +0.000 C 
ATOM      5  C   UNL     1       2.411   5.111  20.677  0.00  0.00    +0.000 C 
ATOM      6  C   UNL     1       3.009   6.055  19.610  0.00  0.00    +0.000 C 
ATOM      7  H   UNL     1       1.967   2.895  19.065  0.00  0.00    +0.000 HD
ENDROOT
BRANCH   6   8
ATOM      8  C   UNL     1       2.239   7.366  19.499  0.00  0.00    +0.000 A 
ATOM      9  C   UNL     1       2.217   8.106  18.307  0.00  0.00    +0.000 A 
ATOM     10  C   UNL     1       1.516   9.323  18.230  0.00  0.00    +0.000 A 
ATOM     11  C   UNL     1       0.834   9.833  19.343  0.00  0.00    +0.000 A 
ATOM     12  C   UNL     1       0.853   9.085  20.517  0.00  0.00    +0.000 A 
ATOM     13  C   UNL     1       1.536   7.884  20.586  0.00  0.00    +0.000 A 
BRANCH  11  14
ATOM     14  C   UNL     1       0.037  11.122  19.275  0.00  0.00    +0.000 C 
BRANCH  14  15
ATOM     15  O   UNL     1       0.274  11.693  17.987  0.00  0.00    +0.000 OA
ATOM     16  H   UNL     1       0.535  10.969  17.393  0.00  0.00    +0.000 HD
ENDBRANCH  14  15
BRANCH  14  17
ATOM     17  C   UNL     1      -1.476  10.885  19.488  0.00  0.00    +0.000 C 
BRANCH  17  18
ATOM     18  C   UNL     1      -2.275  10.808  18.218  0.00  0.00    +0.000 A 
ATOM     19  C   UNL     1      -1.920   9.887  17.217  0.00  0.00    +0.000 A 
ATOM     20  C   UNL     1      -2.663   9.806  16.045  0.00  0.00    +0.000 A 
ATOM     21  C   UNL     1      -3.763  10.645  15.862  0.00  0.00    +0.000 A 
ATOM     22  C   UNL     1      -4.122  11.556  16.851  0.00  0.00    +0.000 A 
ATOM     23  C   UNL     1      -3.381  11.641  18.029  0.00  0.00    +0.000 A 
ENDBRANCH  17  18
ENDBRANCH  14  17
ENDBRANCH  11  14
ENDBRANCH   6   8
BRANCH   1  24
ATOM     24  O   UNL     1       4.324   4.420  18.418  0.00  0.00    +0.000 OA
BRANCH  24  26
ATOM     25  O   UNL     1       3.801   2.330  17.638  0.00  0.00    +0.000 OA
ATOM     26  C   UNL     1       4.431   3.370  17.564  0.00  0.00    +0.000 C 
ATOM     27  N   UNL     1       5.438   3.576  16.661  0.00  0.00    +0.000 N 
ATOM     28  H   UNL     1       5.856   2.723  16.293  0.00  0.00    +0.000 HD
BRANCH  27  29
ATOM     29  C   UNL     1       5.519   4.752  15.823  0.00  0.00    +0.000 C 
BRANCH  29  30
ATOM     30  C   UNL     1       6.076   4.463  14.437  0.00  0.00    +0.000 A 
ATOM     31  C   UNL     1       5.414   3.613  13.536  0.00  0.00    +0.000 A 
ATOM     32  C   UNL     1       5.930   3.384  12.253  0.00  0.00    +0.000 A 
ATOM     33  C   UNL     1       7.104   4.014  11.842  0.00  0.00    +0.000 A 
ATOM     34  C   UNL     1       7.760   4.876  12.716  0.00  0.00    +0.000 A 
ATOM     35  C   UNL     1       7.251   5.100  14.001  0.00  0.00    +0.000 A 
ENDBRANCH  29  30
ENDBRANCH  27  29
ENDBRANCH  24  26
ENDBRANCH   1  24
TORSDOF 9
ENDMDL
MODEL 4
REMARK VINA RESULT:      -9.2      1.649      2.447
REMARK  Name = 
REMARK  9 active torsions:
REMARK  status: ('A' for Active; 'I' for Inactive)
REMARK    1  A    between atoms: C_2  and  O_11
REMARK    2  A    between atoms: N_3  and  C_4
REMARK    3  A    between atoms: C_4  and  C_5
REMARK    4  A    between atoms: O_11  and  C_12
REMARK    5  A    between atoms: C_17  and  C_18
REMARK    6  A    between atoms: C_21  and  C_22
REMARK    7  A    between atoms: C_22  and  O_23
REMARK    8  A    between atoms: C_22  and  C_24
REMARK    9  A    between atoms: C_24  and  C_25
REMARK                            x       y       z     vdW  Elec       q    Type
REMARK                         _______ _______ _______ _____ _____    ______ ____
ROOT
ATOM      1  C   UNL     1       2.947   4.894  18.558  0.00  0.00    +0.000 C 
ATOM      2  C   UNL     1       1.615   4.280  18.054  0.00  0.00    +0.000 C 
ATOM      3  N   UNL     1       0.949   3.360  18.996  0.00  0.00    +0.000 NA
ATOM      4  C   UNL     1       0.798   3.882  20.354  0.00  0.00    +0.000 C 
ATOM      5  C   UNL     1       2.090   4.470  20.919  0.00  0.00    +0.000 C 
ATOM      6  C   UNL     1       2.794   5.480  19.987  0.00  0.00    +0.000 C 
ATOM      7  H   UNL     1       1.521   2.504  19.043  0.00  0.00    +0.000 HD
ENDROOT
BRANCH   6   8
ATOM      8  C   UNL     1       2.135   6.855  20.018  0.00  0.00    +0.000 A 
ATOM      9  C   UNL     1       2.219   7.734  18.929  0.00  0.00    +0.000 A 
ATOM     10  C   UNL     1       1.619   9.006  18.984  0.00  0.00    +0.000 A 
ATOM     11  C   UNL     1       0.935   9.431  20.133  0.00  0.00    +0.000 A 
ATOM     12  C   UNL     1       0.850   8.545  21.203  0.00  0.00    +0.000 A 
ATOM     13  C   UNL     1       1.432   7.292  21.141  0.00  0.00    +0.000 A 
BRANCH  11  14
ATOM     14  C   UNL     1       0.246  10.779  20.203  0.00  0.00    +0.000 C 
BRANCH  14  15
ATOM     15  O   UNL     1       1.114  11.656  20.926  0.00  0.00    +0.000 OA
ATOM     16  H   UNL     1       1.296  12.419  20.353  0.00  0.00    +0.000 HD
ENDBRANCH  14  15
BRANCH  14  17
ATOM     17  C   UNL     1      -0.054  11.356  18.801  0.00  0.00    +0.000 C 
BRANCH  17  18
ATOM     18  C   UNL     1      -1.445  11.082  18.303  0.00  0.00    +0.000 A 
ATOM     19  C   UNL     1      -1.670  10.047  17.378  0.00  0.00    +0.000 A 
ATOM     20  C   UNL     1      -2.957   9.784  16.923  0.00  0.00    +0.000 A 
ATOM     21  C   UNL     1      -4.026  10.554  17.382  0.00  0.00    +0.000 A 
ATOM     22  C   UNL     1      -3.809  11.577  18.301  0.00  0.00    +0.000 A 
ATOM     23  C   UNL     1      -2.522  11.845  18.762  0.00  0.00    +0.000 A 
ENDBRANCH  17  18
ENDBRANCH  14  17
ENDBRANCH  11  14
ENDBRANCH   6   8
BRANCH   1  24
ATOM     24  O   UNL     1       4.011   3.895  18.635  0.00  0.00    +0.000 OA
BRANCH  24  26
ATOM     25  O   UNL     1       3.402   2.032  17.448  0.00  0.00    +0.000 OA
ATOM     26  C   UNL     1       4.117   3.004  17.615  0.00  0.00    +0.000 C 
ATOM     27  N   UNL     1       5.218   3.269  16.848  0.00  0.00    +0.000 N 
ATOM     28  H   UNL     1       5.601   2.458  16.366  0.00  0.00    +0.000 HD
BRANCH  27  29
ATOM     29  C   UNL     1       5.472   4.560  16.248  0.00  0.00    +0.000 C 
BRANCH  29  30
ATOM     30  C   UNL     1       6.383   5.443  17.087  0.00  0.00    +0.000 A 
ATOM     31  C   UNL     1       7.154   4.922  18.140  0.00  0.00    +0.000 A 
ATOM     32  C   UNL     1       8.009   5.748  18.882  0.00  0.00    +0.000 A 
ATOM     33  C   UNL     1       8.124   7.103  18.572  0.00  0.00    +0.000 A 
ATOM     34  C   UNL     1       7.383   7.630  17.518  0.00  0.00    +0.000 A 
ATOM     35  C   UNL     1       6.522   6.808  16.782  0.00  0.00    +0.000 A 
ENDBRANCH  29  30
ENDBRANCH  27  29
ENDBRANCH  24  26
ENDBRANCH   1  24
TORSDOF 9
ENDMDL
MODEL 5
REMARK VINA RESULT:      -9.1      1.696      2.585
REMARK  Name = 
REMARK  9 active torsions:
REMARK  status: ('A' for Active; 'I' for Inactive)
REMARK    1  A    between atoms: C_2  and  O_11
REMARK    2  A    between atoms: N_3  and  C_4
REMARK    3  A    between atoms: C_4  and  C_5
REMARK    4  A    between atoms: O_11  and  C_12
REMARK    5  A    between atoms: C_17  and  C_18
REMARK    6  A    between atoms: C_21  and  C_22
REMARK    7  A    between atoms: C_22  and  O_23
REMARK    8  A    between atoms: C_22  and  C_24
REMARK    9  A    between atoms: C_24  and  C_25
REMARK                            x       y       z     vdW  Elec       q    Type
REMARK                         _______ _______ _______ _____ _____    ______ ____
ROOT
ATOM      1  C   UNL     1       2.984   5.174  18.212  0.00  0.00    +0.000 C 
ATOM      2  C   UNL     1       1.643   4.433  17.974  0.00  0.00    +0.000 C 
ATOM      3  N   UNL     1       1.151   3.638  19.115  0.00  0.00    +0.000 NA
ATOM      4  C   UNL     1       1.128   4.353  20.391  0.00  0.00    +0.000 C 
ATOM      5  C   UNL     1       2.440   5.077  20.698  0.00  0.00    +0.000 C 
ATOM      6  C   UNL     1       2.964   5.964  19.548  0.00  0.00    +0.000 C 
ATOM      7  H   UNL     1       1.777   2.826  19.213  0.00  0.00    +0.000 HD
ENDROOT
BRANCH   6   8
ATOM      8  C   UNL     1       2.229   7.297  19.461  0.00  0.00    +0.000 A 
ATOM      9  C   UNL     1       2.219   8.055  18.282  0.00  0.00    +0.000 A 
ATOM     10  C   UNL     1       1.549   9.291  18.227  0.00  0.00    +0.000 A 
ATOM     11  C   UNL     1       0.889   9.803  19.353  0.00  0.00    +0.000 A 
ATOM     12  C   UNL     1       0.896   9.036  20.516  0.00  0.00    +0.000 A 
ATOM     13  C   UNL     1       1.547   7.816  20.561  0.00  0.00    +0.000 A 
BRANCH  11  14
ATOM     14  C   UNL     1       0.126  11.112  19.310  0.00  0.00    +0.000 C 
BRANCH  14  15
ATOM     15  O   UNL     1       0.362  11.692  18.025  0.00  0.00    +0.000 OA
ATOM     16  H   UNL     1      -0.284  11.306  17.411  0.00  0.00    +0.000 HD
ENDBRANCH  14  15
BRANCH  14  17
ATOM     17  C   UNL     1      -1.389  10.914  19.540  0.00  0.00    +0.000 C 
BRANCH  17  18
ATOM     18  C   UNL     1      -2.201  10.832  18.278  0.00  0.00    +0.000 A 
ATOM     19  C   UNL     1      -1.847   9.918  17.270  0.00  0.00    +0.000 A 
ATOM     20  C   UNL     1      -2.602   9.833  16.105  0.00  0.00    +0.000 A 
ATOM     21  C   UNL     1      -3.712  10.662  15.936  0.00  0.00    +0.000 A 
ATOM     22  C   UNL     1      -4.069  11.565  16.933  0.00  0.00    +0.000 A 
ATOM     23  C   UNL     1      -3.318  11.655  18.103  0.00  0.00    +0.000 A 
ENDBRANCH  17  18
ENDBRANCH  14  17
ENDBRANCH  11  14
ENDBRANCH   6   8
BRANCH   1  24
ATOM     24  O   UNL     1       4.110   4.247  18.298  0.00  0.00    +0.000 OA
BRANCH  24  26
ATOM     25  O   UNL     1       3.303   2.361  17.278  0.00  0.00    +0.000 OA
ATOM     26  C   UNL     1       4.154   3.222  17.408  0.00  0.00    +0.000 C 
ATOM     27  N   UNL     1       5.350   3.203  16.745  0.00  0.00    +0.000 N 
ATOM     28  H   UNL     1       5.632   2.285  16.407  0.00  0.00    +0.000 HD
BRANCH  27  29
ATOM     29  C   UNL     1       5.875   4.345  16.030  0.00  0.00    +0.000 C 
BRANCH  29  30
ATOM     30  C   UNL     1       6.667   5.295  16.915  0.00  0.00    +0.000 A 
ATOM     31  C   UNL     1       6.603   6.689  16.748  0.00  0.00    +0.000 A 
ATOM     32  C   UNL     1       7.319   7.548  17.594  0.00  0.00    +0.000 A 
ATOM     33  C   UNL     1       8.095   7.031  18.630  0.00  0.00    +0.000 A 
ATOM     34  C   UNL     1       8.153   5.653  18.821  0.00  0.00    +0.000 A 
ATOM     35  C   UNL     1       7.445   4.794  17.973  0.00  0.00    +0.000 A 
ENDBRANCH  29  30
ENDBRANCH  27  29
ENDBRANCH  24  26
ENDBRANCH   1  24
TORSDOF 9
ENDMDL
MODEL 6
REMARK VINA RESULT:      -9.0      0.917      1.458
REMARK  Name = 
REMARK  9 active torsions:
REMARK  status: ('A' for Active; 'I' for Inactive)
REMARK    1  A    between atoms: C_2  and  O_11
REMARK    2  A    between atoms: N_3  and  C_4
REMARK    3  A    between atoms: C_4  and  C_5
REMARK    4  A    between atoms: O_11  and  C_12
REMARK    5  A    between atoms: C_17  and  C_18
REMARK    6  A    between atoms: C_21  and  C_22
REMARK    7  A    between atoms: C_22  and  O_23
REMARK    8  A    between atoms: C_22  and  C_24
REMARK    9  A    between atoms: C_24  and  C_25
REMARK                            x       y       z     vdW  Elec       q    Type
REMARK                         _______ _______ _______ _____ _____    ______ ____
ROOT
ATOM      1  C   UNL     1       3.220   4.985  18.283  0.00  0.00    +0.000 C 
ATOM      2  C   UNL     1       1.912   4.251  17.888  0.00  0.00    +0.000 C 
ATOM      3  N   UNL     1       1.269   3.484  18.971  0.00  0.00    +0.000 NA
ATOM      4  C   UNL     1       1.089   4.225  20.219  0.00  0.00    +0.000 C 
ATOM      5  C   UNL     1       2.358   4.943  20.679  0.00  0.00    +0.000 C 
ATOM      6  C   UNL     1       3.036   5.802  19.590  0.00  0.00    +0.000 C 
ATOM      7  H   UNL     1       1.867   2.668  19.165  0.00  0.00    +0.000 HD
ENDROOT
BRANCH   6   8
ATOM      8  C   UNL     1       2.333   7.139  19.384  0.00  0.00    +0.000 A 
ATOM      9  C   UNL     1       2.338   7.787  18.141  0.00  0.00    +0.000 A 
ATOM     10  C   UNL     1       1.699   9.030  17.975  0.00  0.00    +0.000 A 
ATOM     11  C   UNL     1       1.054   9.657  19.051  0.00  0.00    +0.000 A 
ATOM     12  C   UNL     1       1.046   8.998  20.278  0.00  0.00    +0.000 A 
ATOM     13  C   UNL     1       1.667   7.772  20.433  0.00  0.00    +0.000 A 
BRANCH  11  14
ATOM     14  C   UNL     1       0.323  10.975  18.891  0.00  0.00    +0.000 C 
BRANCH  14  15
ATOM     15  O   UNL     1       1.185  11.844  18.151  0.00  0.00    +0.000 OA
ATOM     16  H   UNL     1       2.071  11.446  18.158  0.00  0.00    +0.000 HD
ENDBRANCH  14  15
BRANCH  14  17
ATOM     17  C   UNL     1      -1.028  10.809  18.159  0.00  0.00    +0.000 C 
BRANCH  17  18
ATOM     18  C   UNL     1      -2.189  11.476  18.843  0.00  0.00    +0.000 A 
ATOM     19  C   UNL     1      -1.988  12.185  20.041  0.00  0.00    +0.000 A 
ATOM     20  C   UNL     1      -3.057  12.811  20.671  0.00  0.00    +0.000 A 
ATOM     21  C   UNL     1      -4.334  12.730  20.115  0.00  0.00    +0.000 A 
ATOM     22  C   UNL     1      -4.538  12.033  18.927  0.00  0.00    +0.000 A 
ATOM     23  C   UNL     1      -3.470  11.404  18.289  0.00  0.00    +0.000 A 
ENDBRANCH  17  18
ENDBRANCH  14  17
ENDBRANCH  11  14
ENDBRANCH   6   8
BRANCH   1  24
ATOM     24  O   UNL     1       4.315   4.050  18.532  0.00  0.00    +0.000 OA
BRANCH  24  26
ATOM     25  O   UNL     1       6.533   4.505  18.886  0.00  0.00    +0.000 OA
ATOM     26  C   UNL     1       5.564   4.425  18.152  0.00  0.00    +0.000 C 
ATOM     27  N   UNL     1       5.576   4.824  16.844  0.00  0.00    +0.000 N 
ATOM     28  H   UNL     1       6.310   5.491  16.613  0.00  0.00    +0.000 HD
BRANCH  27  29
ATOM     29  C   UNL     1       5.085   4.000  15.762  0.00  0.00    +0.000 C 
BRANCH  29  30
ATOM     30  C   UNL     1       5.897   4.142  14.483  0.00  0.00    +0.000 A 
ATOM     31  C   UNL     1       5.547   3.462  13.304  0.00  0.00    +0.000 A 
ATOM     32  C   UNL     1       6.293   3.630  12.129  0.00  0.00    +0.000 A 
ATOM     33  C   UNL     1       7.388   4.492  12.107  0.00  0.00    +0.000 A 
ATOM     34  C   UNL     1       7.736   5.189  13.261  0.00  0.00    +0.000 A 
ATOM     35  C   UNL     1       6.997   5.016  14.437  0.00  0.00    +0.000 A 
ENDBRANCH  29  30
ENDBRANCH  27  29
ENDBRANCH  24  26
ENDBRANCH   1  24
TORSDOF 9
ENDMDL
MODEL 7
REMARK VINA RESULT:      -9.0      1.890      2.852
REMARK  Name = 
REMARK  9 active torsions:
REMARK  status: ('A' for Active; 'I' for Inactive)
REMARK    1  A    between atoms: C_2  and  O_11
REMARK    2  A    between atoms: N_3  and  C_4
REMARK    3  A    between atoms: C_4  and  C_5
REMARK    4  A    between atoms: O_11  and  C_12
REMARK    5  A    between atoms: C_17  and  C_18
REMARK    6  A    between atoms: C_21  and  C_22
REMARK    7  A    between atoms: C_22  and  O_23
REMARK    8  A    between atoms: C_22  and  C_24
REMARK    9  A    between atoms: C_24  and  C_25
REMARK                            x       y       z     vdW  Elec       q    Type
REMARK                         _______ _______ _______ _____ _____    ______ ____
ROOT
ATOM      1  C   UNL     1       2.887   4.580  18.605  0.00  0.00    +0.000 C 
ATOM      2  C   UNL     1       1.488   3.963  18.342  0.00  0.00    +0.000 C 
ATOM      3  N   UNL     1       0.894   3.243  19.484  0.00  0.00    +0.000 NA
ATOM      4  C   UNL     1       0.904   3.983  20.745  0.00  0.00    +0.000 C 
ATOM      5  C   UNL     1       2.268   4.587  21.076  0.00  0.00    +0.000 C 
ATOM      6  C   UNL     1       2.905   5.396  19.925  0.00  0.00    +0.000 C 
ATOM      7  H   UNL     1       1.437   2.377  19.615  0.00  0.00    +0.000 HD
ENDROOT
BRANCH   6   8
ATOM      8  C   UNL     1       2.301   6.790  19.793  0.00  0.00    +0.000 A 
ATOM      9  C   UNL     1       1.606   7.392  20.852  0.00  0.00    +0.000 A 
ATOM     10  C   UNL     1       1.040   8.672  20.705  0.00  0.00    +0.000 A 
ATOM     11  C   UNL     1       1.144   9.371  19.494  0.00  0.00    +0.000 A 
ATOM     12  C   UNL     1       1.845   8.767  18.453  0.00  0.00    +0.000 A 
ATOM     13  C   UNL     1       2.409   7.513  18.606  0.00  0.00    +0.000 A 
BRANCH  11  14
ATOM     14  C   UNL     1       0.578  10.767  19.321  0.00  0.00    +0.000 C 
BRANCH  14  15
ATOM     15  O   UNL     1       0.769  11.130  17.952  0.00  0.00    +0.000 OA
ATOM     16  H   UNL     1       1.643  11.547  17.883  0.00  0.00    +0.000 HD
ENDBRANCH  14  15
BRANCH  14  17
ATOM     17  C   UNL     1      -0.920  10.840  19.693  0.00  0.00    +0.000 C 
BRANCH  17  18
ATOM     18  C   UNL     1      -1.854  10.765  18.518  0.00  0.00    +0.000 A 
ATOM     19  C   UNL     1      -2.940  11.653  18.423  0.00  0.00    +0.000 A 
ATOM     20  C   UNL     1      -3.801  11.593  17.333  0.00  0.00    +0.000 A 
ATOM     21  C   UNL     1      -3.586  10.645  16.332  0.00  0.00    +0.000 A 
ATOM     22  C   UNL     1      -2.510   9.767  16.418  0.00  0.00    +0.000 A 
ATOM     23  C   UNL     1      -1.643   9.822  17.508  0.00  0.00    +0.000 A 
ENDBRANCH  17  18
ENDBRANCH  14  17
ENDBRANCH  11  14
ENDBRANCH   6   8
BRANCH   1  24
ATOM     24  O   UNL     1       3.918   3.554  18.741  0.00  0.00    +0.000 OA
BRANCH  24  26
ATOM     25  O   UNL     1       3.672   1.719  17.391  0.00  0.00    +0.000 OA
ATOM     26  C   UNL     1       4.194   2.788  17.654  0.00  0.00    +0.000 C 
ATOM     27  N   UNL     1       5.234   3.313  16.939  0.00  0.00    +0.000 N 
ATOM     28  H   UNL     1       5.764   2.630  16.401  0.00  0.00    +0.000 HD
BRANCH  27  29
ATOM     29  C   UNL     1       5.252   4.675  16.453  0.00  0.00    +0.000 C 
BRANCH  29  30
ATOM     30  C   UNL     1       6.269   5.553  17.166  0.00  0.00    +0.000 A 
ATOM     31  C   UNL     1       6.500   6.883  16.776  0.00  0.00    +0.000 A 
ATOM     32  C   UNL     1       7.422   7.684  17.465  0.00  0.00    +0.000 A 
ATOM     33  C   UNL     1       8.114   7.176  18.564  0.00  0.00    +0.000 A 
ATOM     34  C   UNL     1       7.881   5.866  18.975  0.00  0.00    +0.000 A 
ATOM     35  C   UNL     1       6.967   5.063  18.283  0.00  0.00    +0.000 A 
ENDBRANCH  29  30
ENDBRANCH  27  29
ENDBRANCH  24  26
ENDBRANCH   1  24
TORSDOF 9
ENDMDL
MODEL 8
REMARK VINA RESULT:      -8.9      1.800      2.776
REMARK  Name = 
REMARK  9 active torsions:
REMARK  status: ('A' for Active; 'I' for Inactive)
REMARK    1  A    between atoms: C_2  and  O_11
REMARK    2  A    between atoms: N_3  and  C_4
REMARK    3  A    between atoms: C_4  and  C_5
REMARK    4  A    between atoms: O_11  and  C_12
REMARK    5  A    between atoms: C_17  and  C_18
REMARK    6  A    between atoms: C_21  and  C_22
REMARK    7  A    between atoms: C_22  and  O_23
REMARK    8  A    between atoms: C_22  and  C_24
REMARK    9  A    between atoms: C_24  and  C_25
REMARK                            x       y       z     vdW  Elec       q    Type
REMARK                         _______ _______ _______ _____ _____    ______ ____
ROOT
ATOM      1  C   UNL     1       2.938   5.001  18.297  0.00  0.00    +0.000 C 
ATOM      2  C   UNL     1       1.576   4.299  18.054  0.00  0.00    +0.000 C 
ATOM      3  N   UNL     1       1.010   3.600  19.223  0.00  0.00    +0.000 NA
ATOM      4  C   UNL     1       0.970   4.397  20.449  0.00  0.00    +0.000 C 
ATOM      5  C   UNL     1       2.298   5.086  20.761  0.00  0.00    +0.000 C 
ATOM      6  C   UNL     1       2.901   5.876  19.578  0.00  0.00    +0.000 C 
ATOM      7  H   UNL     1       1.598   2.771  19.397  0.00  0.00    +0.000 HD
ENDROOT
BRANCH   6   8
ATOM      8  C   UNL     1       2.226   7.228  19.379  0.00  0.00    +0.000 A 
ATOM      9  C   UNL     1       2.217   7.867  18.130  0.00  0.00    +0.000 A 
ATOM     10  C   UNL     1       1.603   9.123  17.971  0.00  0.00    +0.000 A 
ATOM     11  C   UNL     1       1.000   9.774  19.056  0.00  0.00    +0.000 A 
ATOM     12  C   UNL     1       1.005   9.124  20.288  0.00  0.00    +0.000 A 
ATOM     13  C   UNL     1       1.601   7.885  20.438  0.00  0.00    +0.000 A 
BRANCH  11  14
ATOM     14  C   UNL     1       0.297  11.108  18.902  0.00  0.00    +0.000 C 
BRANCH  14  15
ATOM     15  O   UNL     1       1.188  11.971  18.190  0.00  0.00    +0.000 OA
ATOM     16  H   UNL     1       2.087  11.781  18.505  0.00  0.00    +0.000 HD
ENDBRANCH  14  15
BRANCH  14  17
ATOM     17  C   UNL     1      -1.044  10.979  18.146  0.00  0.00    +0.000 C 
BRANCH  17  18
ATOM     18  C   UNL     1      -2.219  11.584  18.861  0.00  0.00    +0.000 A 
ATOM     19  C   UNL     1      -3.508  11.489  18.306  0.00  0.00    +0.000 A 
ATOM     20  C   UNL     1      -4.598  12.039  18.969  0.00  0.00    +0.000 A 
ATOM     21  C   UNL     1      -4.411  12.692  20.188  0.00  0.00    +0.000 A 
ATOM     22  C   UNL     1      -3.139  12.786  20.744  0.00  0.00    +0.000 A 
ATOM     23  C   UNL     1      -2.041  12.235  20.085  0.00  0.00    +0.000 A 
ENDBRANCH  17  18
ENDBRANCH  14  17
ENDBRANCH  11  14
ENDBRANCH   6   8
BRANCH   1  24
ATOM     24  O   UNL     1       4.020   4.038  18.487  0.00  0.00    +0.000 OA
BRANCH  24  26
ATOM     25  O   UNL     1       3.400   2.082  17.466  0.00  0.00    +0.000 OA
ATOM     26  C   UNL     1       4.145   3.040  17.574  0.00  0.00    +0.000 C 
ATOM     27  N   UNL     1       5.300   3.179  16.854  0.00  0.00    +0.000 N 
ATOM     28  H   UNL     1       5.674   2.307  16.484  0.00  0.00    +0.000 HD
BRANCH  27  29
ATOM     29  C   UNL     1       5.644   4.387  16.139  0.00  0.00    +0.000 C 
BRANCH  29  30
ATOM     30  C   UNL     1       6.501   5.343  16.955  0.00  0.00    +0.000 A 
ATOM     31  C   UNL     1       6.524   6.724  16.692  0.00  0.00    +0.000 A 
ATOM     32  C   UNL     1       7.299   7.591  17.475  0.00  0.00    +0.000 A 
ATOM     33  C   UNL     1       8.048   7.098  18.543  0.00  0.00    +0.000 A 
ATOM     34  C   UNL     1       8.019   5.735  18.829  0.00  0.00    +0.000 A 
ATOM     35  C   UNL     1       7.252   4.867  18.043  0.00  0.00    +0.000 A 
ENDBRANCH  29  30
ENDBRANCH  27  29
ENDBRANCH  24  26
ENDBRANCH   1  24
TORSDOF 9
ENDMDL
MODEL 9
REMARK VINA RESULT:      -8.9      0.473      1.265
REMARK  Name = 
REMARK  9 active torsions:
REMARK  status: ('A' for Active; 'I' for Inactive)
REMARK    1  A    between atoms: C_2  and  O_11
REMARK    2  A    between atoms: N_3  and  C_4
REMARK    3  A    between atoms: C_4  and  C_5
REMARK    4  A    between atoms: O_11  and  C_12
REMARK    5  A    between atoms: C_17  and  C_18
REMARK    6  A    between atoms: C_21  and  C_22
REMARK    7  A    between atoms: C_22  and  O_23
REMARK    8  A    between atoms: C_22  and  C_24
REMARK    9  A    between atoms: C_24  and  C_25
REMARK                            x       y       z     vdW  Elec       q    Type
REMARK                         _______ _______ _______ _____ _____    ______ ____
ROOT
ATOM      1  C   UNL     1       3.103   4.955  18.357  0.00  0.00    +0.000 C 
ATOM      2  C   UNL     1       1.790   4.283  17.876  0.00  0.00    +0.000 C 
ATOM      3  N   UNL     1       1.135   3.404  18.863  0.00  0.00    +0.000 NA
ATOM      4  C   UNL     1       0.956   4.001  20.186  0.00  0.00    +0.000 C 
ATOM      5  C   UNL     1       2.229   4.649  20.730  0.00  0.00    +0.000 C 
ATOM      6  C   UNL     1       2.921   5.620  19.747  0.00  0.00    +0.000 C 
ATOM      7  H   UNL     1       1.725   2.566  18.965  0.00  0.00    +0.000 HD
ENDROOT
BRANCH   6   8
ATOM      8  C   UNL     1       2.231   6.978  19.692  0.00  0.00    +0.000 A 
ATOM      9  C   UNL     1       2.313   7.797  18.556  0.00  0.00    +0.000 A 
ATOM     10  C   UNL     1       1.684   9.056  18.531  0.00  0.00    +0.000 A 
ATOM     11  C   UNL     1       0.973   9.528  19.643  0.00  0.00    +0.000 A 
ATOM     12  C   UNL     1       0.890   8.702  20.761  0.00  0.00    +0.000 A 
ATOM     13  C   UNL     1       1.501   7.461  20.777  0.00  0.00    +0.000 A 
BRANCH  11  14
ATOM     14  C   UNL     1       0.253  10.863  19.628  0.00  0.00    +0.000 C 
BRANCH  14  15
ATOM     15  O   UNL     1       1.179  11.843  20.102  0.00  0.00    +0.000 OA
ATOM     16  H   UNL     1       1.039  12.649  19.578  0.00  0.00    +0.000 HD
ENDBRANCH  14  15
BRANCH  14  17
ATOM     17  C   UNL     1      -0.251  11.238  18.216  0.00  0.00    +0.000 C 
BRANCH  17  18
ATOM     18  C   UNL     1      -1.747  11.259  18.077  0.00  0.00    +0.000 A 
ATOM     19  C   UNL     1      -2.541  11.821  19.092  0.00  0.00    +0.000 A 
ATOM     20  C   UNL     1      -3.925  11.850  18.963  0.00  0.00    +0.000 A 
ATOM     21  C   UNL     1      -4.526  11.315  17.823  0.00  0.00    +0.000 A 
ATOM     22  C   UNL     1      -3.745  10.761  16.814  0.00  0.00    +0.000 A 
ATOM     23  C   UNL     1      -2.356  10.729  16.937  0.00  0.00    +0.000 A 
ENDBRANCH  17  18
ENDBRANCH  14  17
ENDBRANCH  11  14
ENDBRANCH   6   8
BRANCH   1  24
ATOM     24  O   UNL     1       4.188   3.987  18.502  0.00  0.00    +0.000 OA
BRANCH  24  26
ATOM     25  O   UNL     1       6.372   4.503  18.969  0.00  0.00    +0.000 OA
ATOM     26  C   UNL     1       5.445   4.395  18.186  0.00  0.00    +0.000 C 
ATOM     27  N   UNL     1       5.514   4.791  16.879  0.00  0.00    +0.000 N 
ATOM     28  H   UNL     1       6.241   5.477  16.683  0.00  0.00    +0.000 HD
BRANCH  27  29
ATOM     29  C   UNL     1       5.102   3.951  15.776  0.00  0.00    +0.000 C 
BRANCH  29  30
ATOM     30  C   UNL     1       5.920   4.176  14.513  0.00  0.00    +0.000 A 
ATOM     31  C   UNL     1       7.029   5.039  14.493  0.00  0.00    +0.000 A 
ATOM     32  C   UNL     1       7.786   5.209  13.326  0.00  0.00    +0.000 A 
ATOM     33  C   UNL     1       7.461   4.506  12.166  0.00  0.00    +0.000 A 
ATOM     34  C   UNL     1       6.378   3.632  12.176  0.00  0.00    +0.000 A 
ATOM     35  C   UNL     1       5.616   3.467  13.338  0.00  0.00    +0.000 A 
ENDBRANCH  29  30
ENDBRANCH  27  29
ENDBRANCH  24  26
ENDBRANCH   1  24
TORSDOF 9
ENDMDL
