MODEL 1
REMARK VINA RESULT:      -6.9      0.000      0.000
REMARK  Name = 
REMARK  3 active torsions:
REMARK  status: ('A' for Active; 'I' for Inactive)
REMARK    1  A    between atoms: C_1  and  C_2
REMARK    2  A    between atoms: C_2  and  C_3
REMARK    3  A    between atoms: C_19  and  C_20
REMARK                            x       y       z     vdW  Elec       q    Type
REMARK                         _______ _______ _______ _____ _____    ______ ____
ROOT
ATOM      1  C   UNL     1       1.694  13.099  20.794  0.00  0.00    +0.000 C 
ATOM      2  C   UNL     1       0.596  12.679  19.787  0.00  0.00    +0.000 C 
ATOM      3  C   UNL     1       1.227  11.559  18.830  0.00  0.00    +0.000 C 
ATOM      4  C   UNL     1       0.376  10.265  18.849  0.00  0.00    +0.000 C 
ATOM      5  C   UNL     1      -1.046  10.661  18.476  0.00  0.00    +0.000 A 
ATOM      6  C   UNL     1      -1.755  10.153  17.394  0.00  0.00    +0.000 A 
ATOM      7  C   UNL     1      -3.069  10.578  17.192  0.00  0.00    +0.000 A 
ATOM      8  C   UNL     1      -3.665  11.494  18.066  0.00  0.00    +0.000 A 
ATOM      9  C   UNL     1      -2.956  12.011  19.152  0.00  0.00    +0.000 A 
ATOM     10  C   UNL     1      -1.639  11.602  19.359  0.00  0.00    +0.000 A 
ATOM     11  C   UNL     1      -0.687  12.055  20.494  0.00  0.00    +0.000 C 
ATOM     12  C   UNL     1      -0.211  10.757  21.199  0.00  0.00    +0.000 A 
ATOM     13  C   UNL     1      -0.298  10.455  22.558  0.00  0.00    +0.000 A 
ATOM     14  C   UNL     1       0.194   9.229  23.013  0.00  0.00    +0.000 A 
ATOM     15  C   UNL     1       0.765   8.309  22.124  0.00  0.00    +0.000 A 
ATOM     16  C   UNL     1       0.850   8.596  20.763  0.00  0.00    +0.000 A 
ATOM     17  C   UNL     1       0.362   9.813  20.304  0.00  0.00    +0.000 A 
ENDROOT
BRANCH   2  18
ATOM     18  C   UNL     1       0.215  13.924  18.933  0.00  0.00    +0.000 C 
ATOM     19  O   UNL     1      -0.380  13.785  17.865  0.00  0.00    +0.000 OA
ATOM     20  N   UNL     1       0.604  15.148  19.440  0.00  0.00    +0.000 N 
ATOM     21  C   UNL     1       0.339  16.317  18.771  0.00  0.00    +0.000 A 
ATOM     22  N   UNL     1      -0.421  16.522  17.726  0.00  0.00    +0.000 NA
ATOM     23  C   UNL     1      -0.346  17.847  17.357  0.00  0.00    +0.000 A 
ATOM     24  C   UNL     1       0.485  18.631  18.126  0.00  0.00    +0.000 A 
ATOM     25  S   UNL     1       1.146  17.686  19.399  0.00  0.00    +0.000 S 
ATOM     26  H   UNL     1       1.189  15.254  20.256  0.00  0.00    +0.000 HD
ENDBRANCH   2  18
BRANCH  11  27
ATOM     27  C   UNL     1      -1.349  13.030  21.454  0.00  0.00    +0.000 C 
ATOM     28  N   UNL     1      -1.897  13.839  22.250  0.00  0.00    +0.000 NA
ENDBRANCH  11  27
TORSDOF 2
ENDMDL
MODEL 2
REMARK VINA RESULT:      -6.9      2.341      4.904
REMARK  Name = 
REMARK  3 active torsions:
REMARK  status: ('A' for Active; 'I' for Inactive)
REMARK    1  A    between atoms: C_1  and  C_2
REMARK    2  A    between atoms: C_2  and  C_3
REMARK    3  A    between atoms: C_19  and  C_20
REMARK                            x       y       z     vdW  Elec       q    Type
REMARK                         _______ _______ _______ _____ _____    ______ ____
ROOT
ATOM      1  C   UNL     1       0.202  13.911  18.196  0.00  0.00    +0.000 C 
ATOM      2  C   UNL     1       0.144  13.156  19.546  0.00  0.00    +0.000 C 
ATOM      3  C   UNL     1      -1.130  13.707  20.348  0.00  0.00    +0.000 C 
ATOM      4  C   UNL     1      -2.084  12.552  20.741  0.00  0.00    +0.000 C 
ATOM      5  C   UNL     1      -1.259  11.537  21.521  0.00  0.00    +0.000 A 
ATOM      6  C   UNL     1      -1.527  11.127  22.822  0.00  0.00    +0.000 A 
ATOM      7  C   UNL     1      -0.707  10.159  23.403  0.00  0.00    +0.000 A 
ATOM      8  C   UNL     1       0.361   9.606  22.688  0.00  0.00    +0.000 A 
ATOM      9  C   UNL     1       0.637  10.018  21.382  0.00  0.00    +0.000 A 
ATOM     10  C   UNL     1      -0.168  10.992  20.794  0.00  0.00    +0.000 A 
ATOM     11  C   UNL     1      -0.030  11.583  19.369  0.00  0.00    +0.000 C 
ATOM     12  C   UNL     1      -1.404  11.368  18.680  0.00  0.00    +0.000 A 
ATOM     13  C   UNL     1      -1.647  10.731  17.464  0.00  0.00    +0.000 A 
ATOM     14  C   UNL     1      -2.961  10.639  16.997  0.00  0.00    +0.000 A 
ATOM     15  C   UNL     1      -4.025  11.174  17.734  0.00  0.00    +0.000 A 
ATOM     16  C   UNL     1      -3.796  11.807  18.955  0.00  0.00    +0.000 A 
ATOM     17  C   UNL     1      -2.492  11.900  19.425  0.00  0.00    +0.000 A 
ENDROOT
BRANCH   2  18
ATOM     18  C   UNL     1       1.435  13.491  20.349  0.00  0.00    +0.000 C 
ATOM     19  O   UNL     1       1.455  13.362  21.573  0.00  0.00    +0.000 OA
ATOM     20  N   UNL     1       2.508  13.945  19.607  0.00  0.00    +0.000 N 
ATOM     21  C   UNL     1       3.696  14.286  20.204  0.00  0.00    +0.000 A 
ATOM     22  N   UNL     1       4.093  14.094  21.435  0.00  0.00    +0.000 NA
ATOM     23  C   UNL     1       5.340  14.653  21.609  0.00  0.00    +0.000 A 
ATOM     24  C   UNL     1       5.870  15.276  20.501  0.00  0.00    +0.000 A 
ATOM     25  S   UNL     1       4.793  15.096  19.174  0.00  0.00    +0.000 S 
ATOM     26  H   UNL     1       2.456  14.156  18.622  0.00  0.00    +0.000 HD
ENDBRANCH   2  18
BRANCH  11  27
ATOM     27  C   UNL     1       1.116  10.959  18.590  0.00  0.00    +0.000 C 
ATOM     28  N   UNL     1       2.067  10.442  17.944  0.00  0.00    +0.000 NA
ENDBRANCH  11  27
TORSDOF 2
ENDMDL
MODEL 3
REMARK VINA RESULT:      -6.8      3.098      5.297
REMARK  Name = 
REMARK  3 active torsions:
REMARK  status: ('A' for Active; 'I' for Inactive)
REMARK    1  A    between atoms: C_1  and  C_2
REMARK    2  A    between atoms: C_2  and  C_3
REMARK    3  A    between atoms: C_19  and  C_20
REMARK                            x       y       z     vdW  Elec       q    Type
REMARK                         _______ _______ _______ _____ _____    ______ ____
ROOT
ATOM      1  C   UNL     1      -1.586  15.152  20.230  0.00  0.00    +0.000 C 
ATOM      2  C   UNL     1      -1.512  13.633  20.519  0.00  0.00    +0.000 C 
ATOM      3  C   UNL     1      -1.041  12.911  19.167  0.00  0.00    +0.000 C 
ATOM      4  C   UNL     1       0.230  12.059  19.403  0.00  0.00    +0.000 C 
ATOM      5  C   UNL     1      -0.086  11.092  20.536  0.00  0.00    +0.000 A 
ATOM      6  C   UNL     1      -0.022   9.707  20.441  0.00  0.00    +0.000 A 
ATOM      7  C   UNL     1      -0.303   8.942  21.573  0.00  0.00    +0.000 A 
ATOM      8  C   UNL     1      -0.636   9.557  22.786  0.00  0.00    +0.000 A 
ATOM      9  C   UNL     1      -0.705  10.948  22.886  0.00  0.00    +0.000 A 
ATOM     10  C   UNL     1      -0.437  11.723  21.759  0.00  0.00    +0.000 A 
ATOM     11  C   UNL     1      -0.463  13.269  21.660  0.00  0.00    +0.000 C 
ATOM     12  C   UNL     1       0.932  13.688  21.124  0.00  0.00    +0.000 A 
ATOM     13  C   UNL     1       1.819  14.595  21.701  0.00  0.00    +0.000 A 
ATOM     14  C   UNL     1       3.036  14.853  21.064  0.00  0.00    +0.000 A 
ATOM     15  C   UNL     1       3.369  14.211  19.864  0.00  0.00    +0.000 A 
ATOM     16  C   UNL     1       2.494  13.296  19.281  0.00  0.00    +0.000 A 
ATOM     17  C   UNL     1       1.283  13.036  19.910  0.00  0.00    +0.000 A 
ENDROOT
BRANCH   2  18
ATOM     18  C   UNL     1      -2.940  13.136  20.891  0.00  0.00    +0.000 C 
ATOM     19  O   UNL     1      -3.473  12.238  20.240  0.00  0.00    +0.000 OA
ATOM     20  N   UNL     1      -3.545  13.775  21.955  0.00  0.00    +0.000 N 
ATOM     21  C   UNL     1      -4.809  13.436  22.368  0.00  0.00    +0.000 A 
ATOM     22  N   UNL     1      -5.555  12.422  22.013  0.00  0.00    +0.000 NA
ATOM     23  C   UNL     1      -6.779  12.510  22.639  0.00  0.00    +0.000 A 
ATOM     24  C   UNL     1      -6.948  13.604  23.458  0.00  0.00    +0.000 A 
ATOM     25  S   UNL     1      -5.496  14.522  23.495  0.00  0.00    +0.000 S 
ATOM     26  H   UNL     1      -3.155  14.584  22.415  0.00  0.00    +0.000 HD
ENDBRANCH   2  18
BRANCH  11  27
ATOM     27  C   UNL     1      -0.800  13.931  22.986  0.00  0.00    +0.000 C 
ATOM     28  N   UNL     1      -1.080  14.481  24.085  0.00  0.00    +0.000 NA
ENDBRANCH  11  27
TORSDOF 2
ENDMDL
MODEL 4
REMARK VINA RESULT:      -6.8      3.183      5.366
REMARK  Name = 
REMARK  3 active torsions:
REMARK  status: ('A' for Active; 'I' for Inactive)
REMARK    1  A    between atoms: C_1  and  C_2
REMARK    2  A    between atoms: C_2  and  C_3
REMARK    3  A    between atoms: C_19  and  C_20
REMARK                            x       y       z     vdW  Elec       q    Type
REMARK                         _______ _______ _______ _____ _____    ______ ____
ROOT
ATOM      1  C   UNL     1      -1.585  15.106  20.221  0.00  0.00    +0.000 C 
ATOM      2  C   UNL     1      -1.498  13.585  20.500  0.00  0.00    +0.000 C 
ATOM      3  C   UNL     1      -1.016  12.877  19.145  0.00  0.00    +0.000 C 
ATOM      4  C   UNL     1       0.262  12.034  19.381  0.00  0.00    +0.000 C 
ATOM      5  C   UNL     1      -0.049  11.058  20.507  0.00  0.00    +0.000 A 
ATOM      6  C   UNL     1       0.028   9.674  20.403  0.00  0.00    +0.000 A 
ATOM      7  C   UNL     1      -0.250   8.899  21.530  0.00  0.00    +0.000 A 
ATOM      8  C   UNL     1      -0.593   9.504  22.744  0.00  0.00    +0.000 A 
ATOM      9  C   UNL     1      -0.675  10.894  22.853  0.00  0.00    +0.000 A 
ATOM     10  C   UNL     1      -0.410  11.678  21.732  0.00  0.00    +0.000 A 
ATOM     11  C   UNL     1      -0.449  13.224  21.642  0.00  0.00    +0.000 C 
ATOM     12  C   UNL     1       0.944  13.659  21.114  0.00  0.00    +0.000 A 
ATOM     13  C   UNL     1       1.821  14.571  21.700  0.00  0.00    +0.000 A 
ATOM     14  C   UNL     1       3.037  14.844  21.069  0.00  0.00    +0.000 A 
ATOM     15  C   UNL     1       3.380  14.212  19.866  0.00  0.00    +0.000 A 
ATOM     16  C   UNL     1       2.515  13.293  19.274  0.00  0.00    +0.000 A 
ATOM     17  C   UNL     1       1.305  13.018  19.898  0.00  0.00    +0.000 A 
ENDROOT
BRANCH   2  18
ATOM     18  C   UNL     1      -2.923  13.074  20.863  0.00  0.00    +0.000 C 
ATOM     19  O   UNL     1      -3.271  12.995  22.041  0.00  0.00    +0.000 OA
ATOM     20  N   UNL     1      -3.725  12.711  19.800  0.00  0.00    +0.000 N 
ATOM     21  C   UNL     1      -4.996  12.232  19.994  0.00  0.00    +0.000 A 
ATOM     22  N   UNL     1      -5.715  12.200  21.087  0.00  0.00    +0.000 NA
ATOM     23  C   UNL     1      -6.914  11.575  20.830  0.00  0.00    +0.000 A 
ATOM     24  C   UNL     1      -7.086  11.127  19.539  0.00  0.00    +0.000 A 
ATOM     25  S   UNL     1      -5.718  11.565  18.596  0.00  0.00    +0.000 S 
ATOM     26  H   UNL     1      -3.401  12.669  18.845  0.00  0.00    +0.000 HD
ENDBRANCH   2  18
BRANCH  11  27
ATOM     27  C   UNL     1      -0.797  13.875  22.971  0.00  0.00    +0.000 C 
ATOM     28  N   UNL     1      -1.086  14.415  24.073  0.00  0.00    +0.000 NA
ENDBRANCH  11  27
TORSDOF 2
ENDMDL
MODEL 5
REMARK VINA RESULT:      -6.7      3.615      7.008
REMARK  Name = 
REMARK  3 active torsions:
REMARK  status: ('A' for Active; 'I' for Inactive)
REMARK    1  A    between atoms: C_1  and  C_2
REMARK    2  A    between atoms: C_2  and  C_3
REMARK    3  A    between atoms: C_19  and  C_20
REMARK                            x       y       z     vdW  Elec       q    Type
REMARK                         _______ _______ _______ _____ _____    ______ ____
ROOT
ATOM      1  C   UNL     1       3.184  17.565  20.633  0.00  0.00    +0.000 C 
ATOM      2  C   UNL     1       2.554  16.165  20.437  0.00  0.00    +0.000 C 
ATOM      3  C   UNL     1       1.011  16.272  20.861  0.00  0.00    +0.000 C 
ATOM      4  C   UNL     1       0.084  15.809  19.710  0.00  0.00    +0.000 C 
ATOM      5  C   UNL     1       0.519  14.401  19.326  0.00  0.00    +0.000 A 
ATOM      6  C   UNL     1      -0.300  13.279  19.360  0.00  0.00    +0.000 A 
ATOM      7  C   UNL     1       0.220  12.054  18.943  0.00  0.00    +0.000 A 
ATOM      8  C   UNL     1       1.542  11.957  18.492  0.00  0.00    +0.000 A 
ATOM      9  C   UNL     1       2.370  13.080  18.459  0.00  0.00    +0.000 A 
ATOM     10  C   UNL     1       1.864  14.308  18.883  0.00  0.00    +0.000 A 
ATOM     11  C   UNL     1       2.614  15.663  18.928  0.00  0.00    +0.000 C 
ATOM     12  C   UNL     1       1.756  16.656  18.100  0.00  0.00    +0.000 A 
ATOM     13  C   UNL     1       2.175  17.436  17.023  0.00  0.00    +0.000 A 
ATOM     14  C   UNL     1       1.254  18.285  16.402  0.00  0.00    +0.000 A 
ATOM     15  C   UNL     1      -0.073  18.354  16.846  0.00  0.00    +0.000 A 
ATOM     16  C   UNL     1      -0.505  17.573  17.917  0.00  0.00    +0.000 A 
ATOM     17  C   UNL     1       0.406  16.727  18.537  0.00  0.00    +0.000 A 
ENDROOT
BRANCH   2  18
ATOM     18  C   UNL     1       3.276  15.167  21.390  0.00  0.00    +0.000 C 
ATOM     19  O   UNL     1       2.630  14.522  22.216  0.00  0.00    +0.000 OA
ATOM     20  N   UNL     1       4.647  15.084  21.253  0.00  0.00    +0.000 N 
ATOM     21  C   UNL     1       5.396  14.251  22.046  0.00  0.00    +0.000 A 
ATOM     22  N   UNL     1       5.003  13.318  22.875  0.00  0.00    +0.000 NA
ATOM     23  C   UNL     1       6.099  12.771  23.505  0.00  0.00    +0.000 A 
ATOM     24  C   UNL     1       7.317  13.309  23.150  0.00  0.00    +0.000 A 
ATOM     25  S   UNL     1       7.082  14.500  21.933  0.00  0.00    +0.000 S 
ATOM     26  H   UNL     1       5.186  15.693  20.656  0.00  0.00    +0.000 HD
ENDBRANCH   2  18
BRANCH  11  27
ATOM     27  C   UNL     1       4.040  15.555  18.412  0.00  0.00    +0.000 C 
ATOM     28  N   UNL     1       5.223  15.464  17.985  0.00  0.00    +0.000 NA
ENDBRANCH  11  27
TORSDOF 2
ENDMDL
MODEL 6
REMARK VINA RESULT:      -6.7      2.400      4.677
REMARK  Name = 
REMARK  3 active torsions:
REMARK  status: ('A' for Active; 'I' for Inactive)
REMARK    1  A    between atoms: C_1  and  C_2
REMARK    2  A    between atoms: C_2  and  C_3
REMARK    3  A    between atoms: C_19  and  C_20
REMARK                            x       y       z     vdW  Elec       q    Type
REMARK                         _______ _______ _______ _____ _____    ______ ____
ROOT
ATOM      1  C   UNL     1      -1.361  15.257  20.622  0.00  0.00    +0.000 C 
ATOM      2  C   UNL     1      -0.772  13.915  21.123  0.00  0.00    +0.000 C 
ATOM      3  C   UNL     1      -1.047  13.831  22.700  0.00  0.00    +0.000 C 
ATOM      4  C   UNL     1      -1.821  12.540  23.063  0.00  0.00    +0.000 C 
ATOM      5  C   UNL     1      -1.016  11.369  22.517  0.00  0.00    +0.000 A 
ATOM      6  C   UNL     1      -0.514  10.323  23.283  0.00  0.00    +0.000 A 
ATOM      7  C   UNL     1       0.176   9.293  22.644  0.00  0.00    +0.000 A 
ATOM      8  C   UNL     1       0.355   9.308  21.255  0.00  0.00    +0.000 A 
ATOM      9  C   UNL     1      -0.144  10.358  20.482  0.00  0.00    +0.000 A 
ATOM     10  C   UNL     1      -0.826  11.398  21.110  0.00  0.00    +0.000 A 
ATOM     11  C   UNL     1      -1.450  12.647  20.439  0.00  0.00    +0.000 C 
ATOM     12  C   UNL     1      -2.942  12.664  20.864  0.00  0.00    +0.000 A 
ATOM     13  C   UNL     1      -4.056  12.717  20.027  0.00  0.00    +0.000 A 
ATOM     14  C   UNL     1      -5.332  12.731  20.598  0.00  0.00    +0.000 A 
ATOM     15  C   UNL     1      -5.499  12.690  21.988  0.00  0.00    +0.000 A 
ATOM     16  C   UNL     1      -4.392  12.629  22.835  0.00  0.00    +0.000 A 
ATOM     17  C   UNL     1      -3.122  12.614  22.273  0.00  0.00    +0.000 A 
ENDROOT
BRANCH   2  18
ATOM     18  C   UNL     1       0.765  13.934  20.873  0.00  0.00    +0.000 C 
ATOM     19  O   UNL     1       1.521  13.315  21.621  0.00  0.00    +0.000 OA
ATOM     20  N   UNL     1       1.194  14.688  19.799  0.00  0.00    +0.000 N 
ATOM     21  C   UNL     1       2.527  14.793  19.487  0.00  0.00    +0.000 A 
ATOM     22  N   UNL     1       3.547  14.126  19.962  0.00  0.00    +0.000 NA
ATOM     23  C   UNL     1       4.710  14.606  19.402  0.00  0.00    +0.000 A 
ATOM     24  C   UNL     1       4.556  15.646  18.513  0.00  0.00    +0.000 A 
ATOM     25  S   UNL     1       2.883  15.991  18.322  0.00  0.00    +0.000 S 
ATOM     26  H   UNL     1       0.587  15.284  19.257  0.00  0.00    +0.000 HD
ENDBRANCH   2  18
BRANCH  11  27
ATOM     27  C   UNL     1      -1.275  12.644  18.929  0.00  0.00    +0.000 C 
ATOM     28  N   UNL     1      -1.131  12.640  17.676  0.00  0.00    +0.000 NA
ENDBRANCH  11  27
TORSDOF 2
ENDMDL
MODEL 7
REMARK VINA RESULT:      -6.5      3.475      6.078
REMARK  Name = 
REMARK  3 active torsions:
REMARK  status: ('A' for Active; 'I' for Inactive)
REMARK    1  A    between atoms: C_1  and  C_2
REMARK    2  A    between atoms: C_2  and  C_3
REMARK    3  A    between atoms: C_19  and  C_20
REMARK                            x       y       z     vdW  Elec       q    Type
REMARK                         _______ _______ _______ _____ _____    ______ ____
ROOT
ATOM      1  C   UNL     1      -4.475  15.360  22.454  0.00  0.00    +0.000 C 
ATOM      2  C   UNL     1      -3.404  14.319  22.046  0.00  0.00    +0.000 C 
ATOM      3  C   UNL     1      -2.227  15.111  21.299  0.00  0.00    +0.000 C 
ATOM      4  C   UNL     1      -0.861  14.849  21.979  0.00  0.00    +0.000 C 
ATOM      5  C   UNL     1      -0.660  13.340  22.011  0.00  0.00    +0.000 A 
ATOM      6  C   UNL     1       0.407  12.667  21.429  0.00  0.00    +0.000 A 
ATOM      7  C   UNL     1       0.485  11.281  21.568  0.00  0.00    +0.000 A 
ATOM      8  C   UNL     1      -0.491  10.581  22.288  0.00  0.00    +0.000 A 
ATOM      9  C   UNL     1      -1.568  11.252  22.871  0.00  0.00    +0.000 A 
ATOM     10  C   UNL     1      -1.662  12.636  22.730  0.00  0.00    +0.000 A 
ATOM     11  C   UNL     1      -2.770  13.560  23.293  0.00  0.00    +0.000 C 
ATOM     12  C   UNL     1      -2.041  14.637  24.140  0.00  0.00    +0.000 A 
ATOM     13  C   UNL     1      -2.282  14.967  25.473  0.00  0.00    +0.000 A 
ATOM     14  C   UNL     1      -1.525  15.978  26.069  0.00  0.00    +0.000 A 
ATOM     15  C   UNL     1      -0.533  16.654  25.346  0.00  0.00    +0.000 A 
ATOM     16  C   UNL     1      -0.277  16.328  24.015  0.00  0.00    +0.000 A 
ATOM     17  C   UNL     1      -1.027  15.323  23.418  0.00  0.00    +0.000 A 
ENDROOT
BRANCH   2  18
ATOM     18  C   UNL     1      -4.055  13.316  21.049  0.00  0.00    +0.000 C 
ATOM     19  O   UNL     1      -5.179  12.867  21.267  0.00  0.00    +0.000 OA
ATOM     20  N   UNL     1      -3.289  12.968  19.953  0.00  0.00    +0.000 N 
ATOM     21  C   UNL     1      -3.749  12.082  19.012  0.00  0.00    +0.000 A 
ATOM     22  N   UNL     1      -4.947  11.579  18.859  0.00  0.00    +0.000 NA
ATOM     23  C   UNL     1      -4.939  10.681  17.814  0.00  0.00    +0.000 A 
ATOM     24  C   UNL     1      -3.722  10.507  17.192  0.00  0.00    +0.000 A 
ATOM     25  S   UNL     1      -2.561  11.555  17.902  0.00  0.00    +0.000 S 
ATOM     26  H   UNL     1      -2.327  13.248  19.833  0.00  0.00    +0.000 HD
ENDBRANCH   2  18
BRANCH  11  27
ATOM     27  C   UNL     1      -3.812  12.796  24.094  0.00  0.00    +0.000 C 
ATOM     28  N   UNL     1      -4.677  12.163  24.758  0.00  0.00    +0.000 NA
ENDBRANCH  11  27
TORSDOF 2
ENDMDL
MODEL 8
REMARK VINA RESULT:      -6.5      2.811      4.971
REMARK  Name = 
REMARK  3 active torsions:
REMARK  status: ('A' for Active; 'I' for Inactive)
REMARK    1  A    between atoms: C_1  and  C_2
REMARK    2  A    between atoms: C_2  and  C_3
REMARK    3  A    between atoms: C_19  and  C_20
REMARK                            x       y       z     vdW  Elec       q    Type
REMARK                         _______ _______ _______ _____ _____    ______ ____
ROOT
ATOM      1  C   UNL     1      -1.901  11.841  22.386  0.00  0.00    +0.000 C 
ATOM      2  C   UNL     1      -0.917  12.767  21.629  0.00  0.00    +0.000 C 
ATOM      3  C   UNL     1       0.338  11.872  21.189  0.00  0.00    +0.000 C 
ATOM      4  C   UNL     1       0.570  11.951  19.660  0.00  0.00    +0.000 C 
ATOM      5  C   UNL     1       0.712  13.425  19.306  0.00  0.00    +0.000 A 
ATOM      6  C   UNL     1       1.824  13.992  18.693  0.00  0.00    +0.000 A 
ATOM      7  C   UNL     1       1.803  15.354  18.392  0.00  0.00    +0.000 A 
ATOM      8  C   UNL     1       0.682  16.135  18.694  0.00  0.00    +0.000 A 
ATOM      9  C   UNL     1      -0.436  15.571  19.313  0.00  0.00    +0.000 A 
ATOM     10  C   UNL     1      -0.423  14.213  19.629  0.00  0.00    +0.000 A 
ATOM     11  C   UNL     1      -1.551  13.403  20.315  0.00  0.00    +0.000 C 
ATOM     12  C   UNL     1      -1.869  12.219  19.363  0.00  0.00    +0.000 A 
ATOM     13  C   UNL     1      -3.112  11.871  18.836  0.00  0.00    +0.000 A 
ATOM     14  C   UNL     1      -3.205  10.759  17.995  0.00  0.00    +0.000 A 
ATOM     15  C   UNL     1      -2.070  10.000  17.679  0.00  0.00    +0.000 A 
ATOM     16  C   UNL     1      -0.820  10.343  18.193  0.00  0.00    +0.000 A 
ATOM     17  C   UNL     1      -0.722  11.448  19.029  0.00  0.00    +0.000 A 
ENDROOT
BRANCH   2  18
ATOM     18  C   UNL     1      -0.435  13.874  22.612  0.00  0.00    +0.000 C 
ATOM     19  O   UNL     1       0.716  14.304  22.544  0.00  0.00    +0.000 OA
ATOM     20  N   UNL     1      -1.361  14.301  23.544  0.00  0.00    +0.000 N 
ATOM     21  C   UNL     1      -1.049  15.262  24.472  0.00  0.00    +0.000 A 
ATOM     22  N   UNL     1       0.005  16.034  24.549  0.00  0.00    +0.000 NA
ATOM     23  C   UNL     1      -0.075  16.810  25.683  0.00  0.00    +0.000 A 
ATOM     24  C   UNL     1      -1.191  16.607  26.463  0.00  0.00    +0.000 A 
ATOM     25  S   UNL     1      -2.211  15.446  25.712  0.00  0.00    +0.000 S 
ATOM     26  H   UNL     1      -2.264  13.871  23.671  0.00  0.00    +0.000 HD
ENDBRANCH   2  18
BRANCH  11  27
ATOM     27  C   UNL     1      -2.775  14.252  20.617  0.00  0.00    +0.000 C 
ATOM     28  N   UNL     1      -3.792  14.955  20.867  0.00  0.00    +0.000 NA
ENDBRANCH  11  27
TORSDOF 2
ENDMDL
MODEL 9
REMARK VINA RESULT:      -6.4      1.108      1.133
REMARK  Name = 
REMARK  3 active torsions:
REMARK  status: ('A' for Active; 'I' for Inactive)
REMARK    1  A    between atoms: C_1  and  C_2
REMARK    2  A    between atoms: C_2  and  C_3
REMARK    3  A    between atoms: C_19  and  C_20
REMARK                            x       y       z     vdW  Elec       q    Type
REMARK                         _______ _______ _______ _____ _____    ______ ____
ROOT
ATOM      1  C   UNL     1       1.847  13.093  20.821  0.00  0.00    +0.000 C 
ATOM      2  C   UNL     1       0.637  12.796  19.902  0.00  0.00    +0.000 C 
ATOM      3  C   UNL     1       1.182  11.954  18.651  0.00  0.00    +0.000 C 
ATOM      4  C   UNL     1       0.416  10.616  18.504  0.00  0.00    +0.000 C 
ATOM      5  C   UNL     1      -1.065  10.956  18.417  0.00  0.00    +0.000 A 
ATOM      6  C   UNL     1      -1.896  10.622  17.354  0.00  0.00    +0.000 A 
ATOM      7  C   UNL     1      -3.246  10.965  17.423  0.00  0.00    +0.000 A 
ATOM      8  C   UNL     1      -3.757  11.629  18.545  0.00  0.00    +0.000 A 
ATOM      9  C   UNL     1      -2.926  11.970  19.614  0.00  0.00    +0.000 A 
ATOM     10  C   UNL     1      -1.572  11.642  19.551  0.00  0.00    +0.000 A 
ATOM     11  C   UNL     1      -0.490  11.932  20.621  0.00  0.00    +0.000 C 
ATOM     12  C   UNL     1       0.155  10.563  20.961  0.00  0.00    +0.000 A 
ATOM     13  C   UNL     1       0.287   9.983  22.222  0.00  0.00    +0.000 A 
ATOM     14  C   UNL     1       0.909   8.736  22.334  0.00  0.00    +0.000 A 
ATOM     15  C   UNL     1       1.393   8.071  21.200  0.00  0.00    +0.000 A 
ATOM     16  C   UNL     1       1.261   8.637  19.933  0.00  0.00    +0.000 A 
ATOM     17  C   UNL     1       0.643   9.875  19.817  0.00  0.00    +0.000 A 
ENDROOT
BRANCH   2  18
ATOM     18  C   UNL     1       0.066  14.153  19.393  0.00  0.00    +0.000 C 
ATOM     19  O   UNL     1      -0.061  14.358  18.187  0.00  0.00    +0.000 OA
ATOM     20  N   UNL     1      -0.253  15.078  20.368  0.00  0.00    +0.000 N 
ATOM     21  C   UNL     1      -0.751  16.315  20.043  0.00  0.00    +0.000 A 
ATOM     22  N   UNL     1      -1.167  16.766  18.887  0.00  0.00    +0.000 NA
ATOM     23  C   UNL     1      -1.528  18.090  19.014  0.00  0.00    +0.000 A 
ATOM     24  C   UNL     1      -1.368  18.630  20.270  0.00  0.00    +0.000 A 
ATOM     25  S   UNL     1      -0.807  17.416  21.349  0.00  0.00    +0.000 S 
ATOM     26  H   UNL     1      -0.044  14.953  21.347  0.00  0.00    +0.000 HD
ENDBRANCH   2  18
BRANCH  11  27
ATOM     27  C   UNL     1      -1.057  12.629  21.847  0.00  0.00    +0.000 C 
ATOM     28  N   UNL     1      -1.529  13.207  22.864  0.00  0.00    +0.000 NA
ENDBRANCH  11  27
TORSDOF 2
ENDMDL
