MODEL 1
REMARK VINA RESULT:      -8.6      0.000      0.000
REMARK  Name = 
REMARK  7 active torsions:
REMARK  status: ('A' for Active; 'I' for Inactive)
REMARK    1  A    between atoms: N_1  and  S_2
REMARK    2  A    between atoms: S_2  and  C_5
REMARK    3  A    between atoms: C_8  and  N_9
REMARK    4  A    between atoms: C_10  and  C_11
REMARK    5  A    between atoms: C_14  and  O_15
REMARK    6  A    between atoms: O_15  and  C_16
REMARK    7  A    between atoms: C_16  and  C_17
REMARK                            x       y       z     vdW  Elec       q    Type
REMARK                         _______ _______ _______ _____ _____    ______ ____
ROOT
ATOM      1  N   UNL     1       8.672   9.375  18.567  0.00  0.00    +0.000 NA
ATOM      2  C   UNL     1       7.838   8.846  17.730  0.00  0.00    +0.000 C 
ENDROOT
BRANCH   1   6
ATOM      3  C   UNL     1      10.224  13.237  18.031  0.00  0.00    +0.000 A 
ATOM      4  C   UNL     1      10.969  12.259  18.687  0.00  0.00    +0.000 A 
ATOM      5  C   UNL     1      10.421  10.984  18.850  0.00  0.00    +0.000 A 
ATOM      6  C   UNL     1       9.138  10.681  18.372  0.00  0.00    +0.000 A 
ATOM      7  C   UNL     1       8.421  11.670  17.691  0.00  0.00    +0.000 A 
ATOM      8  C   UNL     1       8.951  12.950  17.532  0.00  0.00    +0.000 A 
BRANCH   3   9
ATOM      9  S   UNL     1      10.901  14.851  17.782  0.00  0.00    +0.000 S 
ATOM     10  O   UNL     1      12.141  14.952  18.511  0.00  0.00    +0.000 OA
ATOM     11  O   UNL     1       9.851  15.836  17.895  0.00  0.00    +0.000 OA
BRANCH   9  12
ATOM     12  N   UNL     1      11.299  14.814  16.150  0.00  0.00    +0.000 NA
ATOM     13  H   UNL     1      10.492  14.497  15.612  0.00  0.00    +0.000 HD
ATOM     14  H   UNL     1      12.137  14.251  16.008  0.00  0.00    +0.000 HD
ENDBRANCH   9  12
ENDBRANCH   3   9
ENDBRANCH   1   6
BRANCH   2  15
ATOM     15  C   UNL     1       7.309   7.488  17.954  0.00  0.00    +0.000 A 
ATOM     16  C   UNL     1       8.008   6.610  18.785  0.00  0.00    +0.000 A 
ATOM     17  C   UNL     1       7.494   5.345  19.043  0.00  0.00    +0.000 A 
ATOM     18  C   UNL     1       6.269   4.960  18.494  0.00  0.00    +0.000 A 
ATOM     19  C   UNL     1       5.592   5.828  17.630  0.00  0.00    +0.000 A 
ATOM     20  C   UNL     1       6.108   7.098  17.361  0.00  0.00    +0.000 A 
BRANCH  18  21
ATOM     21  O   UNL     1       5.644   3.768  18.746  0.00  0.00    +0.000 OA
BRANCH  21  22
ATOM     22  C   UNL     1       4.376   3.612  18.105  0.00  0.00    +0.000 C 
BRANCH  22  23
ATOM     23  C   UNL     1       3.304   3.468  19.151  0.00  0.00    +0.000 A 
ATOM     24  C   UNL     1       2.012   3.955  18.917  0.00  0.00    +0.000 A 
ATOM     25  C   UNL     1       1.021   3.815  19.891  0.00  0.00    +0.000 A 
ATOM     26  C   UNL     1       1.314   3.192  21.103  0.00  0.00    +0.000 A 
ATOM     27  C   UNL     1       2.598   2.701  21.343  0.00  0.00    +0.000 A 
ATOM     28  C   UNL     1       3.591   2.835  20.371  0.00  0.00    +0.000 A 
ENDBRANCH  22  23
ENDBRANCH  21  22
ENDBRANCH  18  21
ENDBRANCH   2  15
TORSDOF 7
ENDMDL
MODEL 2
REMARK VINA RESULT:      -8.3      0.509      1.687
REMARK  Name = 
REMARK  7 active torsions:
REMARK  status: ('A' for Active; 'I' for Inactive)
REMARK    1  A    between atoms: N_1  and  S_2
REMARK    2  A    between atoms: S_2  and  C_5
REMARK    3  A    between atoms: C_8  and  N_9
REMARK    4  A    between atoms: C_10  and  C_11
REMARK    5  A    between atoms: C_14  and  O_15
REMARK    6  A    between atoms: O_15  and  C_16
REMARK    7  A    between atoms: C_16  and  C_17
REMARK                            x       y       z     vdW  Elec       q    Type
REMARK                         _______ _______ _______ _____ _____    ______ ____
ROOT
ATOM      1  N   UNL     1       8.786   9.563  18.805  0.00  0.00    +0.000 NA
ATOM      2  C   UNL     1       8.285   8.928  17.794  0.00  0.00    +0.000 C 
ENDROOT
BRANCH   1   6
ATOM      3  C   UNL     1      10.490  13.349  18.193  0.00  0.00    +0.000 A 
ATOM      4  C   UNL     1       9.267  13.020  17.612  0.00  0.00    +0.000 A 
ATOM      5  C   UNL     1       8.729  11.750  17.834  0.00  0.00    +0.000 A 
ATOM      6  C   UNL     1       9.402  10.806  18.624  0.00  0.00    +0.000 A 
ATOM      7  C   UNL     1      10.614  11.169  19.221  0.00  0.00    +0.000 A 
ATOM      8  C   UNL     1      11.168  12.429  18.998  0.00  0.00    +0.000 A 
BRANCH   3   9
ATOM      9  S   UNL     1      11.182  14.957  17.956  0.00  0.00    +0.000 S 
ATOM     10  O   UNL     1      12.114  15.224  19.025  0.00  0.00    +0.000 OA
ATOM     11  O   UNL     1      10.136  15.882  17.589  0.00  0.00    +0.000 OA
BRANCH   9  12
ATOM     12  N   UNL     1      12.093  14.744  16.561  0.00  0.00    +0.000 NA
ATOM     13  H   UNL     1      11.879  13.833  16.154  0.00  0.00    +0.000 HD
ATOM     14  H   UNL     1      13.082  14.881  16.766  0.00  0.00    +0.000 HD
ENDBRANCH   9  12
ENDBRANCH   3   9
ENDBRANCH   1   6
BRANCH   2  15
ATOM     15  C   UNL     1       7.595   7.639  17.984  0.00  0.00    +0.000 A 
ATOM     16  C   UNL     1       6.425   7.376  17.268  0.00  0.00    +0.000 A 
ATOM     17  C   UNL     1       5.794   6.146  17.399  0.00  0.00    +0.000 A 
ATOM     18  C   UNL     1       6.341   5.162  18.227  0.00  0.00    +0.000 A 
ATOM     19  C   UNL     1       7.490   5.443  18.973  0.00  0.00    +0.000 A 
ATOM     20  C   UNL     1       8.125   6.682  18.850  0.00  0.00    +0.000 A 
BRANCH  18  21
ATOM     21  O   UNL     1       5.837   3.897  18.368  0.00  0.00    +0.000 OA
BRANCH  21  22
ATOM     22  C   UNL     1       4.502   3.729  17.885  0.00  0.00    +0.000 C 
BRANCH  22  23
ATOM     23  C   UNL     1       3.548   3.730  19.050  0.00  0.00    +0.000 A 
ATOM     24  C   UNL     1       3.634   2.744  20.041  0.00  0.00    +0.000 A 
ATOM     25  C   UNL     1       2.748   2.752  21.119  0.00  0.00    +0.000 A 
ATOM     26  C   UNL     1       1.771   3.743  21.214  0.00  0.00    +0.000 A 
ATOM     27  C   UNL     1       1.680   4.730  20.233  0.00  0.00    +0.000 A 
ATOM     28  C   UNL     1       2.566   4.728  19.155  0.00  0.00    +0.000 A 
ENDBRANCH  22  23
ENDBRANCH  21  22
ENDBRANCH  18  21
ENDBRANCH   2  15
TORSDOF 7
ENDMDL
MODEL 3
REMARK VINA RESULT:      -8.3      1.244      1.728
REMARK  Name = 
REMARK  7 active torsions:
REMARK  status: ('A' for Active; 'I' for Inactive)
REMARK    1  A    between atoms: N_1  and  S_2
REMARK    2  A    between atoms: S_2  and  C_5
REMARK    3  A    between atoms: C_8  and  N_9
REMARK    4  A    between atoms: C_10  and  C_11
REMARK    5  A    between atoms: C_14  and  O_15
REMARK    6  A    between atoms: O_15  and  C_16
REMARK    7  A    between atoms: C_16  and  C_17
REMARK                            x       y       z     vdW  Elec       q    Type
REMARK                         _______ _______ _______ _____ _____    ______ ____
ROOT
ATOM      1  N   UNL     1       8.964   9.618  18.688  0.00  0.00    +0.000 NA
ATOM      2  C   UNL     1       8.256   9.076  17.750  0.00  0.00    +0.000 C 
ENDROOT
BRANCH   1   6
ATOM      3  C   UNL     1      10.361  13.539  18.151  0.00  0.00    +0.000 A 
ATOM      4  C   UNL     1       9.117  13.156  17.655  0.00  0.00    +0.000 A 
ATOM      5  C   UNL     1       8.683  11.842  17.849  0.00  0.00    +0.000 A 
ATOM      6  C   UNL     1       9.481  10.909  18.527  0.00  0.00    +0.000 A 
ATOM      7  C   UNL     1      10.713  11.324  19.043  0.00  0.00    +0.000 A 
ATOM      8  C   UNL     1      11.163  12.629  18.845  0.00  0.00    +0.000 A 
BRANCH   3   9
ATOM      9  S   UNL     1      10.925  15.201  17.948  0.00  0.00    +0.000 S 
ATOM     10  O   UNL     1       9.798  16.036  17.610  0.00  0.00    +0.000 OA
ATOM     11  O   UNL     1      12.151  15.204  17.185  0.00  0.00    +0.000 OA
BRANCH   9  12
ATOM     12  N   UNL     1      11.378  15.610  19.514  0.00  0.00    +0.000 NA
ATOM     13  H   UNL     1      11.974  16.439  19.487  0.00  0.00    +0.000 HD
ATOM     14  H   UNL     1      11.808  14.808  19.973  0.00  0.00    +0.000 HD
ENDBRANCH   9  12
ENDBRANCH   3   9
ENDBRANCH   1   6
BRANCH   2  15
ATOM     15  C   UNL     1       7.671   7.734  17.931  0.00  0.00    +0.000 A 
ATOM     16  C   UNL     1       8.211   6.876  18.891  0.00  0.00    +0.000 A 
ATOM     17  C   UNL     1       7.638   5.629  19.106  0.00  0.00    +0.000 A 
ATOM     18  C   UNL     1       6.508   5.242  18.381  0.00  0.00    +0.000 A 
ATOM     19  C   UNL     1       5.994   6.089  17.393  0.00  0.00    +0.000 A 
ATOM     20  C   UNL     1       6.571   7.341  17.167  0.00  0.00    +0.000 A 
BRANCH  18  21
ATOM     21  O   UNL     1       5.828   4.069  18.569  0.00  0.00    +0.000 OA
BRANCH  21  22
ATOM     22  C   UNL     1       5.069   3.632  17.439  0.00  0.00    +0.000 C 
BRANCH  22  23
ATOM     23  C   UNL     1       3.650   3.365  17.865  0.00  0.00    +0.000 A 
ATOM     24  C   UNL     1       2.651   4.323  17.652  0.00  0.00    +0.000 A 
ATOM     25  C   UNL     1       1.337   4.067  18.047  0.00  0.00    +0.000 A 
ATOM     26  C   UNL     1       1.013   2.856  18.658  0.00  0.00    +0.000 A 
ATOM     27  C   UNL     1       2.002   1.895  18.871  0.00  0.00    +0.000 A 
ATOM     28  C   UNL     1       3.316   2.144  18.474  0.00  0.00    +0.000 A 
ENDBRANCH  22  23
ENDBRANCH  21  22
ENDBRANCH  18  21
ENDBRANCH   2  15
TORSDOF 7
ENDMDL
MODEL 4
REMARK VINA RESULT:      -8.2      0.592      1.421
REMARK  Name = 
REMARK  7 active torsions:
REMARK  status: ('A' for Active; 'I' for Inactive)
REMARK    1  A    between atoms: N_1  and  S_2
REMARK    2  A    between atoms: S_2  and  C_5
REMARK    3  A    between atoms: C_8  and  N_9
REMARK    4  A    between atoms: C_10  and  C_11
REMARK    5  A    between atoms: C_14  and  O_15
REMARK    6  A    between atoms: O_15  and  C_16
REMARK    7  A    between atoms: C_16  and  C_17
REMARK                            x       y       z     vdW  Elec       q    Type
REMARK                         _______ _______ _______ _____ _____    ______ ____
ROOT
ATOM      1  N   UNL     1       8.889   9.371  18.663  0.00  0.00    +0.000 NA
ATOM      2  C   UNL     1       7.987   9.014  17.806  0.00  0.00    +0.000 C 
ENDROOT
BRANCH   1   6
ATOM      3  C   UNL     1      10.335  13.307  18.490  0.00  0.00    +0.000 A 
ATOM      4  C   UNL     1       9.247  12.917  17.711  0.00  0.00    +0.000 A 
ATOM      5  C   UNL     1       8.793  11.599  17.791  0.00  0.00    +0.000 A 
ATOM      6  C   UNL     1       9.417  10.667  18.635  0.00  0.00    +0.000 A 
ATOM      7  C   UNL     1      10.488  11.090  19.429  0.00  0.00    +0.000 A 
ATOM      8  C   UNL     1      10.959  12.399  19.349  0.00  0.00    +0.000 A 
BRANCH   3   9
ATOM      9  S   UNL     1      10.914  14.976  18.434  0.00  0.00    +0.000 S 
ATOM     10  O   UNL     1      12.333  14.984  18.695  0.00  0.00    +0.000 OA
ATOM     11  O   UNL     1       9.990  15.830  19.141  0.00  0.00    +0.000 OA
BRANCH   9  12
ATOM     12  N   UNL     1      10.718  15.360  16.810  0.00  0.00    +0.000 NA
ATOM     13  H   UNL     1      10.638  16.373  16.710  0.00  0.00    +0.000 HD
ATOM     14  H   UNL     1       9.929  14.844  16.423  0.00  0.00    +0.000 HD
ENDBRANCH   9  12
ENDBRANCH   3   9
ENDBRANCH   1   6
BRANCH   2  15
ATOM     15  C   UNL     1       7.395   7.664  17.857  0.00  0.00    +0.000 A 
ATOM     16  C   UNL     1       7.970   6.696  18.683  0.00  0.00    +0.000 A 
ATOM     17  C   UNL     1       7.392   5.436  18.779  0.00  0.00    +0.000 A 
ATOM     18  C   UNL     1       6.224   5.145  18.071  0.00  0.00    +0.000 A 
ATOM     19  C   UNL     1       5.674   6.105  17.214  0.00  0.00    +0.000 A 
ATOM     20  C   UNL     1       6.255   7.371  17.108  0.00  0.00    +0.000 A 
BRANCH  18  21
ATOM     21  O   UNL     1       5.539   3.962  18.153  0.00  0.00    +0.000 OA
BRANCH  21  22
ATOM     22  C   UNL     1       4.161   4.044  17.782  0.00  0.00    +0.000 C 
BRANCH  22  23
ATOM     23  C   UNL     1       3.304   3.887  19.010  0.00  0.00    +0.000 A 
ATOM     24  C   UNL     1       3.550   2.852  19.920  0.00  0.00    +0.000 A 
ATOM     25  C   UNL     1       2.754   2.714  21.059  0.00  0.00    +0.000 A 
ATOM     26  C   UNL     1       1.708   3.606  21.294  0.00  0.00    +0.000 A 
ATOM     27  C   UNL     1       1.459   4.642  20.393  0.00  0.00    +0.000 A 
ATOM     28  C   UNL     1       2.254   4.786  19.256  0.00  0.00    +0.000 A 
ENDBRANCH  22  23
ENDBRANCH  21  22
ENDBRANCH  18  21
ENDBRANCH   2  15
TORSDOF 7
ENDMDL
MODEL 5
REMARK VINA RESULT:      -8.1      0.815      1.355
REMARK  Name = 
REMARK  7 active torsions:
REMARK  status: ('A' for Active; 'I' for Inactive)
REMARK    1  A    between atoms: N_1  and  S_2
REMARK    2  A    between atoms: S_2  and  C_5
REMARK    3  A    between atoms: C_8  and  N_9
REMARK    4  A    between atoms: C_10  and  C_11
REMARK    5  A    between atoms: C_14  and  O_15
REMARK    6  A    between atoms: O_15  and  C_16
REMARK    7  A    between atoms: C_16  and  C_17
REMARK                            x       y       z     vdW  Elec       q    Type
REMARK                         _______ _______ _______ _____ _____    ______ ____
ROOT
ATOM      1  N   UNL     1       8.674   9.656  18.633  0.00  0.00    +0.000 NA
ATOM      2  C   UNL     1       8.261   8.986  17.605  0.00  0.00    +0.000 C 
ENDROOT
BRANCH   1   6
ATOM      3  C   UNL     1      10.340  13.469  18.095  0.00  0.00    +0.000 A 
ATOM      4  C   UNL     1       9.020  13.215  17.729  0.00  0.00    +0.000 A 
ATOM      5  C   UNL     1       8.497  11.934  17.919  0.00  0.00    +0.000 A 
ATOM      6  C   UNL     1       9.281  10.906  18.465  0.00  0.00    +0.000 A 
ATOM      7  C   UNL     1      10.593  11.193  18.852  0.00  0.00    +0.000 A 
ATOM      8  C   UNL     1      11.132  12.464  18.656  0.00  0.00    +0.000 A 
BRANCH   3   9
ATOM      9  S   UNL     1      11.021  15.088  17.895  0.00  0.00    +0.000 S 
ATOM     10  O   UNL     1      12.333  14.970  17.304  0.00  0.00    +0.000 OA
ATOM     11  O   UNL     1      10.773  15.865  19.085  0.00  0.00    +0.000 OA
BRANCH   9  12
ATOM     12  N   UNL     1      10.018  15.747  16.719  0.00  0.00    +0.000 NA
ATOM     13  H   UNL     1       9.126  15.251  16.720  0.00  0.00    +0.000 HD
ATOM     14  H   UNL     1      10.490  15.743  15.815  0.00  0.00    +0.000 HD
ENDBRANCH   9  12
ENDBRANCH   3   9
ENDBRANCH   1   6
BRANCH   2  15
ATOM     15  C   UNL     1       7.582   7.689  17.778  0.00  0.00    +0.000 A 
ATOM     16  C   UNL     1       8.141   6.730  18.625  0.00  0.00    +0.000 A 
ATOM     17  C   UNL     1       7.485   5.524  18.835  0.00  0.00    +0.000 A 
ATOM     18  C   UNL     1       6.254   5.279  18.221  0.00  0.00    +0.000 A 
ATOM     19  C   UNL     1       5.717   6.225  17.341  0.00  0.00    +0.000 A 
ATOM     20  C   UNL     1       6.376   7.437  17.121  0.00  0.00    +0.000 A 
BRANCH  18  21
ATOM     21  O   UNL     1       5.496   4.156  18.419  0.00  0.00    +0.000 OA
BRANCH  21  22
ATOM     22  C   UNL     1       4.841   4.096  19.688  0.00  0.00    +0.000 C 
BRANCH  22  23
ATOM     23  C   UNL     1       3.406   3.686  19.489  0.00  0.00    +0.000 A 
ATOM     24  C   UNL     1       2.793   3.831  18.238  0.00  0.00    +0.000 A 
ATOM     25  C   UNL     1       1.463   3.446  18.059  0.00  0.00    +0.000 A 
ATOM     26  C   UNL     1       0.738   2.916  19.126  0.00  0.00    +0.000 A 
ATOM     27  C   UNL     1       1.343   2.765  20.374  0.00  0.00    +0.000 A 
ATOM     28  C   UNL     1       2.673   3.145  20.557  0.00  0.00    +0.000 A 
ENDBRANCH  22  23
ENDBRANCH  21  22
ENDBRANCH  18  21
ENDBRANCH   2  15
TORSDOF 7
ENDMDL
MODEL 6
REMARK VINA RESULT:      -8.0      1.234      1.787
REMARK  Name = 
REMARK  7 active torsions:
REMARK  status: ('A' for Active; 'I' for Inactive)
REMARK    1  A    between atoms: N_1  and  S_2
REMARK    2  A    between atoms: S_2  and  C_5
REMARK    3  A    between atoms: C_8  and  N_9
REMARK    4  A    between atoms: C_10  and  C_11
REMARK    5  A    between atoms: C_14  and  O_15
REMARK    6  A    between atoms: O_15  and  C_16
REMARK    7  A    between atoms: C_16  and  C_17
REMARK                            x       y       z     vdW  Elec       q    Type
REMARK                         _______ _______ _______ _____ _____    ______ ____
ROOT
ATOM      1  N   UNL     1       8.499   8.692  18.568  0.00  0.00    +0.000 NA
ATOM      2  C   UNL     1       7.505   8.531  17.755  0.00  0.00    +0.000 C 
ENDROOT
BRANCH   1   6
ATOM      3  C   UNL     1      10.064  12.558  19.033  0.00  0.00    +0.000 A 
ATOM      4  C   UNL     1       9.424  12.190  17.851  0.00  0.00    +0.000 A 
ATOM      5  C   UNL     1       8.917  10.894  17.729  0.00  0.00    +0.000 A 
ATOM      6  C   UNL     1       9.047   9.964  18.770  0.00  0.00    +0.000 A 
ATOM      7  C   UNL     1       9.666  10.365  19.958  0.00  0.00    +0.000 A 
ATOM      8  C   UNL     1      10.188  11.651  20.089  0.00  0.00    +0.000 A 
BRANCH   3   9
ATOM      9  S   UNL     1      10.690  14.199  19.231  0.00  0.00    +0.000 S 
ATOM     10  O   UNL     1      10.554  14.584  20.615  0.00  0.00    +0.000 OA
ATOM     11  O   UNL     1      10.223  15.026  18.144  0.00  0.00    +0.000 OA
BRANCH   9  12
ATOM     12  N   UNL     1      12.332  13.983  18.948  0.00  0.00    +0.000 NA
ATOM     13  H   UNL     1      12.625  14.588  18.180  0.00  0.00    +0.000 HD
ATOM     14  H   UNL     1      12.533  12.995  18.795  0.00  0.00    +0.000 HD
ENDBRANCH   9  12
ENDBRANCH   3   9
ENDBRANCH   1   6
BRANCH   2  15
ATOM     15  C   UNL     1       6.893   7.201  17.570  0.00  0.00    +0.000 A 
ATOM     16  C   UNL     1       7.409   6.108  18.269  0.00  0.00    +0.000 A 
ATOM     17  C   UNL     1       6.811   4.860  18.142  0.00  0.00    +0.000 A 
ATOM     18  C   UNL     1       5.680   4.704  17.338  0.00  0.00    +0.000 A 
ATOM     19  C   UNL     1       5.190   5.792  16.609  0.00  0.00    +0.000 A 
ATOM     20  C   UNL     1       5.793   7.048  16.727  0.00  0.00    +0.000 A 
BRANCH  18  21
ATOM     21  O   UNL     1       4.976   3.536  17.205  0.00  0.00    +0.000 OA
BRANCH  21  22
ATOM     22  C   UNL     1       3.560   3.702  17.101  0.00  0.00    +0.000 C 
BRANCH  22  23
ATOM     23  C   UNL     1       2.938   3.526  18.461  0.00  0.00    +0.000 A 
ATOM     24  C   UNL     1       3.611   2.817  19.464  0.00  0.00    +0.000 A 
ATOM     25  C   UNL     1       3.029   2.660  20.724  0.00  0.00    +0.000 A 
ATOM     26  C   UNL     1       1.775   3.208  20.988  0.00  0.00    +0.000 A 
ATOM     27  C   UNL     1       1.100   3.919  19.996  0.00  0.00    +0.000 A 
ATOM     28  C   UNL     1       1.679   4.082  18.736  0.00  0.00    +0.000 A 
ENDBRANCH  22  23
ENDBRANCH  21  22
ENDBRANCH  18  21
ENDBRANCH   2  15
TORSDOF 7
ENDMDL
MODEL 7
REMARK VINA RESULT:      -7.9      1.159      1.422
REMARK  Name = 
REMARK  7 active torsions:
REMARK  status: ('A' for Active; 'I' for Inactive)
REMARK    1  A    between atoms: N_1  and  S_2
REMARK    2  A    between atoms: S_2  and  C_5
REMARK    3  A    between atoms: C_8  and  N_9
REMARK    4  A    between atoms: C_10  and  C_11
REMARK    5  A    between atoms: C_14  and  O_15
REMARK    6  A    between atoms: O_15  and  C_16
REMARK    7  A    between atoms: C_16  and  C_17
REMARK                            x       y       z     vdW  Elec       q    Type
REMARK                         _______ _______ _______ _____ _____    ______ ____
ROOT
ATOM      1  N   UNL     1       8.189   8.647  18.323  0.00  0.00    +0.000 NA
ATOM      2  C   UNL     1       7.248   8.398  17.471  0.00  0.00    +0.000 C 
ENDROOT
BRANCH   1   6
ATOM      3  C   UNL     1       9.946  12.438  18.711  0.00  0.00    +0.000 A 
ATOM      4  C   UNL     1      10.328  11.392  19.548  0.00  0.00    +0.000 A 
ATOM      5  C   UNL     1       9.721  10.143  19.394  0.00  0.00    +0.000 A 
ATOM      6  C   UNL     1       8.735   9.932  18.418  0.00  0.00    +0.000 A 
ATOM      7  C   UNL     1       8.390  10.989  17.570  0.00  0.00    +0.000 A 
ATOM      8  C   UNL     1       8.979  12.244  17.722  0.00  0.00    +0.000 A 
BRANCH   3   9
ATOM      9  S   UNL     1      10.716  14.022  18.862  0.00  0.00    +0.000 S 
ATOM     10  O   UNL     1      12.133  13.832  19.054  0.00  0.00    +0.000 OA
ATOM     11  O   UNL     1       9.920  14.864  19.724  0.00  0.00    +0.000 OA
BRANCH   9  12
ATOM     12  N   UNL     1      10.517  14.656  17.318  0.00  0.00    +0.000 NA
ATOM     13  H   UNL     1       9.897  14.048  16.781  0.00  0.00    +0.000 HD
ATOM     14  H   UNL     1      11.426  14.805  16.883  0.00  0.00    +0.000 HD
ENDBRANCH   9  12
ENDBRANCH   3   9
ENDBRANCH   1   6
BRANCH   2  15
ATOM     15  C   UNL     1       6.637   7.057  17.396  0.00  0.00    +0.000 A 
ATOM     16  C   UNL     1       7.119   6.039  18.222  0.00  0.00    +0.000 A 
ATOM     17  C   UNL     1       6.520   4.786  18.197  0.00  0.00    +0.000 A 
ATOM     18  C   UNL     1       5.421   4.550  17.368  0.00  0.00    +0.000 A 
ATOM     19  C   UNL     1       4.967   5.561  16.513  0.00  0.00    +0.000 A 
ATOM     20  C   UNL     1       5.570   6.821  16.528  0.00  0.00    +0.000 A 
BRANCH  18  21
ATOM     21  O   UNL     1       4.717   3.377  17.324  0.00  0.00    +0.000 OA
BRANCH  21  22
ATOM     22  C   UNL     1       3.310   3.532  17.126  0.00  0.00    +0.000 C 
BRANCH  22  23
ATOM     23  C   UNL     1       2.619   3.557  18.463  0.00  0.00    +0.000 A 
ATOM     24  C   UNL     1       2.369   2.366  19.156  0.00  0.00    +0.000 A 
ATOM     25  C   UNL     1       1.730   2.397  20.397  0.00  0.00    +0.000 A 
ATOM     26  C   UNL     1       1.337   3.614  20.952  0.00  0.00    +0.000 A 
ATOM     27  C   UNL     1       1.585   4.805  20.269  0.00  0.00    +0.000 A 
ATOM     28  C   UNL     1       2.227   4.780  19.030  0.00  0.00    +0.000 A 
ENDBRANCH  22  23
ENDBRANCH  21  22
ENDBRANCH  18  21
ENDBRANCH   2  15
TORSDOF 7
ENDMDL
MODEL 8
REMARK VINA RESULT:      -7.9      1.354      2.002
REMARK  Name = 
REMARK  7 active torsions:
REMARK  status: ('A' for Active; 'I' for Inactive)
REMARK    1  A    between atoms: N_1  and  S_2
REMARK    2  A    between atoms: S_2  and  C_5
REMARK    3  A    between atoms: C_8  and  N_9
REMARK    4  A    between atoms: C_10  and  C_11
REMARK    5  A    between atoms: C_14  and  O_15
REMARK    6  A    between atoms: O_15  and  C_16
REMARK    7  A    between atoms: C_16  and  C_17
REMARK                            x       y       z     vdW  Elec       q    Type
REMARK                         _______ _______ _______ _____ _____    ______ ____
ROOT
ATOM      1  N   UNL     1       8.911   9.637  18.922  0.00  0.00    +0.000 NA
ATOM      2  C   UNL     1       8.387   9.148  17.845  0.00  0.00    +0.000 C 
ENDROOT
BRANCH   1   6
ATOM      3  C   UNL     1      10.800  13.384  19.012  0.00  0.00    +0.000 A 
ATOM      4  C   UNL     1      10.876  12.526  20.107  0.00  0.00    +0.000 A 
ATOM      5  C   UNL     1      10.234  11.287  20.045  0.00  0.00    +0.000 A 
ATOM      6  C   UNL     1       9.513  10.901  18.904  0.00  0.00    +0.000 A 
ATOM      7  C   UNL     1       9.476  11.766  17.807  0.00  0.00    +0.000 A 
ATOM      8  C   UNL     1      10.102  13.011  17.860  0.00  0.00    +0.000 A 
BRANCH   3   9
ATOM      9  S   UNL     1      11.627  14.945  19.048  0.00  0.00    +0.000 S 
ATOM     10  O   UNL     1      12.316  15.135  17.795  0.00  0.00    +0.000 OA
ATOM     11  O   UNL     1      12.277  15.116  20.326  0.00  0.00    +0.000 OA
BRANCH   9  12
ATOM     12  N   UNL     1      10.338  16.024  19.060  0.00  0.00    +0.000 NA
ATOM     13  H   UNL     1      10.561  16.823  18.466  0.00  0.00    +0.000 HD
ATOM     14  H   UNL     1      10.103  16.275  20.019  0.00  0.00    +0.000 HD
ENDBRANCH   9  12
ENDBRANCH   3   9
ENDBRANCH   1   6
BRANCH   2  15
ATOM     15  C   UNL     1       7.713   7.837  17.867  0.00  0.00    +0.000 A 
ATOM     16  C   UNL     1       6.633   7.608  17.011  0.00  0.00    +0.000 A 
ATOM     17  C   UNL     1       6.021   6.361  16.986  0.00  0.00    +0.000 A 
ATOM     18  C   UNL     1       6.500   5.329  17.796  0.00  0.00    +0.000 A 
ATOM     19  C   UNL     1       7.556   5.573  18.681  0.00  0.00    +0.000 A 
ATOM     20  C   UNL     1       8.170   6.828  18.715  0.00  0.00    +0.000 A 
BRANCH  18  21
ATOM     21  O   UNL     1       6.015   4.048  17.792  0.00  0.00    +0.000 OA
BRANCH  21  22
ATOM     22  C   UNL     1       4.942   3.819  16.876  0.00  0.00    +0.000 C 
BRANCH  22  23
ATOM     23  C   UNL     1       3.684   3.520  17.648  0.00  0.00    +0.000 A 
ATOM     24  C   UNL     1       3.584   2.355  18.420  0.00  0.00    +0.000 A 
ATOM     25  C   UNL     1       2.416   2.085  19.135  0.00  0.00    +0.000 A 
ATOM     26  C   UNL     1       1.343   2.973  19.083  0.00  0.00    +0.000 A 
ATOM     27  C   UNL     1       1.436   4.137  18.319  0.00  0.00    +0.000 A 
ATOM     28  C   UNL     1       2.602   4.414  17.605  0.00  0.00    +0.000 A 
ENDBRANCH  22  23
ENDBRANCH  21  22
ENDBRANCH  18  21
ENDBRANCH   2  15
TORSDOF 7
ENDMDL
MODEL 9
REMARK VINA RESULT:      -7.8      1.388      1.611
REMARK  Name = 
REMARK  7 active torsions:
REMARK  status: ('A' for Active; 'I' for Inactive)
REMARK    1  A    between atoms: N_1  and  S_2
REMARK    2  A    between atoms: S_2  and  C_5
REMARK    3  A    between atoms: C_8  and  N_9
REMARK    4  A    between atoms: C_10  and  C_11
REMARK    5  A    between atoms: C_14  and  O_15
REMARK    6  A    between atoms: O_15  and  C_16
REMARK    7  A    between atoms: C_16  and  C_17
REMARK                            x       y       z     vdW  Elec       q    Type
REMARK                         _______ _______ _______ _____ _____    ______ ____
ROOT
ATOM      1  N   UNL     1       8.905   9.831  18.710  0.00  0.00    +0.000 NA
ATOM      2  C   UNL     1       8.420   9.156  17.718  0.00  0.00    +0.000 C 
ENDROOT
BRANCH   1   6
ATOM      3  C   UNL     1      10.413  13.706  18.145  0.00  0.00    +0.000 A 
ATOM      4  C   UNL     1      11.260  12.664  18.516  0.00  0.00    +0.000 A 
ATOM      5  C   UNL     1      10.725  11.386  18.698  0.00  0.00    +0.000 A 
ATOM      6  C   UNL     1       9.355  11.143  18.519  0.00  0.00    +0.000 A 
ATOM      7  C   UNL     1       8.530  12.198  18.118  0.00  0.00    +0.000 A 
ATOM      8  C   UNL     1       9.049  13.481  17.945  0.00  0.00    +0.000 A 
BRANCH   3   9
ATOM      9  S   UNL     1      11.065  15.327  17.878  0.00  0.00    +0.000 S 
ATOM     10  O   UNL     1      12.333  15.212  17.200  0.00  0.00    +0.000 OA
ATOM     11  O   UNL     1      10.892  16.118  19.073  0.00  0.00    +0.000 OA
BRANCH   9  12
ATOM     12  N   UNL     1       9.977  15.962  16.766  0.00  0.00    +0.000 NA
ATOM     13  H   UNL     1      10.277  15.715  15.822  0.00  0.00    +0.000 HD
ATOM     14  H   UNL     1       9.871  16.965  16.915  0.00  0.00    +0.000 HD
ENDBRANCH   9  12
ENDBRANCH   3   9
ENDBRANCH   1   6
BRANCH   2  15
ATOM     15  C   UNL     1       7.904   7.789  17.921  0.00  0.00    +0.000 A 
ATOM     16  C   UNL     1       8.322   7.058  19.035  0.00  0.00    +0.000 A 
ATOM     17  C   UNL     1       7.804   5.789  19.265  0.00  0.00    +0.000 A 
ATOM     18  C   UNL     1       6.849   5.254  18.398  0.00  0.00    +0.000 A 
ATOM     19  C   UNL     1       6.463   5.973  17.261  0.00  0.00    +0.000 A 
ATOM     20  C   UNL     1       6.986   7.247  17.021  0.00  0.00    +0.000 A 
BRANCH  18  21
ATOM     21  O   UNL     1       6.227   4.047  18.575  0.00  0.00    +0.000 OA
BRANCH  21  22
ATOM     22  C   UNL     1       5.190   4.050  19.559  0.00  0.00    +0.000 C 
BRANCH  22  23
ATOM     23  C   UNL     1       3.852   4.101  18.871  0.00  0.00    +0.000 A 
ATOM     24  C   UNL     1       3.359   2.979  18.191  0.00  0.00    +0.000 A 
ATOM     25  C   UNL     1       2.116   3.032  17.558  0.00  0.00    +0.000 A 
ATOM     26  C   UNL     1       1.359   4.202  17.598  0.00  0.00    +0.000 A 
ATOM     27  C   UNL     1       1.841   5.322  18.276  0.00  0.00    +0.000 A 
ATOM     28  C   UNL     1       3.082   5.274  18.914  0.00  0.00    +0.000 A 
ENDBRANCH  22  23
ENDBRANCH  21  22
ENDBRANCH  18  21
ENDBRANCH   2  15
TORSDOF 7
ENDMDL
