MODEL 1
REMARK VINA RESULT:      -7.9      0.000      0.000
REMARK  Name = 
REMARK  6 active torsions:
REMARK  status: ('A' for Active; 'I' for Inactive)
REMARK    1  A    between atoms: C_1  and  O_2
REMARK    2  A    between atoms: O_2  and  C_3
REMARK    3  A    between atoms: C_8  and  O_9
REMARK    4  A    between atoms: O_9  and  C_10
REMARK    5  A    between atoms: C_14  and  C_15
REMARK    6  A    between atoms: C_15  and  C_16
REMARK                            x       y       z     vdW  Elec       q    Type
REMARK                         _______ _______ _______ _____ _____    ______ ____
ROOT
ATOM      1  C   UNL     1       5.878   5.153  17.306  0.00  0.00    +0.000 A 
ATOM      2  C   UNL     1       7.105   4.600  16.985  0.00  0.00    +0.000 A 
ATOM      3  N   UNL     1       7.956   4.084  17.970  0.00  0.00    +0.000 N 
ATOM      4  N   UNL     1       7.629   4.617  15.747  0.00  0.00    +0.000 NA
ATOM      5  C   UNL     1       6.910   5.234  14.790  0.00  0.00    +0.000 A 
ATOM      6  N   UNL     1       5.798   5.941  15.021  0.00  0.00    +0.000 NA
ATOM      7  C   UNL     1       5.325   5.902  16.285  0.00  0.00    +0.000 A 
ATOM      8 CL   UNL     1       4.032   7.026  16.498  0.00  0.00    +0.000 Cl
ATOM      9  H   UNL     1       7.480   3.433  18.583  0.00  0.00    +0.000 HD
ATOM     10  H   UNL     1       8.781   3.700  17.521  0.00  0.00    +0.000 HD
ENDROOT
BRANCH   1  11
ATOM     11  O   UNL     1       5.421   4.979  18.580  0.00  0.00    +0.000 OA
BRANCH  11  17
ATOM     12  C   UNL     1       3.124   4.879  19.573  0.00  0.00    +0.000 A 
ATOM     13  C   UNL     1       2.021   4.043  19.812  0.00  0.00    +0.000 A 
ATOM     14  C   UNL     1       1.972   2.750  19.283  0.00  0.00    +0.000 A 
ATOM     15  C   UNL     1       3.010   2.279  18.490  0.00  0.00    +0.000 A 
ATOM     16  C   UNL     1       4.126   3.083  18.275  0.00  0.00    +0.000 A 
ATOM     17  C   UNL     1       4.217   4.358  18.850  0.00  0.00    +0.000 A 
BRANCH  12  19
ATOM     18  C   UNL     1       2.231   7.099  19.541  0.00  0.00    +0.000 C 
ATOM     19  O   UNL     1       3.205   6.173  20.014  0.00  0.00    +0.000 OA
ENDBRANCH  12  19
ENDBRANCH  11  17
ENDBRANCH   1  11
BRANCH   5  20
ATOM     20  C   UNL     1       7.386   5.111  13.364  0.00  0.00    +0.000 C 
BRANCH  20  21
ATOM     21  C   UNL     1       6.722   3.980  12.603  0.00  0.00    +0.000 A 
ATOM     22  C   UNL     1       7.493   3.022  11.932  0.00  0.00    +0.000 A 
ATOM     23  C   UNL     1       6.880   1.975  11.242  0.00  0.00    +0.000 A 
ATOM     24  C   UNL     1       5.488   1.884  11.204  0.00  0.00    +0.000 A 
ATOM     25  C   UNL     1       4.711   2.843  11.846  0.00  0.00    +0.000 A 
ATOM     26  C   UNL     1       5.324   3.890  12.541  0.00  0.00    +0.000 A 
ENDBRANCH  20  21
ENDBRANCH   5  20
TORSDOF 5
ENDMDL
MODEL 2
REMARK VINA RESULT:      -7.9      0.300      1.029
REMARK  Name = 
REMARK  6 active torsions:
REMARK  status: ('A' for Active; 'I' for Inactive)
REMARK    1  A    between atoms: C_1  and  O_2
REMARK    2  A    between atoms: O_2  and  C_3
REMARK    3  A    between atoms: C_8  and  O_9
REMARK    4  A    between atoms: O_9  and  C_10
REMARK    5  A    between atoms: C_14  and  C_15
REMARK    6  A    between atoms: C_15  and  C_16
REMARK                            x       y       z     vdW  Elec       q    Type
REMARK                         _______ _______ _______ _____ _____    ______ ____
ROOT
ATOM      1  C   UNL     1       5.863   5.249  17.292  0.00  0.00    +0.000 A 
ATOM      2  C   UNL     1       7.068   4.634  16.998  0.00  0.00    +0.000 A 
ATOM      3  N   UNL     1       7.885   4.106  18.005  0.00  0.00    +0.000 N 
ATOM      4  N   UNL     1       7.604   4.597  15.766  0.00  0.00    +0.000 NA
ATOM      5  C   UNL     1       6.924   5.221  14.786  0.00  0.00    +0.000 A 
ATOM      6  N   UNL     1       5.841   5.981  14.988  0.00  0.00    +0.000 NA
ATOM      7  C   UNL     1       5.355   5.996  16.247  0.00  0.00    +0.000 A 
ATOM      8 CL   UNL     1       4.110   7.180  16.418  0.00  0.00    +0.000 Cl
ATOM      9  H   UNL     1       7.375   3.492  18.629  0.00  0.00    +0.000 HD
ATOM     10  H   UNL     1       8.697   3.674  17.575  0.00  0.00    +0.000 HD
ENDROOT
BRANCH   1  11
ATOM     11  O   UNL     1       5.387   5.126  18.565  0.00  0.00    +0.000 OA
BRANCH  11  17
ATOM     12  C   UNL     1       2.999   5.244  19.312  0.00  0.00    +0.000 A 
ATOM     13  C   UNL     1       1.859   4.480  19.609  0.00  0.00    +0.000 A 
ATOM     14  C   UNL     1       1.834   3.103  19.369  0.00  0.00    +0.000 A 
ATOM     15  C   UNL     1       2.936   2.471  18.808  0.00  0.00    +0.000 A 
ATOM     16  C   UNL     1       4.087   3.210  18.542  0.00  0.00    +0.000 A 
ATOM     17  C   UNL     1       4.147   4.579  18.836  0.00  0.00    +0.000 A 
BRANCH  12  19
ATOM     18  C   UNL     1       1.992   7.244  20.155  0.00  0.00    +0.000 C 
ATOM     19  O   UNL     1       3.064   6.604  19.470  0.00  0.00    +0.000 OA
ENDBRANCH  12  19
ENDBRANCH  11  17
ENDBRANCH   1  11
BRANCH   5  20
ATOM     20  C   UNL     1       7.408   5.041  13.369  0.00  0.00    +0.000 C 
BRANCH  20  21
ATOM     21  C   UNL     1       6.657   3.966  12.609  0.00  0.00    +0.000 A 
ATOM     22  C   UNL     1       5.256   3.966  12.569  0.00  0.00    +0.000 A 
ATOM     23  C   UNL     1       4.568   2.982  11.859  0.00  0.00    +0.000 A 
ATOM     24  C   UNL     1       5.272   1.978  11.194  0.00  0.00    +0.000 A 
ATOM     25  C   UNL     1       6.662   1.953  11.246  0.00  0.00    +0.000 A 
ATOM     26  C   UNL     1       7.354   2.941  11.954  0.00  0.00    +0.000 A 
ENDBRANCH  20  21
ENDBRANCH   5  20
TORSDOF 5
ENDMDL
MODEL 3
REMARK VINA RESULT:      -7.9      0.822      1.916
REMARK  Name = 
REMARK  6 active torsions:
REMARK  status: ('A' for Active; 'I' for Inactive)
REMARK    1  A    between atoms: C_1  and  O_2
REMARK    2  A    between atoms: O_2  and  C_3
REMARK    3  A    between atoms: C_8  and  O_9
REMARK    4  A    between atoms: O_9  and  C_10
REMARK    5  A    between atoms: C_14  and  C_15
REMARK    6  A    between atoms: C_15  and  C_16
REMARK                            x       y       z     vdW  Elec       q    Type
REMARK                         _______ _______ _______ _____ _____    ______ ____
ROOT
ATOM      1  C   UNL     1       5.872   5.169  17.437  0.00  0.00    +0.000 A 
ATOM      2  C   UNL     1       7.098   4.616  17.113  0.00  0.00    +0.000 A 
ATOM      3  N   UNL     1       7.953   4.104  18.097  0.00  0.00    +0.000 N 
ATOM      4  N   UNL     1       7.617   4.630  15.873  0.00  0.00    +0.000 NA
ATOM      5  C   UNL     1       6.895   5.244  14.917  0.00  0.00    +0.000 A 
ATOM      6  N   UNL     1       5.783   5.950  15.150  0.00  0.00    +0.000 NA
ATOM      7  C   UNL     1       5.315   5.915  16.416  0.00  0.00    +0.000 A 
ATOM      8 CL   UNL     1       4.021   7.038  16.630  0.00  0.00    +0.000 Cl
ATOM      9  H   UNL     1       7.480   3.454  18.714  0.00  0.00    +0.000 HD
ATOM     10  H   UNL     1       8.777   3.719  17.646  0.00  0.00    +0.000 HD
ENDROOT
BRANCH   1  11
ATOM     11  O   UNL     1       5.420   4.998  18.713  0.00  0.00    +0.000 OA
BRANCH  11  17
ATOM     12  C   UNL     1       3.343   3.604  18.592  0.00  0.00    +0.000 A 
ATOM     13  C   UNL     1       1.975   3.567  18.908  0.00  0.00    +0.000 A 
ATOM     14  C   UNL     1       1.385   4.582  19.667  0.00  0.00    +0.000 A 
ATOM     15  C   UNL     1       2.154   5.638  20.141  0.00  0.00    +0.000 A 
ATOM     16  C   UNL     1       3.504   5.706  19.804  0.00  0.00    +0.000 A 
ATOM     17  C   UNL     1       4.094   4.728  18.993  0.00  0.00    +0.000 A 
BRANCH  12  19
ATOM     18  C   UNL     1       3.829   1.273  18.361  0.00  0.00    +0.000 C 
ATOM     19  O   UNL     1       3.989   2.612  17.903  0.00  0.00    +0.000 OA
ENDBRANCH  12  19
ENDBRANCH  11  17
ENDBRANCH   1  11
BRANCH   5  20
ATOM     20  C   UNL     1       7.366   5.116  13.489  0.00  0.00    +0.000 C 
BRANCH  20  21
ATOM     21  C   UNL     1       6.636   4.041  12.709  0.00  0.00    +0.000 A 
ATOM     22  C   UNL     1       7.350   3.068  11.997  0.00  0.00    +0.000 A 
ATOM     23  C   UNL     1       6.676   2.073  11.287  0.00  0.00    +0.000 A 
ATOM     24  C   UNL     1       5.281   2.049  11.271  0.00  0.00    +0.000 A 
ATOM     25  C   UNL     1       4.561   3.024  11.954  0.00  0.00    +0.000 A 
ATOM     26  C   UNL     1       5.235   4.020  12.668  0.00  0.00    +0.000 A 
ENDBRANCH  20  21
ENDBRANCH   5  20
TORSDOF 5
ENDMDL
MODEL 4
REMARK VINA RESULT:      -7.8      1.023      1.800
REMARK  Name = 
REMARK  6 active torsions:
REMARK  status: ('A' for Active; 'I' for Inactive)
REMARK    1  A    between atoms: C_1  and  O_2
REMARK    2  A    between atoms: O_2  and  C_3
REMARK    3  A    between atoms: C_8  and  O_9
REMARK    4  A    between atoms: O_9  and  C_10
REMARK    5  A    between atoms: C_14  and  C_15
REMARK    6  A    between atoms: C_15  and  C_16
REMARK                            x       y       z     vdW  Elec       q    Type
REMARK                         _______ _______ _______ _____ _____    ______ ____
ROOT
ATOM      1  C   UNL     1       5.445   5.378  17.351  0.00  0.00    +0.000 A 
ATOM      2  C   UNL     1       6.622   4.670  17.182  0.00  0.00    +0.000 A 
ATOM      3  N   UNL     1       7.278   4.073  18.265  0.00  0.00    +0.000 N 
ATOM      4  N   UNL     1       7.286   4.597  16.016  0.00  0.00    +0.000 NA
ATOM      5  C   UNL     1       6.769   5.279  14.976  0.00  0.00    +0.000 A 
ATOM      6  N   UNL     1       5.734   6.122  15.069  0.00  0.00    +0.000 NA
ATOM      7  C   UNL     1       5.115   6.169  16.267  0.00  0.00    +0.000 A 
ATOM      8 CL   UNL     1       3.957   7.449  16.317  0.00  0.00    +0.000 Cl
ATOM      9  H   UNL     1       6.655   3.499  18.821  0.00  0.00    +0.000 HD
ATOM     10  H   UNL     1       8.096   3.580  17.920  0.00  0.00    +0.000 HD
ENDROOT
BRANCH   1  11
ATOM     11  O   UNL     1       4.822   5.288  18.562  0.00  0.00    +0.000 OA
BRANCH  11  17
ATOM     12  C   UNL     1       3.835   3.136  19.377  0.00  0.00    +0.000 A 
ATOM     13  C   UNL     1       2.660   2.369  19.430  0.00  0.00    +0.000 A 
ATOM     14  C   UNL     1       1.443   2.887  18.978  0.00  0.00    +0.000 A 
ATOM     15  C   UNL     1       1.374   4.184  18.488  0.00  0.00    +0.000 A 
ATOM     16  C   UNL     1       2.538   4.943  18.395  0.00  0.00    +0.000 A 
ATOM     17  C   UNL     1       3.775   4.415  18.787  0.00  0.00    +0.000 A 
BRANCH  12  19
ATOM     18  C   UNL     1       5.051   1.573  20.721  0.00  0.00    +0.000 C 
ATOM     19  O   UNL     1       5.044   2.706  19.857  0.00  0.00    +0.000 OA
ENDBRANCH  12  19
ENDBRANCH  11  17
ENDBRANCH   1  11
BRANCH   5  20
ATOM     20  C   UNL     1       7.390   5.067  13.618  0.00  0.00    +0.000 C 
BRANCH  20  21
ATOM     21  C   UNL     1       6.664   4.036  12.778  0.00  0.00    +0.000 A 
ATOM     22  C   UNL     1       7.379   3.148  11.963  0.00  0.00    +0.000 A 
ATOM     23  C   UNL     1       6.709   2.192  11.198  0.00  0.00    +0.000 A 
ATOM     24  C   UNL     1       5.316   2.123  11.229  0.00  0.00    +0.000 A 
ATOM     25  C   UNL     1       4.594   3.015  12.016  0.00  0.00    +0.000 A 
ATOM     26  C   UNL     1       5.264   3.971  12.785  0.00  0.00    +0.000 A 
ENDBRANCH  20  21
ENDBRANCH   5  20
TORSDOF 5
ENDMDL
MODEL 5
REMARK VINA RESULT:      -7.8      4.333      8.119
REMARK  Name = 
REMARK  6 active torsions:
REMARK  status: ('A' for Active; 'I' for Inactive)
REMARK    1  A    between atoms: C_1  and  O_2
REMARK    2  A    between atoms: O_2  and  C_3
REMARK    3  A    between atoms: C_8  and  O_9
REMARK    4  A    between atoms: O_9  and  C_10
REMARK    5  A    between atoms: C_14  and  C_15
REMARK    6  A    between atoms: C_15  and  C_16
REMARK                            x       y       z     vdW  Elec       q    Type
REMARK                         _______ _______ _______ _____ _____    ______ ____
ROOT
ATOM      1  C   UNL     1       2.247   7.688  19.409  0.00  0.00    +0.000 A 
ATOM      2  C   UNL     1       2.556   8.264  18.189  0.00  0.00    +0.000 A 
ATOM      3  N   UNL     1       3.596   7.773  17.390  0.00  0.00    +0.000 N 
ATOM      4  N   UNL     1       1.980   9.388  17.729  0.00  0.00    +0.000 NA
ATOM      5  C   UNL     1       1.074   9.981  18.530  0.00  0.00    +0.000 A 
ATOM      6  N   UNL     1       0.822   9.605  19.789  0.00  0.00    +0.000 NA
ATOM      7  C   UNL     1       1.440   8.479  20.205  0.00  0.00    +0.000 A 
ATOM      8 CL   UNL     1       1.213   8.236  21.899  0.00  0.00    +0.000 Cl
ATOM      9  H   UNL     1       3.528   6.773  17.246  0.00  0.00    +0.000 HD
ATOM     10  H   UNL     1       3.631   8.312  16.531  0.00  0.00    +0.000 HD
ENDROOT
BRANCH   1  11
ATOM     11  O   UNL     1       2.834   6.494  19.710  0.00  0.00    +0.000 OA
BRANCH  11  17
ATOM     12  C   UNL     1       2.341   4.507  18.268  0.00  0.00    +0.000 A 
ATOM     13  C   UNL     1       1.557   3.347  18.155  0.00  0.00    +0.000 A 
ATOM     14  C   UNL     1       0.735   2.930  19.206  0.00  0.00    +0.000 A 
ATOM     15  C   UNL     1       0.699   3.650  20.393  0.00  0.00    +0.000 A 
ATOM     16  C   UNL     1       1.442   4.823  20.505  0.00  0.00    +0.000 A 
ATOM     17  C   UNL     1       2.222   5.285  19.437  0.00  0.00    +0.000 A 
BRANCH  12  19
ATOM     18  C   UNL     1       4.388   4.167  17.077  0.00  0.00    +0.000 C 
ATOM     19  O   UNL     1       3.208   4.934  17.297  0.00  0.00    +0.000 OA
ENDBRANCH  12  19
ENDBRANCH  11  17
ENDBRANCH   1  11
BRANCH   5  20
ATOM     20  C   UNL     1       0.285  11.135  17.965  0.00  0.00    +0.000 C 
BRANCH  20  21
ATOM     21  C   UNL     1      -1.210  10.884  17.932  0.00  0.00    +0.000 A 
ATOM     22  C   UNL     1      -1.736   9.808  17.205  0.00  0.00    +0.000 A 
ATOM     23  C   UNL     1      -3.112   9.572  17.185  0.00  0.00    +0.000 A 
ATOM     24  C   UNL     1      -3.976  10.418  17.880  0.00  0.00    +0.000 A 
ATOM     25  C   UNL     1      -3.467  11.504  18.586  0.00  0.00    +0.000 A 
ATOM     26  C   UNL     1      -2.090  11.740  18.610  0.00  0.00    +0.000 A 
ENDBRANCH  20  21
ENDBRANCH   5  20
TORSDOF 5
ENDMDL
MODEL 6
REMARK VINA RESULT:      -7.7      1.370      1.770
REMARK  Name = 
REMARK  6 active torsions:
REMARK  status: ('A' for Active; 'I' for Inactive)
REMARK    1  A    between atoms: C_1  and  O_2
REMARK    2  A    between atoms: O_2  and  C_3
REMARK    3  A    between atoms: C_8  and  O_9
REMARK    4  A    between atoms: O_9  and  C_10
REMARK    5  A    between atoms: C_14  and  C_15
REMARK    6  A    between atoms: C_15  and  C_16
REMARK                            x       y       z     vdW  Elec       q    Type
REMARK                         _______ _______ _______ _____ _____    ______ ____
ROOT
ATOM      1  C   UNL     1       5.623   4.001  17.873  0.00  0.00    +0.000 A 
ATOM      2  C   UNL     1       6.827   4.632  17.613  0.00  0.00    +0.000 A 
ATOM      3  N   UNL     1       7.630   5.131  18.646  0.00  0.00    +0.000 N 
ATOM      4  N   UNL     1       7.265   4.920  16.375  0.00  0.00    +0.000 NA
ATOM      5  C   UNL     1       6.456   4.588  15.351  0.00  0.00    +0.000 A 
ATOM      6  N   UNL     1       5.208   4.128  15.495  0.00  0.00    +0.000 NA
ATOM      7  C   UNL     1       4.815   3.872  16.760  0.00  0.00    +0.000 A 
ATOM      8 CL   UNL     1       3.129   3.507  16.824  0.00  0.00    +0.000 Cl
ATOM      9  H   UNL     1       7.798   4.441  19.368  0.00  0.00    +0.000 HD
ATOM     10  H   UNL     1       8.476   5.522  18.243  0.00  0.00    +0.000 HD
ENDROOT
BRANCH   1  11
ATOM     11  O   UNL     1       5.347   3.679  19.170  0.00  0.00    +0.000 OA
BRANCH  11  17
ATOM     12  C   UNL     1       3.359   5.060  19.813  0.00  0.00    +0.000 A 
ATOM     13  C   UNL     1       2.132   5.042  20.495  0.00  0.00    +0.000 A 
ATOM     14  C   UNL     1       1.610   3.850  21.006  0.00  0.00    +0.000 A 
ATOM     15  C   UNL     1       2.293   2.654  20.825  0.00  0.00    +0.000 A 
ATOM     16  C   UNL     1       3.529   2.662  20.183  0.00  0.00    +0.000 A 
ATOM     17  C   UNL     1       4.092   3.859  19.720  0.00  0.00    +0.000 A 
BRANCH  12  19
ATOM     18  C   UNL     1       3.084   6.906  18.316  0.00  0.00    +0.000 C 
ATOM     19  O   UNL     1       3.892   6.184  19.239  0.00  0.00    +0.000 OA
ENDBRANCH  12  19
ENDBRANCH  11  17
ENDBRANCH   1  11
BRANCH   5  20
ATOM     20  C   UNL     1       6.999   4.735  13.951  0.00  0.00    +0.000 C 
BRANCH  20  21
ATOM     21  C   UNL     1       6.300   3.850  12.938  0.00  0.00    +0.000 A 
ATOM     22  C   UNL     1       4.949   4.051  12.627  0.00  0.00    +0.000 A 
ATOM     23  C   UNL     1       4.310   3.241  11.687  0.00  0.00    +0.000 A 
ATOM     24  C   UNL     1       5.013   2.213  11.058  0.00  0.00    +0.000 A 
ATOM     25  C   UNL     1       6.348   1.988  11.376  0.00  0.00    +0.000 A 
ATOM     26  C   UNL     1       6.990   2.800  12.316  0.00  0.00    +0.000 A 
ENDBRANCH  20  21
ENDBRANCH   5  20
TORSDOF 5
ENDMDL
MODEL 7
REMARK VINA RESULT:      -7.6      5.859      8.636
REMARK  Name = 
REMARK  6 active torsions:
REMARK  status: ('A' for Active; 'I' for Inactive)
REMARK    1  A    between atoms: C_1  and  O_2
REMARK    2  A    between atoms: O_2  and  C_3
REMARK    3  A    between atoms: C_8  and  O_9
REMARK    4  A    between atoms: O_9  and  C_10
REMARK    5  A    between atoms: C_14  and  C_15
REMARK    6  A    between atoms: C_15  and  C_16
REMARK                            x       y       z     vdW  Elec       q    Type
REMARK                         _______ _______ _______ _____ _____    ______ ____
ROOT
ATOM      1  C   UNL     1       0.818  10.004  19.862  0.00  0.00    +0.000 A 
ATOM      2  C   UNL     1       1.512   9.496  18.777  0.00  0.00    +0.000 A 
ATOM      3  N   UNL     1       1.516  10.151  17.540  0.00  0.00    +0.000 N 
ATOM      4  N   UNL     1       2.127   8.301  18.780  0.00  0.00    +0.000 NA
ATOM      5  C   UNL     1       2.026   7.566  19.904  0.00  0.00    +0.000 A 
ATOM      6  N   UNL     1       1.248   7.885  20.945  0.00  0.00    +0.000 NA
ATOM      7  C   UNL     1       0.641   9.089  20.882  0.00  0.00    +0.000 A 
ATOM      8 CL   UNL     1      -0.498   9.277  22.165  0.00  0.00    +0.000 Cl
ATOM      9  H   UNL     1       1.761  11.130  17.626  0.00  0.00    +0.000 HD
ATOM     10  H   UNL     1       2.108   9.633  16.897  0.00  0.00    +0.000 HD
ENDROOT
BRANCH   1  11
ATOM     11  O   UNL     1       0.326  11.272  19.758  0.00  0.00    +0.000 OA
BRANCH  11  17
ATOM     12  C   UNL     1      -1.905  11.131  18.629  0.00  0.00    +0.000 A 
ATOM     13  C   UNL     1      -3.236  11.576  18.676  0.00  0.00    +0.000 A 
ATOM     14  C   UNL     1      -3.704  12.332  19.756  0.00  0.00    +0.000 A 
ATOM     15  C   UNL     1      -2.858  12.636  20.814  0.00  0.00    +0.000 A 
ATOM     16  C   UNL     1      -1.526  12.233  20.764  0.00  0.00    +0.000 A 
ATOM     17  C   UNL     1      -1.028  11.529  19.660  0.00  0.00    +0.000 A 
BRANCH  12  19
ATOM     18  C   UNL     1      -2.275   9.994  16.557  0.00  0.00    +0.000 C 
ATOM     19  O   UNL     1      -1.404  10.340  17.629  0.00  0.00    +0.000 OA
ENDBRANCH  12  19
ENDBRANCH  11  17
ENDBRANCH   1  11
BRANCH   5  20
ATOM     20  C   UNL     1       2.853   6.308  19.998  0.00  0.00    +0.000 C 
BRANCH  20  21
ATOM     21  C   UNL     1       2.093   5.057  19.605  0.00  0.00    +0.000 A 
ATOM     22  C   UNL     1       1.406   4.308  20.569  0.00  0.00    +0.000 A 
ATOM     23  C   UNL     1       0.698   3.162  20.204  0.00  0.00    +0.000 A 
ATOM     24  C   UNL     1       0.681   2.745  18.872  0.00  0.00    +0.000 A 
ATOM     25  C   UNL     1       1.380   3.467  17.910  0.00  0.00    +0.000 A 
ATOM     26  C   UNL     1       2.087   4.617  18.274  0.00  0.00    +0.000 A 
ENDBRANCH  20  21
ENDBRANCH   5  20
TORSDOF 5
ENDMDL
MODEL 8
REMARK VINA RESULT:      -7.5      1.591      2.434
REMARK  Name = 
REMARK  6 active torsions:
REMARK  status: ('A' for Active; 'I' for Inactive)
REMARK    1  A    between atoms: C_1  and  O_2
REMARK    2  A    between atoms: O_2  and  C_3
REMARK    3  A    between atoms: C_8  and  O_9
REMARK    4  A    between atoms: O_9  and  C_10
REMARK    5  A    between atoms: C_14  and  C_15
REMARK    6  A    between atoms: C_15  and  C_16
REMARK                            x       y       z     vdW  Elec       q    Type
REMARK                         _______ _______ _______ _____ _____    ______ ____
ROOT
ATOM      1  C   UNL     1       5.839   5.084  17.165  0.00  0.00    +0.000 A 
ATOM      2  C   UNL     1       5.545   3.982  16.380  0.00  0.00    +0.000 A 
ATOM      3  N   UNL     1       4.814   2.899  16.883  0.00  0.00    +0.000 N 
ATOM      4  N   UNL     1       6.023   3.805  15.136  0.00  0.00    +0.000 NA
ATOM      5  C   UNL     1       6.852   4.754  14.661  0.00  0.00    +0.000 A 
ATOM      6  N   UNL     1       7.330   5.769  15.389  0.00  0.00    +0.000 NA
ATOM      7  C   UNL     1       6.828   5.890  16.637  0.00  0.00    +0.000 A 
ATOM      8 CL   UNL     1       7.687   7.087  17.537  0.00  0.00    +0.000 Cl
ATOM      9  H   UNL     1       3.954   3.192  17.330  0.00  0.00    +0.000 HD
ATOM     10  H   UNL     1       4.683   2.219  16.140  0.00  0.00    +0.000 HD
ENDROOT
BRANCH   1  11
ATOM     11  O   UNL     1       5.207   5.186  18.370  0.00  0.00    +0.000 OA
BRANCH  11  17
ATOM     12  C   UNL     1       3.126   5.924  19.552  0.00  0.00    +0.000 A 
ATOM     13  C   UNL     1       2.058   6.834  19.518  0.00  0.00    +0.000 A 
ATOM     14  C   UNL     1       2.023   7.866  18.575  0.00  0.00    +0.000 A 
ATOM     15  C   UNL     1       3.062   8.018  17.666  0.00  0.00    +0.000 A 
ATOM     16  C   UNL     1       4.109   7.100  17.665  0.00  0.00    +0.000 A 
ATOM     17  C   UNL     1       4.126   6.025  18.564  0.00  0.00    +0.000 A 
BRANCH  12  19
ATOM     18  C   UNL     1       2.113   4.098  20.721  0.00  0.00    +0.000 C 
ATOM     19  O   UNL     1       3.246   4.930  20.487  0.00  0.00    +0.000 OA
ENDBRANCH  12  19
ENDBRANCH  11  17
ENDBRANCH   1  11
BRANCH   5  20
ATOM     20  C   UNL     1       7.257   4.671  13.210  0.00  0.00    +0.000 C 
BRANCH  20  21
ATOM     21  C   UNL     1       6.438   3.675  12.413  0.00  0.00    +0.000 A 
ATOM     22  C   UNL     1       7.036   2.525  11.881  0.00  0.00    +0.000 A 
ATOM     23  C   UNL     1       6.278   1.604  11.156  0.00  0.00    +0.000 A 
ATOM     24  C   UNL     1       4.918   1.831  10.943  0.00  0.00    +0.000 A 
ATOM     25  C   UNL     1       4.319   2.981  11.446  0.00  0.00    +0.000 A 
ATOM     26  C   UNL     1       5.075   3.903  12.175  0.00  0.00    +0.000 A 
ENDBRANCH  20  21
ENDBRANCH   5  20
TORSDOF 5
ENDMDL
MODEL 9
REMARK VINA RESULT:      -7.5      1.668      2.597
REMARK  Name = 
REMARK  6 active torsions:
REMARK  status: ('A' for Active; 'I' for Inactive)
REMARK    1  A    between atoms: C_1  and  O_2
REMARK    2  A    between atoms: O_2  and  C_3
REMARK    3  A    between atoms: C_8  and  O_9
REMARK    4  A    between atoms: O_9  and  C_10
REMARK    5  A    between atoms: C_14  and  C_15
REMARK    6  A    between atoms: C_15  and  C_16
REMARK                            x       y       z     vdW  Elec       q    Type
REMARK                         _______ _______ _______ _____ _____    ______ ____
ROOT
ATOM      1  C   UNL     1       5.872   5.023  17.094  0.00  0.00    +0.000 A 
ATOM      2  C   UNL     1       5.565   3.949  16.276  0.00  0.00    +0.000 A 
ATOM      3  N   UNL     1       4.826   2.857  16.747  0.00  0.00    +0.000 N 
ATOM      4  N   UNL     1       6.038   3.807  15.026  0.00  0.00    +0.000 NA
ATOM      5  C   UNL     1       6.874   4.763  14.578  0.00  0.00    +0.000 A 
ATOM      6  N   UNL     1       7.365   5.750  15.337  0.00  0.00    +0.000 NA
ATOM      7  C   UNL     1       6.868   5.836  16.589  0.00  0.00    +0.000 A 
ATOM      8 CL   UNL     1       7.740   6.996  17.524  0.00  0.00    +0.000 Cl
ATOM      9  H   UNL     1       3.970   3.145  17.206  0.00  0.00    +0.000 HD
ATOM     10  H   UNL     1       4.686   2.203  15.984  0.00  0.00    +0.000 HD
ENDROOT
BRANCH   1  11
ATOM     11  O   UNL     1       5.245   5.093  18.304  0.00  0.00    +0.000 OA
BRANCH  11  17
ATOM     12  C   UNL     1       3.171   5.800  19.516  0.00  0.00    +0.000 A 
ATOM     13  C   UNL     1       2.103   6.712  19.510  0.00  0.00    +0.000 A 
ATOM     14  C   UNL     1       2.063   7.767  18.594  0.00  0.00    +0.000 A 
ATOM     15  C   UNL     1       3.097   7.941  17.683  0.00  0.00    +0.000 A 
ATOM     16  C   UNL     1       4.144   7.023  17.653  0.00  0.00    +0.000 A 
ATOM     17  C   UNL     1       4.166   5.927  18.525  0.00  0.00    +0.000 A 
BRANCH  12  19
ATOM     18  C   UNL     1       2.121   4.356  21.109  0.00  0.00    +0.000 C 
ATOM     19  O   UNL     1       3.296   4.783  20.425  0.00  0.00    +0.000 OA
ENDBRANCH  12  19
ENDBRANCH  11  17
ENDBRANCH   1  11
BRANCH   5  20
ATOM     20  C   UNL     1       7.274   4.723  13.124  0.00  0.00    +0.000 C 
BRANCH  20  21
ATOM     21  C   UNL     1       6.569   3.637  12.336  0.00  0.00    +0.000 A 
ATOM     22  C   UNL     1       5.182   3.683  12.141  0.00  0.00    +0.000 A 
ATOM     23  C   UNL     1       4.536   2.687  11.406  0.00  0.00    +0.000 A 
ATOM     24  C   UNL     1       5.269   1.628  10.870  0.00  0.00    +0.000 A 
ATOM     25  C   UNL     1       6.643   1.559  11.077  0.00  0.00    +0.000 A 
ATOM     26  C   UNL     1       7.291   2.557  11.810  0.00  0.00    +0.000 A 
ENDBRANCH  20  21
ENDBRANCH   5  20
TORSDOF 5
ENDMDL
