MODEL 1
REMARK VINA RESULT:      -8.7      0.000      0.000
REMARK  Name = 
REMARK  7 active torsions:
REMARK  status: ('A' for Active; 'I' for Inactive)
REMARK    1  A    between atoms: C_1  and  O_2
REMARK    2  A    between atoms: O_2  and  C_3
REMARK    3  A    between atoms: C_6  and  N_7
REMARK    4  A    between atoms: C_8  and  C_10
REMARK    5  A    between atoms: C_14  and  N_15
REMARK    6  A    between atoms: C_16  and  C_18
REMARK    7  A    between atoms: C_19  and  C_20
REMARK                            x       y       z     vdW  Elec       q    Type
REMARK                         _______ _______ _______ _____ _____    ______ ____
ROOT
ATOM      1  C   UNL     1       3.208   3.596  19.172  0.00  0.00    +0.000 A 
ATOM      2  N   UNL     1       2.327   2.845  19.870  0.00  0.00    +0.000 NA
ATOM      3  N   UNL     1       2.407   1.637  19.301  0.00  0.00    +0.000 N 
ATOM      4  C   UNL     1       3.275   1.578  18.258  0.00  0.00    +0.000 A 
ATOM      5  C   UNL     1       3.837   2.826  18.136  0.00  0.00    +0.000 A 
ATOM      6  H   UNL     1       1.845   0.882  19.683  0.00  0.00    +0.000 HD
ENDROOT
BRANCH   1   8
ATOM      7  N   UNL     1       2.323   5.803  19.418  0.00  0.00    +0.000 N 
ATOM      8  C   UNL     1       3.439   5.001  19.536  0.00  0.00    +0.000 C 
ATOM      9  O   UNL     1       4.545   5.388  19.935  0.00  0.00    +0.000 OA
ATOM     10  H   UNL     1       1.468   5.315  19.168  0.00  0.00    +0.000 HD
BRANCH   7  14
ATOM     11  C   UNL     1       0.717   9.779  19.748  0.00  0.00    +0.000 C 
ATOM     12  C   UNL     1       1.753   9.541  18.647  0.00  0.00    +0.000 C 
ATOM     13  C   UNL     1       1.905   8.047  18.370  0.00  0.00    +0.000 C 
ATOM     14  C   UNL     1       2.257   7.247  19.634  0.00  0.00    +0.000 C 
ATOM     15  C   UNL     1       1.301   7.557  20.787  0.00  0.00    +0.000 C 
ATOM     16  C   UNL     1       1.142   9.047  21.022  0.00  0.00    +0.000 C 
BRANCH  11  18
ATOM     17  C   UNL     1       1.468  11.937  19.112  0.00  0.00    +0.000 C 
ATOM     18  O   UNL     1       0.631  11.186  19.981  0.00  0.00    +0.000 OA
ENDBRANCH  11  18
ENDBRANCH   7  14
ENDBRANCH   1   8
BRANCH   5  19
ATOM     19  N   UNL     1       4.804   3.226  17.218  0.00  0.00    +0.000 N 
ATOM     20  C   UNL     1       4.760   4.407  16.504  0.00  0.00    +0.000 C 
ATOM     21  O   UNL     1       3.842   5.227  16.604  0.00  0.00    +0.000 OA
ATOM     22  H   UNL     1       5.602   2.611  17.120  0.00  0.00    +0.000 HD
BRANCH  20  23
ATOM     23  C   UNL     1       5.879   4.679  15.638  0.00  0.00    +0.000 A 
ATOM     24  C   UNL     1       6.966   5.494  15.937  0.00  0.00    +0.000 A 
ATOM     25  C   UNL     1       7.272   6.221  17.195  0.00  0.00    +0.000 C 
ATOM     26  N   UNL     1       7.818   5.602  14.867  0.00  0.00    +0.000 NA
ATOM     27  C   UNL     1       7.263   4.901  13.906  0.00  0.00    +0.000 A 
ATOM     28  C   UNL     1       7.668   4.701  12.558  0.00  0.00    +0.000 A 
ATOM     29  C   UNL     1       6.925   3.931  11.741  0.00  0.00    +0.000 A 
ATOM     30  C   UNL     1       5.701   3.303  12.205  0.00  0.00    +0.000 A 
ATOM     31  C   UNL     1       5.299   3.508  13.470  0.00  0.00    +0.000 A 
ATOM     32  N   UNL     1       6.077   4.294  14.325  0.00  0.00    +0.000 N 
ENDBRANCH  20  23
ENDBRANCH   5  19
TORSDOF 5
ENDMDL
MODEL 2
REMARK VINA RESULT:      -8.4      1.027      1.080
REMARK  Name = 
REMARK  7 active torsions:
REMARK  status: ('A' for Active; 'I' for Inactive)
REMARK    1  A    between atoms: C_1  and  O_2
REMARK    2  A    between atoms: O_2  and  C_3
REMARK    3  A    between atoms: C_6  and  N_7
REMARK    4  A    between atoms: C_8  and  C_10
REMARK    5  A    between atoms: C_14  and  N_15
REMARK    6  A    between atoms: C_16  and  C_18
REMARK    7  A    between atoms: C_19  and  C_20
REMARK                            x       y       z     vdW  Elec       q    Type
REMARK                         _______ _______ _______ _____ _____    ______ ____
ROOT
ATOM      1  C   UNL     1       3.333   4.573  19.678  0.00  0.00    +0.000 A 
ATOM      2  N   UNL     1       2.621   3.897  20.607  0.00  0.00    +0.000 NA
ATOM      3  N   UNL     1       3.101   2.649  20.539  0.00  0.00    +0.000 N 
ATOM      4  C   UNL     1       4.067   2.484  19.599  0.00  0.00    +0.000 A 
ATOM      5  C   UNL     1       4.268   3.711  19.013  0.00  0.00    +0.000 A 
ATOM      6  H   UNL     1       2.732   1.951  21.177  0.00  0.00    +0.000 HD
ENDROOT
BRANCH   1   8
ATOM      7  N   UNL     1       2.276   6.589  20.411  0.00  0.00    +0.000 N 
ATOM      8  C   UNL     1       3.118   6.014  19.482  0.00  0.00    +0.000 C 
ATOM      9  O   UNL     1       3.683   6.629  18.569  0.00  0.00    +0.000 OA
ATOM     10  H   UNL     1       1.968   5.968  21.154  0.00  0.00    +0.000 HD
BRANCH   7  14
ATOM     11  C   UNL     1      -0.319  10.000  20.056  0.00  0.00    +0.000 C 
ATOM     12  C   UNL     1       0.886   9.948  19.115  0.00  0.00    +0.000 C 
ATOM     13  C   UNL     1       1.451   8.531  19.048  0.00  0.00    +0.000 C 
ATOM     14  C   UNL     1       1.815   7.975  20.434  0.00  0.00    +0.000 C 
ATOM     15  C   UNL     1       0.659   8.122  21.426  0.00  0.00    +0.000 C 
ATOM     16  C   UNL     1       0.094   9.530  21.451  0.00  0.00    +0.000 C 
BRANCH  11  18
ATOM     17  C   UNL     1       0.243  12.284  20.358  0.00  0.00    +0.000 C 
ATOM     18  O   UNL     1      -0.793  11.347  20.098  0.00  0.00    +0.000 OA
ENDBRANCH  11  18
ENDBRANCH   7  14
ENDBRANCH   1   8
BRANCH   5  19
ATOM     19  N   UNL     1       5.185   4.025  18.014  0.00  0.00    +0.000 N 
ATOM     20  C   UNL     1       4.865   4.161  16.677  0.00  0.00    +0.000 C 
ATOM     21  O   UNL     1       3.724   4.005  16.233  0.00  0.00    +0.000 OA
ATOM     22  H   UNL     1       6.132   4.201  18.322  0.00  0.00    +0.000 HD
BRANCH  20  23
ATOM     23  C   UNL     1       5.937   4.544  15.794  0.00  0.00    +0.000 A 
ATOM     24  C   UNL     1       6.971   5.425  16.095  0.00  0.00    +0.000 A 
ATOM     25  C   UNL     1       7.259   6.128  17.372  0.00  0.00    +0.000 C 
ATOM     26  N   UNL     1       7.783   5.633  15.009  0.00  0.00    +0.000 NA
ATOM     27  C   UNL     1       7.253   4.928  14.037  0.00  0.00    +0.000 A 
ATOM     28  C   UNL     1       7.633   4.805  12.672  0.00  0.00    +0.000 A 
ATOM     29  C   UNL     1       6.924   4.012  11.847  0.00  0.00    +0.000 A 
ATOM     30  C   UNL     1       5.762   3.281  12.317  0.00  0.00    +0.000 A 
ATOM     31  C   UNL     1       5.382   3.411  13.599  0.00  0.00    +0.000 A 
ATOM     32  N   UNL     1       6.126   4.221  14.462  0.00  0.00    +0.000 N 
ENDBRANCH  20  23
ENDBRANCH   5  19
TORSDOF 5
ENDMDL
MODEL 3
REMARK VINA RESULT:      -8.3      1.783      2.330
REMARK  Name = 
REMARK  7 active torsions:
REMARK  status: ('A' for Active; 'I' for Inactive)
REMARK    1  A    between atoms: C_1  and  O_2
REMARK    2  A    between atoms: O_2  and  C_3
REMARK    3  A    between atoms: C_6  and  N_7
REMARK    4  A    between atoms: C_8  and  C_10
REMARK    5  A    between atoms: C_14  and  N_15
REMARK    6  A    between atoms: C_16  and  C_18
REMARK    7  A    between atoms: C_19  and  C_20
REMARK                            x       y       z     vdW  Elec       q    Type
REMARK                         _______ _______ _______ _____ _____    ______ ____
ROOT
ATOM      1  C   UNL     1       2.252   5.467  19.995  0.00  0.00    +0.000 A 
ATOM      2  N   UNL     1       1.492   4.758  20.860  0.00  0.00    +0.000 NA
ATOM      3  N   UNL     1       1.893   3.493  20.683  0.00  0.00    +0.000 N 
ATOM      4  C   UNL     1       2.853   3.349  19.734  0.00  0.00    +0.000 A 
ATOM      5  C   UNL     1       3.135   4.607  19.259  0.00  0.00    +0.000 A 
ATOM      6  H   UNL     1       1.475   2.767  21.257  0.00  0.00    +0.000 HD
ENDROOT
BRANCH   1   8
ATOM      7  N   UNL     1       1.472   7.491  21.000  0.00  0.00    +0.000 N 
ATOM      8  C   UNL     1       2.131   6.930  19.926  0.00  0.00    +0.000 C 
ATOM      9  O   UNL     1       2.614   7.570  18.984  0.00  0.00    +0.000 OA
ATOM     10  H   UNL     1       1.219   6.839  21.736  0.00  0.00    +0.000 HD
BRANCH   7  14
ATOM     11  C   UNL     1      -0.853  11.104  21.187  0.00  0.00    +0.000 C 
ATOM     12  C   UNL     1       0.242  11.042  20.121  0.00  0.00    +0.000 C 
ATOM     13  C   UNL     1       0.678   9.598  19.886  0.00  0.00    +0.000 C 
ATOM     14  C   UNL     1       1.132   8.901  21.178  0.00  0.00    +0.000 C 
ATOM     15  C   UNL     1       0.099   9.049  22.296  0.00  0.00    +0.000 C 
ATOM     16  C   UNL     1      -0.341  10.488  22.490  0.00  0.00    +0.000 C 
BRANCH  11  18
ATOM     17  C   UNL     1      -0.788  12.973  22.645  0.00  0.00    +0.000 C 
ATOM     18  O   UNL     1      -1.207  12.474  21.383  0.00  0.00    +0.000 OA
ENDBRANCH  11  18
ENDBRANCH   7  14
ENDBRANCH   1   8
BRANCH   5  19
ATOM     19  N   UNL     1       4.078   4.948  18.292  0.00  0.00    +0.000 N 
ATOM     20  C   UNL     1       5.422   4.642  18.372  0.00  0.00    +0.000 C 
ATOM     21  O   UNL     1       5.925   4.038  19.324  0.00  0.00    +0.000 OA
ATOM     22  H   UNL     1       3.719   5.413  17.468  0.00  0.00    +0.000 HD
BRANCH  20  23
ATOM     23  C   UNL     1       6.239   5.027  17.249  0.00  0.00    +0.000 A 
ATOM     24  C   UNL     1       7.195   6.038  17.242  0.00  0.00    +0.000 A 
ATOM     25  C   UNL     1       7.646   6.908  18.357  0.00  0.00    +0.000 C 
ATOM     26  N   UNL     1       7.740   6.201  15.992  0.00  0.00    +0.000 NA
ATOM     27  C   UNL     1       7.116   5.338  15.225  0.00  0.00    +0.000 A 
ATOM     28  C   UNL     1       7.226   5.099  13.827  0.00  0.00    +0.000 A 
ATOM     29  C   UNL     1       6.469   4.148  13.248  0.00  0.00    +0.000 A 
ATOM     30  C   UNL     1       5.524   3.362  14.020  0.00  0.00    +0.000 A 
ATOM     31  C   UNL     1       5.397   3.600  15.336  0.00  0.00    +0.000 A 
ATOM     32  N   UNL     1       6.194   4.575  15.943  0.00  0.00    +0.000 N 
ENDBRANCH  20  23
ENDBRANCH   5  19
TORSDOF 5
ENDMDL
MODEL 4
REMARK VINA RESULT:      -8.2      2.124      7.749
REMARK  Name = 
REMARK  7 active torsions:
REMARK  status: ('A' for Active; 'I' for Inactive)
REMARK    1  A    between atoms: C_1  and  O_2
REMARK    2  A    between atoms: O_2  and  C_3
REMARK    3  A    between atoms: C_6  and  N_7
REMARK    4  A    between atoms: C_8  and  C_10
REMARK    5  A    between atoms: C_14  and  N_15
REMARK    6  A    between atoms: C_16  and  C_18
REMARK    7  A    between atoms: C_19  and  C_20
REMARK                            x       y       z     vdW  Elec       q    Type
REMARK                         _______ _______ _______ _____ _____    ______ ____
ROOT
ATOM      1  C   UNL     1       2.200   3.320  19.440  0.00  0.00    +0.000 A 
ATOM      2  N   UNL     1       2.330   2.071  19.943  0.00  0.00    +0.000 NA
ATOM      3  N   UNL     1       1.801   2.158  21.169  0.00  0.00    +0.000 N 
ATOM      4  C   UNL     1       1.361   3.402  21.490  0.00  0.00    +0.000 A 
ATOM      5  C   UNL     1       1.585   4.199  20.394  0.00  0.00    +0.000 A 
ATOM      6  H   UNL     1       1.760   1.319  21.740  0.00  0.00    +0.000 HD
ENDROOT
BRANCH   1   8
ATOM      7  N   UNL     1       3.899   4.167  17.987  0.00  0.00    +0.000 N 
ATOM      8  C   UNL     1       2.636   3.618  18.069  0.00  0.00    +0.000 C 
ATOM      9  O   UNL     1       1.917   3.360  17.096  0.00  0.00    +0.000 OA
ATOM     10  H   UNL     1       4.398   4.229  18.870  0.00  0.00    +0.000 HD
BRANCH   7  14
ATOM     11  C   UNL     1       7.043   5.079  15.198  0.00  0.00    +0.000 C 
ATOM     12  C   UNL     1       6.241   6.261  15.746  0.00  0.00    +0.000 C 
ATOM     13  C   UNL     1       5.481   5.853  17.006  0.00  0.00    +0.000 C 
ATOM     14  C   UNL     1       4.572   4.635  16.778  0.00  0.00    +0.000 C 
ATOM     15  C   UNL     1       5.328   3.478  16.122  0.00  0.00    +0.000 C 
ATOM     16  C   UNL     1       6.100   3.914  14.892  0.00  0.00    +0.000 C 
BRANCH  11  18
ATOM     17  C   UNL     1       7.353   4.744  12.871  0.00  0.00    +0.000 C 
ATOM     18  O   UNL     1       7.714   5.508  14.012  0.00  0.00    +0.000 OA
ENDBRANCH  11  18
ENDBRANCH   7  14
ENDBRANCH   1   8
BRANCH   5  19
ATOM     19  N   UNL     1       1.266   5.548  20.257  0.00  0.00    +0.000 N 
ATOM     20  C   UNL     1       2.193   6.551  20.055  0.00  0.00    +0.000 C 
ATOM     21  O   UNL     1       3.409   6.349  19.987  0.00  0.00    +0.000 OA
ATOM     22  H   UNL     1       0.279   5.772  20.266  0.00  0.00    +0.000 HD
BRANCH  20  23
ATOM     23  C   UNL     1       1.673   7.883  19.881  0.00  0.00    +0.000 A 
ATOM     24  C   UNL     1       1.848   8.690  18.761  0.00  0.00    +0.000 A 
ATOM     25  C   UNL     1       2.539   8.381  17.483  0.00  0.00    +0.000 C 
ATOM     26  N   UNL     1       1.290   9.930  18.946  0.00  0.00    +0.000 NA
ATOM     27  C   UNL     1       0.807   9.917  20.167  0.00  0.00    +0.000 A 
ATOM     28  C   UNL     1       0.170  10.942  20.918  0.00  0.00    +0.000 A 
ATOM     29  C   UNL     1      -0.246  10.693  22.174  0.00  0.00    +0.000 A 
ATOM     30  C   UNL     1      -0.045   9.395  22.792  0.00  0.00    +0.000 A 
ATOM     31  C   UNL     1       0.578   8.429  22.097  0.00  0.00    +0.000 A 
ATOM     32  N   UNL     1       0.996   8.680  20.786  0.00  0.00    +0.000 N 
ENDBRANCH  20  23
ENDBRANCH   5  19
TORSDOF 5
ENDMDL
MODEL 5
REMARK VINA RESULT:      -8.2      1.122      1.131
REMARK  Name = 
REMARK  7 active torsions:
REMARK  status: ('A' for Active; 'I' for Inactive)
REMARK    1  A    between atoms: C_1  and  O_2
REMARK    2  A    between atoms: O_2  and  C_3
REMARK    3  A    between atoms: C_6  and  N_7
REMARK    4  A    between atoms: C_8  and  C_10
REMARK    5  A    between atoms: C_14  and  N_15
REMARK    6  A    between atoms: C_16  and  C_18
REMARK    7  A    between atoms: C_19  and  C_20
REMARK                            x       y       z     vdW  Elec       q    Type
REMARK                         _______ _______ _______ _____ _____    ______ ____
ROOT
ATOM      1  C   UNL     1       3.113   3.868  19.673  0.00  0.00    +0.000 A 
ATOM      2  N   UNL     1       2.549   3.130  20.655  0.00  0.00    +0.000 NA
ATOM      3  N   UNL     1       3.405   2.117  20.832  0.00  0.00    +0.000 N 
ATOM      4  C   UNL     1       4.477   2.152  19.999  0.00  0.00    +0.000 A 
ATOM      5  C   UNL     1       4.344   3.282  19.227  0.00  0.00    +0.000 A 
ATOM      6  H   UNL     1       3.204   1.432  21.554  0.00  0.00    +0.000 HD
ENDROOT
BRANCH   1   8
ATOM      7  N   UNL     1       3.054   6.258  19.728  0.00  0.00    +0.000 N 
ATOM      8  C   UNL     1       2.476   5.113  19.220  0.00  0.00    +0.000 C 
ATOM      9  O   UNL     1       1.524   5.097  18.431  0.00  0.00    +0.000 OA
ATOM     10  H   UNL     1       3.887   6.105  20.289  0.00  0.00    +0.000 HD
BRANCH   7  14
ATOM     11  C   UNL     1       0.497   9.576  18.754  0.00  0.00    +0.000 C 
ATOM     12  C   UNL     1       1.741   9.383  17.884  0.00  0.00    +0.000 C 
ATOM     13  C   UNL     1       2.300   7.973  18.055  0.00  0.00    +0.000 C 
ATOM     14  C   UNL     1       2.601   7.632  19.523  0.00  0.00    +0.000 C 
ATOM     15  C   UNL     1       1.405   7.926  20.431  0.00  0.00    +0.000 C 
ATOM     16  C   UNL     1       0.848   9.321  20.220  0.00  0.00    +0.000 C 
BRANCH  11  18
ATOM     17  C   UNL     1       1.010  11.886  18.909  0.00  0.00    +0.000 C 
ATOM     18  O   UNL     1       0.030  10.914  18.573  0.00  0.00    +0.000 OA
ENDBRANCH  11  18
ENDBRANCH   7  14
ENDBRANCH   1   8
BRANCH   5  19
ATOM     19  N   UNL     1       5.226   3.740  18.251  0.00  0.00    +0.000 N 
ATOM     20  C   UNL     1       4.889   3.930  16.925  0.00  0.00    +0.000 C 
ATOM     21  O   UNL     1       3.765   3.699  16.470  0.00  0.00    +0.000 OA
ATOM     22  H   UNL     1       6.154   3.982  18.572  0.00  0.00    +0.000 HD
BRANCH  20  23
ATOM     23  C   UNL     1       5.918   4.464  16.070  0.00  0.00    +0.000 A 
ATOM     24  C   UNL     1       6.838   5.450  16.413  0.00  0.00    +0.000 A 
ATOM     25  C   UNL     1       7.028   6.140  17.714  0.00  0.00    +0.000 C 
ATOM     26  N   UNL     1       7.632   5.786  15.345  0.00  0.00    +0.000 NA
ATOM     27  C   UNL     1       7.199   5.055  14.344  0.00  0.00    +0.000 A 
ATOM     28  C   UNL     1       7.606   5.022  12.982  0.00  0.00    +0.000 A 
ATOM     29  C   UNL     1       7.004   4.178  12.123  0.00  0.00    +0.000 A 
ATOM     30  C   UNL     1       5.930   3.302  12.554  0.00  0.00    +0.000 A 
ATOM     31  C   UNL     1       5.524   3.345  13.833  0.00  0.00    +0.000 A 
ATOM     32  N   UNL     1       6.158   4.209  14.732  0.00  0.00    +0.000 N 
ENDBRANCH  20  23
ENDBRANCH   5  19
TORSDOF 5
ENDMDL
MODEL 6
REMARK VINA RESULT:      -8.1      2.124      7.081
REMARK  Name = 
REMARK  7 active torsions:
REMARK  status: ('A' for Active; 'I' for Inactive)
REMARK    1  A    between atoms: C_1  and  O_2
REMARK    2  A    between atoms: O_2  and  C_3
REMARK    3  A    between atoms: C_6  and  N_7
REMARK    4  A    between atoms: C_8  and  C_10
REMARK    5  A    between atoms: C_14  and  N_15
REMARK    6  A    between atoms: C_16  and  C_18
REMARK    7  A    between atoms: C_19  and  C_20
REMARK                            x       y       z     vdW  Elec       q    Type
REMARK                         _______ _______ _______ _____ _____    ______ ____
ROOT
ATOM      1  C   UNL     1       2.963   2.893  19.946  0.00  0.00    +0.000 A 
ATOM      2  N   UNL     1       2.996   1.862  20.820  0.00  0.00    +0.000 NA
ATOM      3  N   UNL     1       2.331   2.320  21.888  0.00  0.00    +0.000 N 
ATOM      4  C   UNL     1       1.894   3.599  21.755  0.00  0.00    +0.000 A 
ATOM      5  C   UNL     1       2.268   4.020  20.501  0.00  0.00    +0.000 A 
ATOM      6  H   UNL     1       2.198   1.699  22.680  0.00  0.00    +0.000 HD
ENDROOT
BRANCH   1   8
ATOM      7  N   UNL     1       4.727   3.479  18.442  0.00  0.00    +0.000 N 
ATOM      8  C   UNL     1       3.564   2.756  18.612  0.00  0.00    +0.000 C 
ATOM      9  O   UNL     1       3.059   2.024  17.752  0.00  0.00    +0.000 OA
ATOM     10  H   UNL     1       5.062   3.955  19.275  0.00  0.00    +0.000 HD
BRANCH   7  14
ATOM     11  C   UNL     1       6.653   5.249  15.029  0.00  0.00    +0.000 C 
ATOM     12  C   UNL     1       5.537   4.240  14.747  0.00  0.00    +0.000 C 
ATOM     13  C   UNL     1       4.679   4.030  15.992  0.00  0.00    +0.000 C 
ATOM     14  C   UNL     1       5.508   3.602  17.213  0.00  0.00    +0.000 C 
ATOM     15  C   UNL     1       6.699   4.534  17.446  0.00  0.00    +0.000 C 
ATOM     16  C   UNL     1       7.517   4.752  16.188  0.00  0.00    +0.000 C 
BRANCH  11  18
ATOM     17  C   UNL     1       7.036   4.496  12.813  0.00  0.00    +0.000 C 
ATOM     18  O   UNL     1       7.435   5.391  13.841  0.00  0.00    +0.000 OA
ENDBRANCH  11  18
ENDBRANCH   7  14
ENDBRANCH   1   8
BRANCH   5  19
ATOM     19  N   UNL     1       2.009   5.258  19.919  0.00  0.00    +0.000 N 
ATOM     20  C   UNL     1       2.979   6.186  19.595  0.00  0.00    +0.000 C 
ATOM     21  O   UNL     1       4.183   6.010  19.804  0.00  0.00    +0.000 OA
ATOM     22  H   UNL     1       1.041   5.445  19.689  0.00  0.00    +0.000 HD
BRANCH  20  23
ATOM     23  C   UNL     1       2.528   7.390  18.947  0.00  0.00    +0.000 A 
ATOM     24  C   UNL     1       2.962   7.868  17.714  0.00  0.00    +0.000 A 
ATOM     25  C   UNL     1       3.921   7.258  16.759  0.00  0.00    +0.000 C 
ATOM     26  N   UNL     1       2.391   9.081  17.420  0.00  0.00    +0.000 NA
ATOM     27  C   UNL     1       1.644   9.377  18.458  0.00  0.00    +0.000 A 
ATOM     28  C   UNL     1       0.865  10.534  18.735  0.00  0.00    +0.000 A 
ATOM     29  C   UNL     1       0.173  10.616  19.886  0.00  0.00    +0.000 A 
ATOM     30  C   UNL     1       0.213   9.548  20.868  0.00  0.00    +0.000 A 
ATOM     31  C   UNL     1       0.966   8.464  20.624  0.00  0.00    +0.000 A 
ATOM     32  N   UNL     1       1.673   8.367  19.422  0.00  0.00    +0.000 N 
ENDBRANCH  20  23
ENDBRANCH   5  19
TORSDOF 5
ENDMDL
MODEL 7
REMARK VINA RESULT:      -8.0      1.191      1.269
REMARK  Name = 
REMARK  7 active torsions:
REMARK  status: ('A' for Active; 'I' for Inactive)
REMARK    1  A    between atoms: C_1  and  O_2
REMARK    2  A    between atoms: O_2  and  C_3
REMARK    3  A    between atoms: C_6  and  N_7
REMARK    4  A    between atoms: C_8  and  C_10
REMARK    5  A    between atoms: C_14  and  N_15
REMARK    6  A    between atoms: C_16  and  C_18
REMARK    7  A    between atoms: C_19  and  C_20
REMARK                            x       y       z     vdW  Elec       q    Type
REMARK                         _______ _______ _______ _____ _____    ______ ____
ROOT
ATOM      1  C   UNL     1       2.216   3.770  19.190  0.00  0.00    +0.000 A 
ATOM      2  N   UNL     1       1.371   2.845  19.696  0.00  0.00    +0.000 NA
ATOM      3  N   UNL     1       1.614   1.749  18.968  0.00  0.00    +0.000 N 
ATOM      4  C   UNL     1       2.554   1.928  18.005  0.00  0.00    +0.000 A 
ATOM      5  C   UNL     1       2.991   3.227  18.111  0.00  0.00    +0.000 A 
ATOM      6  H   UNL     1       1.108   0.897  19.189  0.00  0.00    +0.000 HD
ENDROOT
BRANCH   1   8
ATOM      7  N   UNL     1       2.143   6.135  18.845  0.00  0.00    +0.000 N 
ATOM      8  C   UNL     1       2.275   5.120  19.769  0.00  0.00    +0.000 C 
ATOM      9  O   UNL     1       2.404   5.290  20.988  0.00  0.00    +0.000 OA
ATOM     10  H   UNL     1       1.949   5.829  17.896  0.00  0.00    +0.000 HD
BRANCH   7  14
ATOM     11  C   UNL     1       0.980  10.251  19.292  0.00  0.00    +0.000 C 
ATOM     12  C   UNL     1       1.988   9.934  18.185  0.00  0.00    +0.000 C 
ATOM     13  C   UNL     1       1.977   8.442  17.864  0.00  0.00    +0.000 C 
ATOM     14  C   UNL     1       2.234   7.570  19.104  0.00  0.00    +0.000 C 
ATOM     15  C   UNL     1       1.312   7.949  20.265  0.00  0.00    +0.000 C 
ATOM     16  C   UNL     1       1.315   9.440  20.544  0.00  0.00    +0.000 C 
BRANCH  11  18
ATOM     17  C   UNL     1       0.412  12.001  20.788  0.00  0.00    +0.000 C 
ATOM     18  O   UNL     1       1.047  11.652  19.566  0.00  0.00    +0.000 OA
ENDBRANCH  11  18
ENDBRANCH   7  14
ENDBRANCH   1   8
BRANCH   5  19
ATOM     19  N   UNL     1       3.973   3.848  17.343  0.00  0.00    +0.000 N 
ATOM     20  C   UNL     1       5.269   4.071  17.767  0.00  0.00    +0.000 C 
ATOM     21  O   UNL     1       5.682   3.747  18.884  0.00  0.00    +0.000 OA
ATOM     22  H   UNL     1       3.704   4.103  16.402  0.00  0.00    +0.000 HD
BRANCH  20  23
ATOM     23  C   UNL     1       6.163   4.678  16.815  0.00  0.00    +0.000 A 
ATOM     24  C   UNL     1       7.011   5.754  17.060  0.00  0.00    +0.000 A 
ATOM     25  C   UNL     1       7.249   6.489  18.328  0.00  0.00    +0.000 C 
ATOM     26  N   UNL     1       7.672   6.138  15.919  0.00  0.00    +0.000 NA
ATOM     27  C   UNL     1       7.224   5.347  14.973  0.00  0.00    +0.000 A 
ATOM     28  C   UNL     1       7.510   5.320  13.580  0.00  0.00    +0.000 A 
ATOM     29  C   UNL     1       6.918   4.404  12.791  0.00  0.00    +0.000 A 
ATOM     30  C   UNL     1       5.974   3.442  13.330  0.00  0.00    +0.000 A 
ATOM     31  C   UNL     1       5.681   3.477  14.640  0.00  0.00    +0.000 A 
ATOM     32  N   UNL     1       6.306   4.416  15.465  0.00  0.00    +0.000 N 
ENDBRANCH  20  23
ENDBRANCH   5  19
TORSDOF 5
ENDMDL
MODEL 8
REMARK VINA RESULT:      -7.9      1.184      1.532
REMARK  Name = 
REMARK  7 active torsions:
REMARK  status: ('A' for Active; 'I' for Inactive)
REMARK    1  A    between atoms: C_1  and  O_2
REMARK    2  A    between atoms: O_2  and  C_3
REMARK    3  A    between atoms: C_6  and  N_7
REMARK    4  A    between atoms: C_8  and  C_10
REMARK    5  A    between atoms: C_14  and  N_15
REMARK    6  A    between atoms: C_16  and  C_18
REMARK    7  A    between atoms: C_19  and  C_20
REMARK                            x       y       z     vdW  Elec       q    Type
REMARK                         _______ _______ _______ _____ _____    ______ ____
ROOT
ATOM      1  C   UNL     1       3.041   3.706  19.493  0.00  0.00    +0.000 A 
ATOM      2  N   UNL     1       2.514   2.986  20.509  0.00  0.00    +0.000 NA
ATOM      3  N   UNL     1       3.485   2.125  20.835  0.00  0.00    +0.000 N 
ATOM      4  C   UNL     1       4.598   2.237  20.066  0.00  0.00    +0.000 A 
ATOM      5  C   UNL     1       4.369   3.262  19.180  0.00  0.00    +0.000 A 
ATOM      6  H   UNL     1       3.327   1.486  21.608  0.00  0.00    +0.000 HD
ENDROOT
BRANCH   1   8
ATOM      7  N   UNL     1       2.504   6.035  19.457  0.00  0.00    +0.000 N 
ATOM      8  C   UNL     1       2.275   4.802  18.883  0.00  0.00    +0.000 C 
ATOM      9  O   UNL     1       1.521   4.602  17.923  0.00  0.00    +0.000 OA
ATOM     10  H   UNL     1       3.222   6.048  20.175  0.00  0.00    +0.000 HD
BRANCH   7  14
ATOM     11  C   UNL     1       1.832  10.254  18.962  0.00  0.00    +0.000 C 
ATOM     12  C   UNL     1       0.922   9.521  19.950  0.00  0.00    +0.000 C 
ATOM     13  C   UNL     1       1.531   8.176  20.340  0.00  0.00    +0.000 C 
ATOM     14  C   UNL     1       1.839   7.293  19.121  0.00  0.00    +0.000 C 
ATOM     15  C   UNL     1       2.653   8.045  18.066  0.00  0.00    +0.000 C 
ATOM     16  C   UNL     1       2.046   9.391  17.718  0.00  0.00    +0.000 C 
BRANCH  11  18
ATOM     17  C   UNL     1       2.137  12.555  18.476  0.00  0.00    +0.000 C 
ATOM     18  O   UNL     1       1.207  11.491  18.615  0.00  0.00    +0.000 OA
ENDBRANCH  11  18
ENDBRANCH   7  14
ENDBRANCH   1   8
BRANCH   5  19
ATOM     19  N   UNL     1       5.248   3.751  18.216  0.00  0.00    +0.000 N 
ATOM     20  C   UNL     1       4.941   3.879  16.875  0.00  0.00    +0.000 C 
ATOM     21  O   UNL     1       3.850   3.557  16.395  0.00  0.00    +0.000 OA
ATOM     22  H   UNL     1       6.147   4.067  18.556  0.00  0.00    +0.000 HD
BRANCH  20  23
ATOM     23  C   UNL     1       5.958   4.456  16.034  0.00  0.00    +0.000 A 
ATOM     24  C   UNL     1       6.848   5.461  16.399  0.00  0.00    +0.000 A 
ATOM     25  C   UNL     1       7.014   6.133  17.713  0.00  0.00    +0.000 C 
ATOM     26  N   UNL     1       7.636   5.839  15.340  0.00  0.00    +0.000 NA
ATOM     27  C   UNL     1       7.227   5.114  14.325  0.00  0.00    +0.000 A 
ATOM     28  C   UNL     1       7.640   5.117  12.964  0.00  0.00    +0.000 A 
ATOM     29  C   UNL     1       7.065   4.273  12.087  0.00  0.00    +0.000 A 
ATOM     30  C   UNL     1       6.015   3.359  12.498  0.00  0.00    +0.000 A 
ATOM     31  C   UNL     1       5.603   3.368  13.776  0.00  0.00    +0.000 A 
ATOM     32  N   UNL     1       6.209   4.232  14.693  0.00  0.00    +0.000 N 
ENDBRANCH  20  23
ENDBRANCH   5  19
TORSDOF 5
ENDMDL
MODEL 9
REMARK VINA RESULT:      -7.7      1.911      2.812
REMARK  Name = 
REMARK  7 active torsions:
REMARK  status: ('A' for Active; 'I' for Inactive)
REMARK    1  A    between atoms: C_1  and  O_2
REMARK    2  A    between atoms: O_2  and  C_3
REMARK    3  A    between atoms: C_6  and  N_7
REMARK    4  A    between atoms: C_8  and  C_10
REMARK    5  A    between atoms: C_14  and  N_15
REMARK    6  A    between atoms: C_16  and  C_18
REMARK    7  A    between atoms: C_19  and  C_20
REMARK                            x       y       z     vdW  Elec       q    Type
REMARK                         _______ _______ _______ _____ _____    ______ ____
ROOT
ATOM      1  C   UNL     1       2.211   6.509  19.832  0.00  0.00    +0.000 A 
ATOM      2  N   UNL     1       1.453   6.014  20.835  0.00  0.00    +0.000 NA
ATOM      3  N   UNL     1       1.927   4.776  21.020  0.00  0.00    +0.000 N 
ATOM      4  C   UNL     1       2.933   4.441  20.171  0.00  0.00    +0.000 A 
ATOM      5  C   UNL     1       3.169   5.540  19.380  0.00  0.00    +0.000 A 
ATOM      6  H   UNL     1       1.524   4.206  21.757  0.00  0.00    +0.000 HD
ENDROOT
BRANCH   1   8
ATOM      7  N   UNL     1       1.198   8.647  20.176  0.00  0.00    +0.000 N 
ATOM      8  C   UNL     1       2.015   7.889  19.364  0.00  0.00    +0.000 C 
ATOM      9  O   UNL     1       2.574   8.306  18.343  0.00  0.00    +0.000 OA
ATOM     10  H   UNL     1       0.893   8.186  21.029  0.00  0.00    +0.000 HD
BRANCH   7  14
ATOM     11  C   UNL     1      -1.184  12.224  20.344  0.00  0.00    +0.000 C 
ATOM     12  C   UNL     1      -1.025  11.564  18.974  0.00  0.00    +0.000 C 
ATOM     13  C   UNL     1      -0.543  10.123  19.126  0.00  0.00    +0.000 C 
ATOM     14  C   UNL     1       0.758  10.020  19.938  0.00  0.00    +0.000 C 
ATOM     15  C   UNL     1       0.661  10.773  21.266  0.00  0.00    +0.000 C 
ATOM     16  C   UNL     1       0.150  12.190  21.092  0.00  0.00    +0.000 C 
BRANCH  11  18
ATOM     17  C   UNL     1      -0.548  14.506  20.233  0.00  0.00    +0.000 C 
ATOM     18  O   UNL     1      -1.614  13.571  20.142  0.00  0.00    +0.000 OA
ENDBRANCH  11  18
ENDBRANCH   7  14
ENDBRANCH   1   8
BRANCH   5  19
ATOM     19  N   UNL     1       4.133   5.666  18.383  0.00  0.00    +0.000 N 
ATOM     20  C   UNL     1       5.370   5.053  18.412  0.00  0.00    +0.000 C 
ATOM     21  O   UNL     1       5.749   4.335  19.342  0.00  0.00    +0.000 OA
ATOM     22  H   UNL     1       3.865   6.214  17.575  0.00  0.00    +0.000 HD
BRANCH  20  23
ATOM     23  C   UNL     1       6.217   5.255  17.264  0.00  0.00    +0.000 A 
ATOM     24  C   UNL     1       7.273   6.156  17.174  0.00  0.00    +0.000 A 
ATOM     25  C   UNL     1       7.817   7.066  18.213  0.00  0.00    +0.000 C 
ATOM     26  N   UNL     1       7.825   6.154  15.918  0.00  0.00    +0.000 NA
ATOM     27  C   UNL     1       7.111   5.299  15.224  0.00  0.00    +0.000 A 
ATOM     28  C   UNL     1       7.188   4.931  13.852  0.00  0.00    +0.000 A 
ATOM     29  C   UNL     1       6.334   4.018  13.353  0.00  0.00    +0.000 A 
ATOM     30  C   UNL     1       5.316   3.404  14.186  0.00  0.00    +0.000 A 
ATOM     31  C   UNL     1       5.222   3.764  15.476  0.00  0.00    +0.000 A 
ATOM     32  N   UNL     1       6.118   4.700  16.002  0.00  0.00    +0.000 N 
ENDBRANCH  20  23
ENDBRANCH   5  19
TORSDOF 5
ENDMDL
