MODEL 1
REMARK VINA RESULT:      -8.0      0.000      0.000
REMARK  Name = 
REMARK  6 active torsions:
REMARK  status: ('A' for Active; 'I' for Inactive)
REMARK    1  A    between atoms: C_1  and  C_2
REMARK    2  A    between atoms: C_2  and  C_3
REMARK    3  A    between atoms: C_3  and  N_4
REMARK    4  A    between atoms: C_3  and  C_5
REMARK    5  A    between atoms: C_10  and  C_11
REMARK    6  A    between atoms: C_11  and  C_13
REMARK                            x       y       z     vdW  Elec       q    Type
REMARK                         _______ _______ _______ _____ _____    ______ ____
ROOT
ATOM      1  C   UNL     1       5.483   5.117  16.377  0.00  0.00    +0.000 A 
ATOM      2  C   UNL     1       5.573   6.506  16.522  0.00  0.00    +0.000 A 
ATOM      3  C   UNL     1       4.551   7.215  17.161  0.00  0.00    +0.000 A 
ATOM      4  C   UNL     1       3.441   6.544  17.692  0.00  0.00    +0.000 A 
ATOM      5 CL   UNL     1       2.285   7.514  18.535  0.00  0.00    +0.000 Cl
ATOM      6  C   UNL     1       3.328   5.156  17.550  0.00  0.00    +0.000 A 
ATOM      7  C   UNL     1       4.330   4.473  16.848  0.00  0.00    +0.000 A 
ATOM      8  F   UNL     1       4.183   3.165  16.576  0.00  0.00    +0.000 F 
ENDROOT
BRANCH   6   9
ATOM      9  C   UNL     1       2.166   4.393  18.063  0.00  0.00    +0.000 C 
ATOM     10  O   UNL     1       1.167   4.256  17.360  0.00  0.00    +0.000 OA
BRANCH   9  11
ATOM     11  C   UNL     1       2.217   3.733  19.401  0.00  0.00    +0.000 A 
ATOM     12  C   UNL     1       1.053   3.665  20.160  0.00  0.00    +0.000 A 
ATOM     13  C   UNL     1       1.088   2.975  21.368  0.00  0.00    +0.000 A 
ATOM     14  C   UNL     1       2.278   2.384  21.778  0.00  0.00    +0.000 A 
ATOM     15  C   UNL     1       3.395   2.523  20.971  0.00  0.00    +0.000 A 
ATOM     16  N   UNL     1       3.400   3.196  19.797  0.00  0.00    +0.000 NA
ENDBRANCH   9  11
ENDBRANCH   6   9
BRANCH   1  17
ATOM     17  C   UNL     1       6.623   4.339  15.755  0.00  0.00    +0.000 C 
BRANCH  17  18
ATOM     18  N   UNL     1       7.846   4.519  16.543  0.00  0.00    +0.000 NA
ATOM     19  H   UNL     1       8.141   3.607  16.899  0.00  0.00    +0.000 HD
ATOM     20  H   UNL     1       7.633   5.075  17.372  0.00  0.00    +0.000 HD
ENDBRANCH  17  18
BRANCH  17  22
ATOM     21  C   UNL     1       6.174   3.775  13.294  0.00  0.00    +0.000 C 
ATOM     22  C   UNL     1       6.874   4.710  14.276  0.00  0.00    +0.000 C 
ENDBRANCH  17  22
ENDBRANCH   1  17
TORSDOF 5
ENDMDL
MODEL 2
REMARK VINA RESULT:      -7.8      2.314      6.337
REMARK  Name = 
REMARK  6 active torsions:
REMARK  status: ('A' for Active; 'I' for Inactive)
REMARK    1  A    between atoms: C_1  and  C_2
REMARK    2  A    between atoms: C_2  and  C_3
REMARK    3  A    between atoms: C_3  and  N_4
REMARK    4  A    between atoms: C_3  and  C_5
REMARK    5  A    between atoms: C_10  and  C_11
REMARK    6  A    between atoms: C_11  and  C_13
REMARK                            x       y       z     vdW  Elec       q    Type
REMARK                         _______ _______ _______ _____ _____    ______ ____
ROOT
ATOM      1  C   UNL     1       3.429   4.453  17.619  0.00  0.00    +0.000 A 
ATOM      2  C   UNL     1       3.254   5.759  18.090  0.00  0.00    +0.000 A 
ATOM      3  C   UNL     1       4.283   6.697  17.965  0.00  0.00    +0.000 A 
ATOM      4  C   UNL     1       5.489   6.353  17.340  0.00  0.00    +0.000 A 
ATOM      5 CL   UNL     1       6.654   7.619  17.167  0.00  0.00    +0.000 Cl
ATOM      6  C   UNL     1       5.688   5.050  16.871  0.00  0.00    +0.000 A 
ATOM      7  C   UNL     1       4.670   4.107  17.065  0.00  0.00    +0.000 A 
ATOM      8  F   UNL     1       4.883   2.818  16.750  0.00  0.00    +0.000 F 
ENDROOT
BRANCH   6   9
ATOM      9  C   UNL     1       6.951   4.617  16.228  0.00  0.00    +0.000 C 
ATOM     10  O   UNL     1       7.891   4.238  16.923  0.00  0.00    +0.000 OA
BRANCH   9  11
ATOM     11  C   UNL     1       7.076   4.575  14.741  0.00  0.00    +0.000 A 
ATOM     12  C   UNL     1       6.255   3.711  14.024  0.00  0.00    +0.000 A 
ATOM     13  C   UNL     1       6.317   3.737  12.634  0.00  0.00    +0.000 A 
ATOM     14  C   UNL     1       7.195   4.616  12.010  0.00  0.00    +0.000 A 
ATOM     15  C   UNL     1       7.995   5.423  12.804  0.00  0.00    +0.000 A 
ATOM     16  N   UNL     1       7.969   5.415  14.156  0.00  0.00    +0.000 NA
ENDBRANCH   9  11
ENDBRANCH   6   9
BRANCH   1  17
ATOM     17  C   UNL     1       2.289   3.458  17.683  0.00  0.00    +0.000 C 
BRANCH  17  18
ATOM     18  N   UNL     1       1.035   4.102  17.282  0.00  0.00    +0.000 NA
ATOM     19  H   UNL     1       1.165   5.116  17.313  0.00  0.00    +0.000 HD
ATOM     20  H   UNL     1       0.316   3.901  17.977  0.00  0.00    +0.000 HD
ENDBRANCH  17  18
BRANCH  17  22
ATOM     21  C   UNL     1       0.975   3.365  19.884  0.00  0.00    +0.000 C 
ATOM     22  C   UNL     1       2.138   2.798  19.072  0.00  0.00    +0.000 C 
ENDBRANCH  17  22
ENDBRANCH   1  17
TORSDOF 5
ENDMDL
MODEL 3
REMARK VINA RESULT:      -7.7      0.631      1.078
REMARK  Name = 
REMARK  6 active torsions:
REMARK  status: ('A' for Active; 'I' for Inactive)
REMARK    1  A    between atoms: C_1  and  C_2
REMARK    2  A    between atoms: C_2  and  C_3
REMARK    3  A    between atoms: C_3  and  N_4
REMARK    4  A    between atoms: C_3  and  C_5
REMARK    5  A    between atoms: C_10  and  C_11
REMARK    6  A    between atoms: C_11  and  C_13
REMARK                            x       y       z     vdW  Elec       q    Type
REMARK                         _______ _______ _______ _____ _____    ______ ____
ROOT
ATOM      1  C   UNL     1       5.507   5.101  16.459  0.00  0.00    +0.000 A 
ATOM      2  C   UNL     1       5.609   6.482  16.656  0.00  0.00    +0.000 A 
ATOM      3  C   UNL     1       4.577   7.182  17.289  0.00  0.00    +0.000 A 
ATOM      4  C   UNL     1       3.444   6.507  17.764  0.00  0.00    +0.000 A 
ATOM      5 CL   UNL     1       2.275   7.462  18.606  0.00  0.00    +0.000 Cl
ATOM      6  C   UNL     1       3.319   5.127  17.569  0.00  0.00    +0.000 A 
ATOM      7  C   UNL     1       4.333   4.455  16.873  0.00  0.00    +0.000 A 
ATOM      8  F   UNL     1       4.178   3.160  16.551  0.00  0.00    +0.000 F 
ENDROOT
BRANCH   6   9
ATOM      9  C   UNL     1       2.133   4.361  18.020  0.00  0.00    +0.000 C 
ATOM     10  O   UNL     1       1.148   4.275  17.290  0.00  0.00    +0.000 OA
BRANCH   9  11
ATOM     11  C   UNL     1       2.142   3.639  19.327  0.00  0.00    +0.000 A 
ATOM     12  C   UNL     1       3.334   3.080  19.775  0.00  0.00    +0.000 A 
ATOM     13  C   UNL     1       3.355   2.482  21.031  0.00  0.00    +0.000 A 
ATOM     14  C   UNL     1       2.192   2.458  21.792  0.00  0.00    +0.000 A 
ATOM     15  C   UNL     1       1.043   3.017  21.256  0.00  0.00    +0.000 A 
ATOM     16  N   UNL     1       0.983   3.596  20.035  0.00  0.00    +0.000 NA
ENDBRANCH   9  11
ENDBRANCH   6   9
BRANCH   1  17
ATOM     17  C   UNL     1       6.656   4.330  15.844  0.00  0.00    +0.000 C 
BRANCH  17  18
ATOM     18  N   UNL     1       7.875   4.527  16.632  0.00  0.00    +0.000 NA
ATOM     19  H   UNL     1       8.657   4.093  16.137  0.00  0.00    +0.000 HD
ATOM     20  H   UNL     1       7.795   4.015  17.511  0.00  0.00    +0.000 HD
ENDBRANCH  17  18
BRANCH  17  22
ATOM     21  C   UNL     1       6.140   3.803  13.387  0.00  0.00    +0.000 C 
ATOM     22  C   UNL     1       6.905   4.694  14.363  0.00  0.00    +0.000 C 
ENDBRANCH  17  22
ENDBRANCH   1  17
TORSDOF 5
ENDMDL
MODEL 4
REMARK VINA RESULT:      -7.5      1.949      6.073
REMARK  Name = 
REMARK  6 active torsions:
REMARK  status: ('A' for Active; 'I' for Inactive)
REMARK    1  A    between atoms: C_1  and  C_2
REMARK    2  A    between atoms: C_2  and  C_3
REMARK    3  A    between atoms: C_3  and  N_4
REMARK    4  A    between atoms: C_3  and  C_5
REMARK    5  A    between atoms: C_10  and  C_11
REMARK    6  A    between atoms: C_11  and  C_13
REMARK                            x       y       z     vdW  Elec       q    Type
REMARK                         _______ _______ _______ _____ _____    ______ ____
ROOT
ATOM      1  C   UNL     1       2.519   3.665  18.853  0.00  0.00    +0.000 A 
ATOM      2  C   UNL     1       1.815   4.860  18.673  0.00  0.00    +0.000 A 
ATOM      3  C   UNL     1       2.450   5.974  18.114  0.00  0.00    +0.000 A 
ATOM      4  C   UNL     1       3.786   5.899  17.698  0.00  0.00    +0.000 A 
ATOM      5 CL   UNL     1       4.437   7.311  16.942  0.00  0.00    +0.000 Cl
ATOM      6  C   UNL     1       4.509   4.714  17.878  0.00  0.00    +0.000 A 
ATOM      7  C   UNL     1       3.875   3.632  18.500  0.00  0.00    +0.000 A 
ATOM      8  F   UNL     1       4.581   2.531  18.811  0.00  0.00    +0.000 F 
ENDROOT
BRANCH   6   9
ATOM      9  C   UNL     1       5.933   4.581  17.486  0.00  0.00    +0.000 C 
ATOM     10  O   UNL     1       6.795   4.462  18.353  0.00  0.00    +0.000 OA
BRANCH   9  11
ATOM     11  C   UNL     1       6.327   4.528  16.047  0.00  0.00    +0.000 A 
ATOM     12  C   UNL     1       5.600   3.716  15.183  0.00  0.00    +0.000 A 
ATOM     13  C   UNL     1       5.919   3.735  13.829  0.00  0.00    +0.000 A 
ATOM     14  C   UNL     1       6.951   4.555  13.386  0.00  0.00    +0.000 A 
ATOM     15  C   UNL     1       7.639   5.311  14.321  0.00  0.00    +0.000 A 
ATOM     16  N   UNL     1       7.363   5.309  15.645  0.00  0.00    +0.000 NA
ENDBRANCH   9  11
ENDBRANCH   6   9
BRANCH   1  17
ATOM     17  C   UNL     1       1.812   2.436  19.386  0.00  0.00    +0.000 C 
BRANCH  17  18
ATOM     18  N   UNL     1       0.781   1.997  18.442  0.00  0.00    +0.000 NA
ATOM     19  H   UNL     1       0.426   1.088  18.746  0.00  0.00    +0.000 HD
ATOM     20  H   UNL     1       1.209   1.829  17.531  0.00  0.00    +0.000 HD
ENDBRANCH  17  18
BRANCH  17  22
ATOM     21  C   UNL     1       2.194   3.229  21.796  0.00  0.00    +0.000 C 
ATOM     22  C   UNL     1       1.203   2.648  20.790  0.00  0.00    +0.000 C 
ENDBRANCH  17  22
ENDBRANCH   1  17
TORSDOF 5
ENDMDL
MODEL 5
REMARK VINA RESULT:      -7.4      1.724      2.027
REMARK  Name = 
REMARK  6 active torsions:
REMARK  status: ('A' for Active; 'I' for Inactive)
REMARK    1  A    between atoms: C_1  and  C_2
REMARK    2  A    between atoms: C_2  and  C_3
REMARK    3  A    between atoms: C_3  and  N_4
REMARK    4  A    between atoms: C_3  and  C_5
REMARK    5  A    between atoms: C_10  and  C_11
REMARK    6  A    between atoms: C_11  and  C_13
REMARK                            x       y       z     vdW  Elec       q    Type
REMARK                         _______ _______ _______ _____ _____    ______ ____
ROOT
ATOM      1  C   UNL     1       5.759   4.938  15.539  0.00  0.00    +0.000 A 
ATOM      2  C   UNL     1       5.305   6.261  15.508  0.00  0.00    +0.000 A 
ATOM      3  C   UNL     1       4.565   6.778  16.575  0.00  0.00    +0.000 A 
ATOM      4  C   UNL     1       4.295   5.991  17.703  0.00  0.00    +0.000 A 
ATOM      5 CL   UNL     1       3.447   6.763  18.996  0.00  0.00    +0.000 Cl
ATOM      6  C   UNL     1       4.733   4.662  17.750  0.00  0.00    +0.000 A 
ATOM      7  C   UNL     1       5.415   4.144  16.642  0.00  0.00    +0.000 A 
ATOM      8  F   UNL     1       5.727   2.837  16.600  0.00  0.00    +0.000 F 
ENDROOT
BRANCH   6   9
ATOM      9  C   UNL     1       4.454   3.770  18.901  0.00  0.00    +0.000 C 
ATOM     10  O   UNL     1       5.380   3.377  19.606  0.00  0.00    +0.000 OA
BRANCH   9  11
ATOM     11  C   UNL     1       3.053   3.393  19.252  0.00  0.00    +0.000 A 
ATOM     12  C   UNL     1       2.580   3.683  20.528  0.00  0.00    +0.000 A 
ATOM     13  C   UNL     1       1.249   3.405  20.821  0.00  0.00    +0.000 A 
ATOM     14  C   UNL     1       0.439   2.846  19.839  0.00  0.00    +0.000 A 
ATOM     15  C   UNL     1       1.001   2.566  18.604  0.00  0.00    +0.000 A 
ATOM     16  N   UNL     1       2.292   2.812  18.288  0.00  0.00    +0.000 NA
ENDBRANCH   9  11
ENDBRANCH   6   9
BRANCH   1  17
ATOM     17  C   UNL     1       6.626   4.401  14.420  0.00  0.00    +0.000 C 
BRANCH  17  18
ATOM     18  N   UNL     1       7.544   5.442  13.949  0.00  0.00    +0.000 NA
ATOM     19  H   UNL     1       7.769   5.258  12.969  0.00  0.00    +0.000 HD
ATOM     20  H   UNL     1       8.429   5.362  14.449  0.00  0.00    +0.000 HD
ENDBRANCH  17  18
BRANCH  17  22
ATOM     21  C   UNL     1       6.666   3.466  12.032  0.00  0.00    +0.000 C 
ATOM     22  C   UNL     1       5.808   3.828  13.241  0.00  0.00    +0.000 C 
ENDBRANCH  17  22
ENDBRANCH   1  17
TORSDOF 5
ENDMDL
MODEL 6
REMARK VINA RESULT:      -7.4      1.681      2.012
REMARK  Name = 
REMARK  6 active torsions:
REMARK  status: ('A' for Active; 'I' for Inactive)
REMARK    1  A    between atoms: C_1  and  C_2
REMARK    2  A    between atoms: C_2  and  C_3
REMARK    3  A    between atoms: C_3  and  N_4
REMARK    4  A    between atoms: C_3  and  C_5
REMARK    5  A    between atoms: C_10  and  C_11
REMARK    6  A    between atoms: C_11  and  C_13
REMARK                            x       y       z     vdW  Elec       q    Type
REMARK                         _______ _______ _______ _____ _____    ______ ____
ROOT
ATOM      1  C   UNL     1       5.777   4.944  15.539  0.00  0.00    +0.000 A 
ATOM      2  C   UNL     1       5.334   6.270  15.493  0.00  0.00    +0.000 A 
ATOM      3  C   UNL     1       4.587   6.801  16.550  0.00  0.00    +0.000 A 
ATOM      4  C   UNL     1       4.299   6.024  17.680  0.00  0.00    +0.000 A 
ATOM      5 CL   UNL     1       3.444   6.812  18.959  0.00  0.00    +0.000 Cl
ATOM      6  C   UNL     1       4.725   4.692  17.741  0.00  0.00    +0.000 A 
ATOM      7  C   UNL     1       5.415   4.160  16.644  0.00  0.00    +0.000 A 
ATOM      8  F   UNL     1       5.716   2.851  16.614  0.00  0.00    +0.000 F 
ENDROOT
BRANCH   6   9
ATOM      9  C   UNL     1       4.427   3.811  18.895  0.00  0.00    +0.000 C 
ATOM     10  O   UNL     1       5.347   3.374  19.583  0.00  0.00    +0.000 OA
BRANCH   9  11
ATOM     11  C   UNL     1       3.017   3.496  19.271  0.00  0.00    +0.000 A 
ATOM     12  C   UNL     1       2.170   2.961  18.307  0.00  0.00    +0.000 A 
ATOM     13  C   UNL     1       0.882   2.593  18.685  0.00  0.00    +0.000 A 
ATOM     14  C   UNL     1       0.484   2.774  20.005  0.00  0.00    +0.000 A 
ATOM     15  C   UNL     1       1.386   3.338  20.893  0.00  0.00    +0.000 A 
ATOM     16  N   UNL     1       2.640   3.718  20.557  0.00  0.00    +0.000 NA
ENDBRANCH   9  11
ENDBRANCH   6   9
BRANCH   1  17
ATOM     17  C   UNL     1       6.651   4.392  14.433  0.00  0.00    +0.000 C 
BRANCH  17  18
ATOM     18  N   UNL     1       7.576   5.425  13.958  0.00  0.00    +0.000 NA
ATOM     19  H   UNL     1       7.615   5.382  12.937  0.00  0.00    +0.000 HD
ATOM     20  H   UNL     1       8.520   5.202  14.273  0.00  0.00    +0.000 HD
ENDBRANCH  17  18
BRANCH  17  22
ATOM     21  C   UNL     1       6.699   3.490  12.032  0.00  0.00    +0.000 C 
ATOM     22  C   UNL     1       5.840   3.809  13.253  0.00  0.00    +0.000 C 
ENDBRANCH  17  22
ENDBRANCH   1  17
TORSDOF 5
ENDMDL
MODEL 7
REMARK VINA RESULT:      -7.1      2.395      5.403
REMARK  Name = 
REMARK  6 active torsions:
REMARK  status: ('A' for Active; 'I' for Inactive)
REMARK    1  A    between atoms: C_1  and  C_2
REMARK    2  A    between atoms: C_2  and  C_3
REMARK    3  A    between atoms: C_3  and  N_4
REMARK    4  A    between atoms: C_3  and  C_5
REMARK    5  A    between atoms: C_10  and  C_11
REMARK    6  A    between atoms: C_11  and  C_13
REMARK                            x       y       z     vdW  Elec       q    Type
REMARK                         _______ _______ _______ _____ _____    ______ ____
ROOT
ATOM      1  C   UNL     1       2.820   3.644  17.893  0.00  0.00    +0.000 A 
ATOM      2  C   UNL     1       1.844   4.439  18.505  0.00  0.00    +0.000 A 
ATOM      3  C   UNL     1       1.955   5.833  18.484  0.00  0.00    +0.000 A 
ATOM      4  C   UNL     1       3.025   6.453  17.824  0.00  0.00    +0.000 A 
ATOM      5 CL   UNL     1       3.011   8.181  17.790  0.00  0.00    +0.000 Cl
ATOM      6  C   UNL     1       4.016   5.675  17.214  0.00  0.00    +0.000 A 
ATOM      7  C   UNL     1       3.921   4.280  17.304  0.00  0.00    +0.000 A 
ATOM      8  F   UNL     1       4.924   3.511  16.848  0.00  0.00    +0.000 F 
ENDROOT
BRANCH   6   9
ATOM      9  C   UNL     1       5.187   6.270  16.526  0.00  0.00    +0.000 C 
ATOM     10  O   UNL     1       5.191   6.366  15.301  0.00  0.00    +0.000 OA
BRANCH   9  11
ATOM     11  C   UNL     1       6.336   6.813  17.308  0.00  0.00    +0.000 A 
ATOM     12  C   UNL     1       6.940   6.003  18.264  0.00  0.00    +0.000 A 
ATOM     13  C   UNL     1       8.062   6.485  18.930  0.00  0.00    +0.000 A 
ATOM     14  C   UNL     1       8.540   7.754  18.625  0.00  0.00    +0.000 A 
ATOM     15  C   UNL     1       7.861   8.503  17.677  0.00  0.00    +0.000 A 
ATOM     16  N   UNL     1       6.761   8.071  17.019  0.00  0.00    +0.000 NA
ENDBRANCH   9  11
ENDBRANCH   6   9
BRANCH   1  17
ATOM     17  C   UNL     1       2.660   2.139  17.848  0.00  0.00    +0.000 C 
BRANCH  17  18
ATOM     18  N   UNL     1       1.354   1.754  18.390  0.00  0.00    +0.000 NA
ATOM     19  H   UNL     1       1.125   0.817  18.051  0.00  0.00    +0.000 HD
ATOM     20  H   UNL     1       0.635   2.365  18.002  0.00  0.00    +0.000 HD
ENDBRANCH  17  18
BRANCH  17  22
ATOM     21  C   UNL     1       4.221   2.065  19.883  0.00  0.00    +0.000 C 
ATOM     22  C   UNL     1       3.793   1.388  18.583  0.00  0.00    +0.000 C 
ENDBRANCH  17  22
ENDBRANCH   1  17
TORSDOF 5
ENDMDL
MODEL 8
REMARK VINA RESULT:      -7.1      2.309      6.146
REMARK  Name = 
REMARK  6 active torsions:
REMARK  status: ('A' for Active; 'I' for Inactive)
REMARK    1  A    between atoms: C_1  and  C_2
REMARK    2  A    between atoms: C_2  and  C_3
REMARK    3  A    between atoms: C_3  and  N_4
REMARK    4  A    between atoms: C_3  and  C_5
REMARK    5  A    between atoms: C_10  and  C_11
REMARK    6  A    between atoms: C_11  and  C_13
REMARK                            x       y       z     vdW  Elec       q    Type
REMARK                         _______ _______ _______ _____ _____    ______ ____
ROOT
ATOM      1  C   UNL     1       4.330   3.732  18.483  0.00  0.00    +0.000 A 
ATOM      2  C   UNL     1       5.264   4.104  19.456  0.00  0.00    +0.000 A 
ATOM      3  C   UNL     1       6.263   5.034  19.154  0.00  0.00    +0.000 A 
ATOM      4  C   UNL     1       6.324   5.629  17.886  0.00  0.00    +0.000 A 
ATOM      5 CL   UNL     1       7.549   6.827  17.656  0.00  0.00    +0.000 Cl
ATOM      6  C   UNL     1       5.405   5.264  16.896  0.00  0.00    +0.000 A 
ATOM      7  C   UNL     1       4.453   4.282  17.199  0.00  0.00    +0.000 A 
ATOM      8  F   UNL     1       3.647   3.811  16.232  0.00  0.00    +0.000 F 
ENDROOT
BRANCH   6   9
ATOM      9  C   UNL     1       5.435   5.835  15.529  0.00  0.00    +0.000 C 
ATOM     10  O   UNL     1       4.953   6.945  15.321  0.00  0.00    +0.000 OA
BRANCH   9  11
ATOM     11  C   UNL     1       6.101   5.103  14.411  0.00  0.00    +0.000 A 
ATOM     12  C   UNL     1       5.400   4.093  13.759  0.00  0.00    +0.000 A 
ATOM     13  C   UNL     1       5.995   3.473  12.665  0.00  0.00    +0.000 A 
ATOM     14  C   UNL     1       7.264   3.874  12.263  0.00  0.00    +0.000 A 
ATOM     15  C   UNL     1       7.899   4.871  12.986  0.00  0.00    +0.000 A 
ATOM     16  N   UNL     1       7.356   5.487  14.061  0.00  0.00    +0.000 NA
ENDBRANCH   9  11
ENDBRANCH   6   9
BRANCH   1  17
ATOM     17  C   UNL     1       3.201   2.785  18.831  0.00  0.00    +0.000 C 
BRANCH  17  18
ATOM     18  N   UNL     1       3.379   1.510  18.130  0.00  0.00    +0.000 NA
ATOM     19  H   UNL     1       2.835   1.535  17.265  0.00  0.00    +0.000 HD
ATOM     20  H   UNL     1       2.966   0.760  18.686  0.00  0.00    +0.000 HD
ENDBRANCH  17  18
BRANCH  17  22
ATOM     21  C   UNL     1       0.736   2.918  19.528  0.00  0.00    +0.000 C 
ATOM     22  C   UNL     1       1.803   3.373  18.535  0.00  0.00    +0.000 C 
ENDBRANCH  17  22
ENDBRANCH   1  17
TORSDOF 5
ENDMDL
MODEL 9
REMARK VINA RESULT:      -7.0      2.857      4.232
REMARK  Name = 
REMARK  6 active torsions:
REMARK  status: ('A' for Active; 'I' for Inactive)
REMARK    1  A    between atoms: C_1  and  C_2
REMARK    2  A    between atoms: C_2  and  C_3
REMARK    3  A    between atoms: C_3  and  N_4
REMARK    4  A    between atoms: C_3  and  C_5
REMARK    5  A    between atoms: C_10  and  C_11
REMARK    6  A    between atoms: C_11  and  C_13
REMARK                            x       y       z     vdW  Elec       q    Type
REMARK                         _______ _______ _______ _____ _____    ______ ____
ROOT
ATOM      1  C   UNL     1       5.352   4.522  17.577  0.00  0.00    +0.000 A 
ATOM      2  C   UNL     1       4.682   3.568  16.803  0.00  0.00    +0.000 A 
ATOM      3  C   UNL     1       3.333   3.288  17.042  0.00  0.00    +0.000 A 
ATOM      4  C   UNL     1       2.626   3.981  18.035  0.00  0.00    +0.000 A 
ATOM      5 CL   UNL     1       0.944   3.612  18.181  0.00  0.00    +0.000 Cl
ATOM      6  C   UNL     1       3.281   4.932  18.825  0.00  0.00    +0.000 A 
ATOM      7  C   UNL     1       4.649   5.150  18.614  0.00  0.00    +0.000 A 
ATOM      8  F   UNL     1       5.334   5.954  19.445  0.00  0.00    +0.000 F 
ENDROOT
BRANCH   6   9
ATOM      9  C   UNL     1       2.597   5.676  19.910  0.00  0.00    +0.000 C 
ATOM     10  O   UNL     1       2.449   5.150  21.011  0.00  0.00    +0.000 OA
BRANCH   9  11
ATOM     11  C   UNL     1       2.140   7.082  19.701  0.00  0.00    +0.000 A 
ATOM     12  C   UNL     1       2.319   7.666  18.452  0.00  0.00    +0.000 A 
ATOM     13  C   UNL     1       1.816   8.946  18.239  0.00  0.00    +0.000 A 
ATOM     14  C   UNL     1       1.158   9.598  19.276  0.00  0.00    +0.000 A 
ATOM     15  C   UNL     1       1.047   8.950  20.496  0.00  0.00    +0.000 A 
ATOM     16  N   UNL     1       1.534   7.712  20.741  0.00  0.00    +0.000 NA
ENDBRANCH   9  11
ENDBRANCH   6   9
BRANCH   1  17
ATOM     17  C   UNL     1       6.791   4.882  17.269  0.00  0.00    +0.000 C 
BRANCH  17  18
ATOM     18  N   UNL     1       7.666   4.433  18.354  0.00  0.00    +0.000 NA
ATOM     19  H   UNL     1       8.492   5.035  18.378  0.00  0.00    +0.000 HD
ATOM     20  H   UNL     1       8.020   3.500  18.138  0.00  0.00    +0.000 HD
ENDBRANCH  17  18
BRANCH  17  22
ATOM     21  C   UNL     1       7.844   7.082  18.063  0.00  0.00    +0.000 C 
ATOM     22  C   UNL     1       6.994   6.390  17.000  0.00  0.00    +0.000 C 
ENDBRANCH  17  22
ENDBRANCH   1  17
TORSDOF 5
ENDMDL
