MODEL 1
REMARK VINA RESULT:      -6.4      0.000      0.000
REMARK  Name = 
REMARK  6 active torsions:
REMARK  status: ('A' for Active; 'I' for Inactive)
REMARK    1  A    between atoms: C_2  and  C_4
REMARK    2  A    between atoms: C_4  and  O_5
REMARK    3  A    between atoms: O_5  and  C_6
REMARK    4  A    between atoms: C_12  and  C_13
REMARK    5  A    between atoms: C_15  and  C_16
REMARK    6  A    between atoms: C_16  and  N_17
REMARK                            x       y       z     vdW  Elec       q    Type
REMARK                         _______ _______ _______ _____ _____    ______ ____
ROOT
ATOM      1  C   UNL     1       4.996   4.752  17.349  0.00  0.00    +0.000 A 
ATOM      2  C   UNL     1       5.099   4.866  18.743  0.00  0.00    +0.000 A 
ATOM      3  C   UNL     1       6.235   5.402  19.342  0.00  0.00    +0.000 A 
ATOM      4  C   UNL     1       7.299   5.831  18.556  0.00  0.00    +0.000 A 
ATOM      5  F   UNL     1       8.411   6.338  19.142  0.00  0.00    +0.000 F 
ATOM      6  C   UNL     1       7.215   5.759  17.165  0.00  0.00    +0.000 A 
ATOM      7  C   UNL     1       6.060   5.244  16.523  0.00  0.00    +0.000 A 
ENDROOT
BRANCH   7   8
ATOM      8  C   UNL     1       5.930   5.285  14.998  0.00  0.00    +0.000 C 
ATOM      9  C   UNL     1       7.098   5.133  14.041  0.00  0.00    +0.000 C 
ATOM     10  C   UNL     1       6.252   3.906  14.406  0.00  0.00    +0.000 C 
BRANCH  10  11
ATOM     11  C   UNL     1       5.448   3.467  13.167  0.00  0.00    +0.000 C 
BRANCH  11  12
ATOM     12  N   UNL     1       6.326   2.771  12.233  0.00  0.00    +0.000 NA
ATOM     13  H   UNL     1       5.896   2.811  11.279  0.00  0.00    +0.000 HD
ATOM     14  H   UNL     1       6.372   1.764  12.511  0.00  0.00    +0.000 HD
ENDBRANCH  11  12
ENDBRANCH  10  11
ENDBRANCH   7   8
BRANCH   1  15
ATOM     15  O   UNL     1       3.853   4.174  16.882  0.00  0.00    +0.000 OA
BRANCH  15  16
ATOM     16  C   UNL     1       3.174   3.095  17.423  0.00  0.00    +0.000 C 
BRANCH  16  18
ATOM     17  C   UNL     1       1.066   2.735  18.662  0.00  0.00    +0.000 C 
ATOM     18  C   UNL     1       1.799   3.507  17.858  0.00  0.00    +0.000 C 
ATOM     19  F   UNL     1       1.276   4.673  17.391  0.00  0.00    +0.000 F 
ENDBRANCH  16  18
ENDBRANCH  15  16
ENDBRANCH   1  15
TORSDOF 6
ENDMDL
MODEL 2
REMARK VINA RESULT:      -6.3      3.011      3.855
REMARK  Name = 
REMARK  6 active torsions:
REMARK  status: ('A' for Active; 'I' for Inactive)
REMARK    1  A    between atoms: C_2  and  C_4
REMARK    2  A    between atoms: C_4  and  O_5
REMARK    3  A    between atoms: O_5  and  C_6
REMARK    4  A    between atoms: C_12  and  C_13
REMARK    5  A    between atoms: C_15  and  C_16
REMARK    6  A    between atoms: C_16  and  N_17
REMARK                            x       y       z     vdW  Elec       q    Type
REMARK                         _______ _______ _______ _____ _____    ______ ____
ROOT
ATOM      1  C   UNL     1       3.325   5.302  19.236  0.00  0.00    +0.000 A 
ATOM      2  C   UNL     1       2.445   5.914  20.141  0.00  0.00    +0.000 A 
ATOM      3  C   UNL     1       1.957   7.198  19.917  0.00  0.00    +0.000 A 
ATOM      4  C   UNL     1       2.346   7.902  18.782  0.00  0.00    +0.000 A 
ATOM      5  F   UNL     1       1.882   9.159  18.573  0.00  0.00    +0.000 F 
ATOM      6  C   UNL     1       3.197   7.309  17.848  0.00  0.00    +0.000 A 
ATOM      7  C   UNL     1       3.689   5.992  18.033  0.00  0.00    +0.000 A 
ENDROOT
BRANCH   7   8
ATOM      8  C   UNL     1       4.519   5.308  16.943  0.00  0.00    +0.000 C 
ATOM      9  C   UNL     1       5.237   6.050  15.831  0.00  0.00    +0.000 C 
ATOM     10  C   UNL     1       6.001   5.673  17.106  0.00  0.00    +0.000 C 
BRANCH  10  11
ATOM     11  C   UNL     1       7.035   4.583  16.765  0.00  0.00    +0.000 C 
BRANCH  11  12
ATOM     12  N   UNL     1       7.845   4.288  17.941  0.00  0.00    +0.000 NA
ATOM     13  H   UNL     1       8.852   4.438  17.699  0.00  0.00    +0.000 HD
ATOM     14  H   UNL     1       7.730   3.275  18.176  0.00  0.00    +0.000 HD
ENDBRANCH  11  12
ENDBRANCH  10  11
ENDBRANCH   7   8
BRANCH   1  15
ATOM     15  O   UNL     1       3.766   4.060  19.584  0.00  0.00    +0.000 OA
BRANCH  15  16
ATOM     16  C   UNL     1       3.009   2.998  20.051  0.00  0.00    +0.000 C 
BRANCH  16  18
ATOM     17  C   UNL     1       2.701   2.033  17.796  0.00  0.00    +0.000 C 
ATOM     18  C   UNL     1       2.161   2.437  18.948  0.00  0.00    +0.000 C 
ATOM     19  F   UNL     1       0.812   2.376  19.113  0.00  0.00    +0.000 F 
ENDBRANCH  16  18
ENDBRANCH  15  16
ENDBRANCH   1  15
TORSDOF 6
ENDMDL
MODEL 3
REMARK VINA RESULT:      -6.3      1.175      1.405
REMARK  Name = 
REMARK  6 active torsions:
REMARK  status: ('A' for Active; 'I' for Inactive)
REMARK    1  A    between atoms: C_2  and  C_4
REMARK    2  A    between atoms: C_4  and  O_5
REMARK    3  A    between atoms: O_5  and  C_6
REMARK    4  A    between atoms: C_12  and  C_13
REMARK    5  A    between atoms: C_15  and  C_16
REMARK    6  A    between atoms: C_16  and  N_17
REMARK                            x       y       z     vdW  Elec       q    Type
REMARK                         _______ _______ _______ _____ _____    ______ ____
ROOT
ATOM      1  C   UNL     1       5.153   4.099  17.560  0.00  0.00    +0.000 A 
ATOM      2  C   UNL     1       5.079   4.647  18.849  0.00  0.00    +0.000 A 
ATOM      3  C   UNL     1       6.142   5.363  19.392  0.00  0.00    +0.000 A 
ATOM      4  C   UNL     1       7.309   5.540  18.656  0.00  0.00    +0.000 A 
ATOM      5  F   UNL     1       8.350   6.223  19.193  0.00  0.00    +0.000 F 
ATOM      6  C   UNL     1       7.403   5.032  17.360  0.00  0.00    +0.000 A 
ATOM      7  C   UNL     1       6.326   4.323  16.768  0.00  0.00    +0.000 A 
ENDROOT
BRANCH   7   8
ATOM      8  C   UNL     1       6.394   3.881  15.304  0.00  0.00    +0.000 C 
ATOM      9  C   UNL     1       5.373   4.268  14.250  0.00  0.00    +0.000 C 
ATOM     10  C   UNL     1       6.658   5.094  14.400  0.00  0.00    +0.000 C 
BRANCH  10  11
ATOM     11  C   UNL     1       7.544   4.868  13.160  0.00  0.00    +0.000 C 
BRANCH  11  12
ATOM     12  N   UNL     1       8.600   5.872  13.122  0.00  0.00    +0.000 NA
ATOM     13  H   UNL     1       8.532   6.461  13.985  0.00  0.00    +0.000 HD
ATOM     14  H   UNL     1       8.429   6.501  12.303  0.00  0.00    +0.000 HD
ENDBRANCH  11  12
ENDBRANCH  10  11
ENDBRANCH   7   8
BRANCH   1  15
ATOM     15  O   UNL     1       4.064   3.386  17.154  0.00  0.00    +0.000 OA
BRANCH  15  16
ATOM     16  C   UNL     1       3.254   2.573  17.930  0.00  0.00    +0.000 C 
BRANCH  16  18
ATOM     17  C   UNL     1       0.904   2.526  18.695  0.00  0.00    +0.000 C 
ATOM     18  C   UNL     1       1.877   3.160  18.039  0.00  0.00    +0.000 C 
ATOM     19  F   UNL     1       1.610   4.343  17.423  0.00  0.00    +0.000 F 
ENDBRANCH  16  18
ENDBRANCH  15  16
ENDBRANCH   1  15
TORSDOF 6
ENDMDL
MODEL 4
REMARK VINA RESULT:      -6.3      3.514      5.015
REMARK  Name = 
REMARK  6 active torsions:
REMARK  status: ('A' for Active; 'I' for Inactive)
REMARK    1  A    between atoms: C_2  and  C_4
REMARK    2  A    between atoms: C_4  and  O_5
REMARK    3  A    between atoms: O_5  and  C_6
REMARK    4  A    between atoms: C_12  and  C_13
REMARK    5  A    between atoms: C_15  and  C_16
REMARK    6  A    between atoms: C_16  and  N_17
REMARK                            x       y       z     vdW  Elec       q    Type
REMARK                         _______ _______ _______ _____ _____    ______ ____
ROOT
ATOM      1  C   UNL     1       5.090   4.400  18.180  0.00  0.00    +0.000 A 
ATOM      2  C   UNL     1       5.882   4.216  17.037  0.00  0.00    +0.000 A 
ATOM      3  C   UNL     1       5.846   5.122  15.980  0.00  0.00    +0.000 A 
ATOM      4  C   UNL     1       5.007   6.229  16.042  0.00  0.00    +0.000 A 
ATOM      5  F   UNL     1       4.961   7.101  15.005  0.00  0.00    +0.000 F 
ATOM      6  C   UNL     1       4.229   6.456  17.178  0.00  0.00    +0.000 A 
ATOM      7  C   UNL     1       4.265   5.568  18.283  0.00  0.00    +0.000 A 
ENDROOT
BRANCH   7   8
ATOM      8  C   UNL     1       3.503   5.893  19.571  0.00  0.00    +0.000 C 
ATOM      9  C   UNL     1       2.375   6.905  19.659  0.00  0.00    +0.000 C 
ATOM     10  C   UNL     1       2.047   5.420  19.453  0.00  0.00    +0.000 C 
BRANCH  10  11
ATOM     11  C   UNL     1       1.379   4.875  20.730  0.00  0.00    +0.000 C 
BRANCH  11  12
ATOM     12  N   UNL     1       0.620   3.672  20.412  0.00  0.00    +0.000 NA
ATOM     13  H   UNL     1      -0.370   3.946  20.209  0.00  0.00    +0.000 HD
ATOM     14  H   UNL     1       0.605   3.057  21.258  0.00  0.00    +0.000 HD
ENDBRANCH  11  12
ENDBRANCH  10  11
ENDBRANCH   7   8
BRANCH   1  15
ATOM     15  O   UNL     1       5.182   3.426  19.130  0.00  0.00    +0.000 OA
BRANCH  15  16
ATOM     16  C   UNL     1       4.164   2.617  19.608  0.00  0.00    +0.000 C 
BRANCH  16  18
ATOM     17  C   UNL     1       2.512   2.205  17.816  0.00  0.00    +0.000 C 
ATOM     18  C   UNL     1       3.585   1.794  18.495  0.00  0.00    +0.000 C 
ATOM     19  F   UNL     1       4.144   0.589  18.200  0.00  0.00    +0.000 F 
ENDBRANCH  16  18
ENDBRANCH  15  16
ENDBRANCH   1  15
TORSDOF 6
ENDMDL
MODEL 5
REMARK VINA RESULT:      -6.2      3.263      5.025
REMARK  Name = 
REMARK  6 active torsions:
REMARK  status: ('A' for Active; 'I' for Inactive)
REMARK    1  A    between atoms: C_2  and  C_4
REMARK    2  A    between atoms: C_4  and  O_5
REMARK    3  A    between atoms: O_5  and  C_6
REMARK    4  A    between atoms: C_12  and  C_13
REMARK    5  A    between atoms: C_15  and  C_16
REMARK    6  A    between atoms: C_16  and  N_17
REMARK                            x       y       z     vdW  Elec       q    Type
REMARK                         _______ _______ _______ _____ _____    ______ ____
ROOT
ATOM      1  C   UNL     1       2.488   5.556  19.290  0.00  0.00    +0.000 A 
ATOM      2  C   UNL     1       1.613   4.998  20.234  0.00  0.00    +0.000 A 
ATOM      3  C   UNL     1       1.190   3.675  20.134  0.00  0.00    +0.000 A 
ATOM      4  C   UNL     1       1.630   2.883  19.079  0.00  0.00    +0.000 A 
ATOM      5  F   UNL     1       1.204   1.600  18.974  0.00  0.00    +0.000 F 
ATOM      6  C   UNL     1       2.524   3.400  18.140  0.00  0.00    +0.000 A 
ATOM      7  C   UNL     1       2.995   4.734  18.231  0.00  0.00    +0.000 A 
ENDROOT
BRANCH   7   8
ATOM      8  C   UNL     1       4.069   5.250  17.269  0.00  0.00    +0.000 C 
ATOM      9  C   UNL     1       5.190   6.191  17.671  0.00  0.00    +0.000 C 
ATOM     10  C   UNL     1       5.440   4.678  17.657  0.00  0.00    +0.000 C 
BRANCH  10  11
ATOM     11  C   UNL     1       6.413   4.344  16.510  0.00  0.00    +0.000 C 
BRANCH  11  12
ATOM     12  N   UNL     1       7.769   4.232  17.033  0.00  0.00    +0.000 NA
ATOM     13  H   UNL     1       8.408   4.801  16.429  0.00  0.00    +0.000 HD
ATOM     14  H   UNL     1       8.073   3.234  16.952  0.00  0.00    +0.000 HD
ENDBRANCH  11  12
ENDBRANCH  10  11
ENDBRANCH   7   8
BRANCH   1  15
ATOM     15  O   UNL     1       2.797   6.871  19.472  0.00  0.00    +0.000 OA
BRANCH  15  16
ATOM     16  C   UNL     1       1.920   7.940  19.552  0.00  0.00    +0.000 C 
BRANCH  16  18
ATOM     17  C   UNL     1       1.381   9.952  18.222  0.00  0.00    +0.000 C 
ATOM     18  C   UNL     1       1.995   8.770  18.305  0.00  0.00    +0.000 C 
ATOM     19  F   UNL     1       2.671   8.289  17.226  0.00  0.00    +0.000 F 
ENDBRANCH  16  18
ENDBRANCH  15  16
ENDBRANCH   1  15
TORSDOF 6
ENDMDL
MODEL 6
REMARK VINA RESULT:      -6.2      3.403      5.980
REMARK  Name = 
REMARK  6 active torsions:
REMARK  status: ('A' for Active; 'I' for Inactive)
REMARK    1  A    between atoms: C_2  and  C_4
REMARK    2  A    between atoms: C_4  and  O_5
REMARK    3  A    between atoms: O_5  and  C_6
REMARK    4  A    between atoms: C_12  and  C_13
REMARK    5  A    between atoms: C_15  and  C_16
REMARK    6  A    between atoms: C_16  and  N_17
REMARK                            x       y       z     vdW  Elec       q    Type
REMARK                         _______ _______ _______ _____ _____    ______ ____
ROOT
ATOM      1  C   UNL     1       3.715   4.088  17.855  0.00  0.00    +0.000 A 
ATOM      2  C   UNL     1       3.293   2.775  17.600  0.00  0.00    +0.000 A 
ATOM      3  C   UNL     1       2.075   2.301  18.082  0.00  0.00    +0.000 A 
ATOM      4  C   UNL     1       1.256   3.133  18.838  0.00  0.00    +0.000 A 
ATOM      5  F   UNL     1       0.078   2.665  19.320  0.00  0.00    +0.000 F 
ATOM      6  C   UNL     1       1.635   4.453  19.084  0.00  0.00    +0.000 A 
ATOM      7  C   UNL     1       2.855   4.974  18.582  0.00  0.00    +0.000 A 
ENDROOT
BRANCH   7   8
ATOM      8  C   UNL     1       3.200   6.456  18.753  0.00  0.00    +0.000 C 
ATOM      9  C   UNL     1       3.748   7.335  17.643  0.00  0.00    +0.000 C 
ATOM     10  C   UNL     1       2.239   7.318  17.921  0.00  0.00    +0.000 C 
BRANCH  10  11
ATOM     11  C   UNL     1       1.826   8.679  18.511  0.00  0.00    +0.000 C 
BRANCH  11  12
ATOM     12  N   UNL     1       1.822   9.690  17.460  0.00  0.00    +0.000 NA
ATOM     13  H   UNL     1       0.842  10.036  17.333  0.00  0.00    +0.000 HD
ATOM     14  H   UNL     1       2.110   9.235  16.563  0.00  0.00    +0.000 HD
ENDBRANCH  11  12
ENDBRANCH  10  11
ENDBRANCH   7   8
BRANCH   1  15
ATOM     15  O   UNL     1       4.943   4.422  17.365  0.00  0.00    +0.000 OA
BRANCH  15  16
ATOM     16  C   UNL     1       5.432   4.190  16.090  0.00  0.00    +0.000 C 
BRANCH  16  18
ATOM     17  C   UNL     1       7.633   4.584  17.143  0.00  0.00    +0.000 C 
ATOM     18  C   UNL     1       6.901   4.492  16.032  0.00  0.00    +0.000 C 
ATOM     19  F   UNL     1       7.485   4.714  14.823  0.00  0.00    +0.000 F 
ENDBRANCH  16  18
ENDBRANCH  15  16
ENDBRANCH   1  15
TORSDOF 6
ENDMDL
MODEL 7
REMARK VINA RESULT:      -6.2      3.339      5.992
REMARK  Name = 
REMARK  6 active torsions:
REMARK  status: ('A' for Active; 'I' for Inactive)
REMARK    1  A    between atoms: C_2  and  C_4
REMARK    2  A    between atoms: C_4  and  O_5
REMARK    3  A    between atoms: O_5  and  C_6
REMARK    4  A    between atoms: C_12  and  C_13
REMARK    5  A    between atoms: C_15  and  C_16
REMARK    6  A    between atoms: C_16  and  N_17
REMARK                            x       y       z     vdW  Elec       q    Type
REMARK                         _______ _______ _______ _____ _____    ______ ____
ROOT
ATOM      1  C   UNL     1       4.260   3.856  18.877  0.00  0.00    +0.000 A 
ATOM      2  C   UNL     1       3.964   2.494  18.724  0.00  0.00    +0.000 A 
ATOM      3  C   UNL     1       2.652   2.052  18.575  0.00  0.00    +0.000 A 
ATOM      4  C   UNL     1       1.606   2.967  18.584  0.00  0.00    +0.000 A 
ATOM      5  F   UNL     1       0.327   2.534  18.455  0.00  0.00    +0.000 F 
ATOM      6  C   UNL     1       1.869   4.332  18.704  0.00  0.00    +0.000 A 
ATOM      7  C   UNL     1       3.197   4.816  18.829  0.00  0.00    +0.000 A 
ENDROOT
BRANCH   7   8
ATOM      8  C   UNL     1       3.482   6.321  18.835  0.00  0.00    +0.000 C 
ATOM      9  C   UNL     1       3.869   7.118  17.603  0.00  0.00    +0.000 C 
ATOM     10  C   UNL     1       2.399   7.064  18.039  0.00  0.00    +0.000 C 
BRANCH  10  11
ATOM     11  C   UNL     1       1.979   8.455  18.552  0.00  0.00    +0.000 C 
BRANCH  11  12
ATOM     12  N   UNL     1       1.924   9.393  17.438  0.00  0.00    +0.000 NA
ATOM     13  H   UNL     1       2.801   9.295  16.875  0.00  0.00    +0.000 HD
ATOM     14  H   UNL     1       1.910  10.365  17.824  0.00  0.00    +0.000 HD
ENDBRANCH  11  12
ENDBRANCH  10  11
ENDBRANCH   7   8
BRANCH   1  15
ATOM     15  O   UNL     1       5.577   4.162  19.054  0.00  0.00    +0.000 OA
BRANCH  15  16
ATOM     16  C   UNL     1       6.468   4.632  18.103  0.00  0.00    +0.000 C 
BRANCH  16  18
ATOM     17  C   UNL     1       7.574   6.828  17.852  0.00  0.00    +0.000 C 
ATOM     18  C   UNL     1       7.232   5.807  18.640  0.00  0.00    +0.000 C 
ATOM     19  F   UNL     1       7.614   5.810  19.946  0.00  0.00    +0.000 F 
ENDBRANCH  16  18
ENDBRANCH  15  16
ENDBRANCH   1  15
TORSDOF 6
ENDMDL
MODEL 8
REMARK VINA RESULT:      -6.2      1.486      4.447
REMARK  Name = 
REMARK  6 active torsions:
REMARK  status: ('A' for Active; 'I' for Inactive)
REMARK    1  A    between atoms: C_2  and  C_4
REMARK    2  A    between atoms: C_4  and  O_5
REMARK    3  A    between atoms: O_5  and  C_6
REMARK    4  A    between atoms: C_12  and  C_13
REMARK    5  A    between atoms: C_15  and  C_16
REMARK    6  A    between atoms: C_16  and  N_17
REMARK                            x       y       z     vdW  Elec       q    Type
REMARK                         _______ _______ _______ _____ _____    ______ ____
ROOT
ATOM      1  C   UNL     1       5.856   4.519  17.767  0.00  0.00    +0.000 A 
ATOM      2  C   UNL     1       5.323   3.956  18.936  0.00  0.00    +0.000 A 
ATOM      3  C   UNL     1       4.032   3.436  18.964  0.00  0.00    +0.000 A 
ATOM      4  C   UNL     1       3.243   3.475  17.820  0.00  0.00    +0.000 A 
ATOM      5  F   UNL     1       1.980   2.982  17.853  0.00  0.00    +0.000 F 
ATOM      6  C   UNL     1       3.754   4.001  16.633  0.00  0.00    +0.000 A 
ATOM      7  C   UNL     1       5.075   4.512  16.565  0.00  0.00    +0.000 A 
ENDROOT
BRANCH   7   8
ATOM      8  C   UNL     1       5.666   4.972  15.229  0.00  0.00    +0.000 C 
ATOM      9  C   UNL     1       7.134   4.851  14.862  0.00  0.00    +0.000 C 
ATOM     10  C   UNL     1       6.151   3.758  14.424  0.00  0.00    +0.000 C 
BRANCH  10  11
ATOM     11  C   UNL     1       5.987   3.819  12.893  0.00  0.00    +0.000 C 
BRANCH  11  12
ATOM     12  N   UNL     1       6.111   2.479  12.332  0.00  0.00    +0.000 NA
ATOM     13  H   UNL     1       6.340   2.563  11.314  0.00  0.00    +0.000 HD
ATOM     14  H   UNL     1       5.182   2.003  12.403  0.00  0.00    +0.000 HD
ENDBRANCH  11  12
ENDBRANCH  10  11
ENDBRANCH   7   8
BRANCH   1  15
ATOM     15  O   UNL     1       7.115   5.031  17.875  0.00  0.00    +0.000 OA
BRANCH  15  16
ATOM     16  C   UNL     1       7.614   5.832  18.889  0.00  0.00    +0.000 C 
BRANCH  16  18
ATOM     17  C   UNL     1       7.323   7.688  17.283  0.00  0.00    +0.000 C 
ATOM     18  C   UNL     1       7.934   7.201  18.365  0.00  0.00    +0.000 C 
ATOM     19  F   UNL     1       8.893   7.941  18.984  0.00  0.00    +0.000 F 
ENDBRANCH  16  18
ENDBRANCH  15  16
ENDBRANCH   1  15
TORSDOF 6
ENDMDL
MODEL 9
REMARK VINA RESULT:      -6.2      3.709      4.943
REMARK  Name = 
REMARK  6 active torsions:
REMARK  status: ('A' for Active; 'I' for Inactive)
REMARK    1  A    between atoms: C_2  and  C_4
REMARK    2  A    between atoms: C_4  and  O_5
REMARK    3  A    between atoms: O_5  and  C_6
REMARK    4  A    between atoms: C_12  and  C_13
REMARK    5  A    between atoms: C_15  and  C_16
REMARK    6  A    between atoms: C_16  and  N_17
REMARK                            x       y       z     vdW  Elec       q    Type
REMARK                         _______ _______ _______ _____ _____    ______ ____
ROOT
ATOM      1  C   UNL     1       2.573   4.263  17.706  0.00  0.00    +0.000 A 
ATOM      2  C   UNL     1       3.550   3.343  17.298  0.00  0.00    +0.000 A 
ATOM      3  C   UNL     1       4.824   3.761  16.923  0.00  0.00    +0.000 A 
ATOM      4  C   UNL     1       5.145   5.114  16.942  0.00  0.00    +0.000 A 
ATOM      5  F   UNL     1       6.381   5.521  16.561  0.00  0.00    +0.000 F 
ATOM      6  C   UNL     1       4.205   6.051  17.372  0.00  0.00    +0.000 A 
ATOM      7  C   UNL     1       2.908   5.655  17.787  0.00  0.00    +0.000 A 
ENDROOT
BRANCH   7   8
ATOM      8  C   UNL     1       1.930   6.676  18.373  0.00  0.00    +0.000 C 
ATOM      9  C   UNL     1       2.242   7.569  19.560  0.00  0.00    +0.000 C 
ATOM     10  C   UNL     1       2.452   8.100  18.136  0.00  0.00    +0.000 C 
BRANCH  10  11
ATOM     11  C   UNL     1       1.406   9.195  17.852  0.00  0.00    +0.000 C 
BRANCH  11  12
ATOM     12  N   UNL     1       2.078  10.466  17.608  0.00  0.00    +0.000 NA
ATOM     13  H   UNL     1       1.610  11.207  18.180  0.00  0.00    +0.000 HD
ATOM     14  H   UNL     1       1.948  10.721  16.602  0.00  0.00    +0.000 HD
ENDBRANCH  11  12
ENDBRANCH  10  11
ENDBRANCH   7   8
BRANCH   1  15
ATOM     15  O   UNL     1       1.352   3.738  18.010  0.00  0.00    +0.000 OA
BRANCH  15  16
ATOM     16  C   UNL     1       1.063   2.781  18.969  0.00  0.00    +0.000 C 
BRANCH  16  18
ATOM     17  C   UNL     1       1.518   2.707  21.397  0.00  0.00    +0.000 C 
ATOM     18  C   UNL     1       1.081   3.392  20.339  0.00  0.00    +0.000 C 
ATOM     19  F   UNL     1       0.608   4.656  20.509  0.00  0.00    +0.000 F 
ENDBRANCH  16  18
ENDBRANCH  15  16
ENDBRANCH   1  15
TORSDOF 6
ENDMDL
