MODEL 1
REMARK VINA RESULT:      -8.0      0.000      0.000
REMARK  Name = 
REMARK  5 active torsions:
REMARK  status: ('A' for Active; 'I' for Inactive)
REMARK    1  A    between atoms: C_4  and  C_5
REMARK    2  A    between atoms: C_5  and  O_6
REMARK    3  A    between atoms: C_12  and  C_13
REMARK    4  A    between atoms: C_16  and  C_17
REMARK    5  A    between atoms: C_17  and  N_18
REMARK                            x       y       z     vdW  Elec       q    Type
REMARK                         _______ _______ _______ _____ _____    ______ ____
ROOT
ATOM      1  O   UNL     1      -0.776  13.769  19.180  0.00  0.00    +0.000 OA
ATOM      2  C   UNL     1      -1.240  13.311  20.210  0.00  0.00    +0.000 C 
ATOM      3  O   UNL     1      -1.994  14.068  21.069  0.00  0.00    +0.000 OA
ATOM      4  C   UNL     1      -2.298  13.297  22.256  0.00  0.00    +0.000 C 
ATOM      5  C   UNL     1      -1.859  11.884  21.930  0.00  0.00    +0.000 C 
ATOM      6  C   UNL     1      -0.993  11.198  22.974  0.00  0.00    +0.000 C 
ATOM      7  O   UNL     1      -0.558   9.909  22.495  0.00  0.00    +0.000 OA
ATOM      8  C   UNL     1      -0.049   9.946  21.211  0.00  0.00    +0.000 A 
ATOM      9  C   UNL     1       0.749   8.862  20.843  0.00  0.00    +0.000 A 
ATOM     10  C   UNL     1       1.339   8.797  19.567  0.00  0.00    +0.000 A 
ATOM     11  C   UNL     1       1.080   9.859  18.680  0.00  0.00    +0.000 A 
ATOM     12  C   UNL     1       0.288  10.951  19.045  0.00  0.00    +0.000 A 
ATOM     13  C   UNL     1      -0.286  10.998  20.308  0.00  0.00    +0.000 A 
ATOM     14  N   UNL     1      -1.097  12.056  20.733  0.00  0.00    +0.000 N 
ENDROOT
BRANCH  10  15
ATOM     15  C   UNL     1       2.188   7.658  19.159  0.00  0.00    +0.000 A 
ATOM     16  C   UNL     1       2.922   7.663  17.965  0.00  0.00    +0.000 A 
ATOM     17  C   UNL     1       3.653   6.541  17.567  0.00  0.00    +0.000 A 
ATOM     18  C   UNL     1       3.648   5.415  18.381  0.00  0.00    +0.000 A 
ATOM     19  N   UNL     1       2.993   5.387  19.569  0.00  0.00    +0.000 NA
ATOM     20  C   UNL     1       2.288   6.492  19.917  0.00  0.00    +0.000 A 
BRANCH  18  21
ATOM     21  C   UNL     1       4.342   4.148  17.957  0.00  0.00    +0.000 C 
BRANCH  21  22
ATOM     22  N   UNL     1       5.757   4.357  17.735  0.00  0.00    +0.000 N 
ATOM     23  C   UNL     1       6.431   4.344  16.553  0.00  0.00    +0.000 A 
ATOM     24  N   UNL     1       7.685   4.673  16.760  0.00  0.00    +0.000 NA
ATOM     25  C   UNL     1       7.726   4.897  18.107  0.00  0.00    +0.000 A 
ATOM     26  N   UNL     1       6.568   4.724  18.750  0.00  0.00    +0.000 NA
ENDBRANCH  21  22
ENDBRANCH  18  21
ENDBRANCH  10  15
BRANCH   4  27
ATOM     27  C   UNL     1      -3.803  13.424  22.487  0.00  0.00    +0.000 C 
BRANCH  27  28
ATOM     28  O   UNL     1      -4.303  12.297  23.204  0.00  0.00    +0.000 OA
ATOM     29  H   UNL     1      -3.824  11.512  22.869  0.00  0.00    +0.000 HD
ENDBRANCH  27  28
ENDBRANCH   4  27
TORSDOF 5
ENDMDL
MODEL 2
REMARK VINA RESULT:      -7.9      1.485      1.969
REMARK  Name = 
REMARK  5 active torsions:
REMARK  status: ('A' for Active; 'I' for Inactive)
REMARK    1  A    between atoms: C_4  and  C_5
REMARK    2  A    between atoms: C_5  and  O_6
REMARK    3  A    between atoms: C_12  and  C_13
REMARK    4  A    between atoms: C_16  and  C_17
REMARK    5  A    between atoms: C_17  and  N_18
REMARK                            x       y       z     vdW  Elec       q    Type
REMARK                         _______ _______ _______ _____ _____    ______ ____
ROOT
ATOM      1  O   UNL     1       0.343  13.285  19.519  0.00  0.00    +0.000 OA
ATOM      2  C   UNL     1      -0.159  12.696  20.462  0.00  0.00    +0.000 C 
ATOM      3  O   UNL     1      -0.824  13.355  21.462  0.00  0.00    +0.000 OA
ATOM      4  C   UNL     1      -1.197  12.416  22.498  0.00  0.00    +0.000 C 
ATOM      5  C   UNL     1      -0.907  11.049  21.912  0.00  0.00    +0.000 C 
ATOM      6  C   UNL     1      -0.108  10.102  22.792  0.00  0.00    +0.000 C 
ATOM      7  O   UNL     1       0.190   8.885  22.078  0.00  0.00    +0.000 OA
ATOM      8  C   UNL     1       0.690   9.104  20.809  0.00  0.00    +0.000 A 
ATOM      9  C   UNL     1       1.371   8.031  20.231  0.00  0.00    +0.000 A 
ATOM     10  C   UNL     1       1.942   8.141  18.950  0.00  0.00    +0.000 A 
ATOM     11  C   UNL     1       1.786   9.367  18.275  0.00  0.00    +0.000 A 
ATOM     12  C   UNL     1       1.112  10.447  18.851  0.00  0.00    +0.000 A 
ATOM     13  C   UNL     1       0.555  10.321  20.117  0.00  0.00    +0.000 A 
ATOM     14  N   UNL     1      -0.140  11.359  20.746  0.00  0.00    +0.000 N 
ENDROOT
BRANCH  10  15
ATOM     15  C   UNL     1       2.668   7.017  18.321  0.00  0.00    +0.000 A 
ATOM     16  C   UNL     1       2.264   5.685  18.482  0.00  0.00    +0.000 A 
ATOM     17  C   UNL     1       3.015   4.638  17.940  0.00  0.00    +0.000 A 
ATOM     18  C   UNL     1       4.170   4.939  17.230  0.00  0.00    +0.000 A 
ATOM     19  N   UNL     1       4.567   6.217  17.009  0.00  0.00    +0.000 NA
ATOM     20  C   UNL     1       3.818   7.206  17.557  0.00  0.00    +0.000 A 
BRANCH  18  21
ATOM     21  C   UNL     1       5.065   3.848  16.706  0.00  0.00    +0.000 C 
BRANCH  21  22
ATOM     22  N   UNL     1       5.941   4.328  15.658  0.00  0.00    +0.000 N 
ATOM     23  C   UNL     1       7.168   4.903  15.788  0.00  0.00    +0.000 A 
ATOM     24  N   UNL     1       7.683   5.110  14.597  0.00  0.00    +0.000 NA
ATOM     25  C   UNL     1       6.723   4.622  13.758  0.00  0.00    +0.000 A 
ATOM     26  N   UNL     1       5.638   4.125  14.358  0.00  0.00    +0.000 NA
ENDBRANCH  21  22
ENDBRANCH  18  21
ENDBRANCH  10  15
BRANCH   4  27
ATOM     27  C   UNL     1      -2.680  12.646  22.786  0.00  0.00    +0.000 C 
BRANCH  27  28
ATOM     28  O   UNL     1      -3.169  11.692  23.727  0.00  0.00    +0.000 OA
ATOM     29  H   UNL     1      -3.480  10.921  23.212  0.00  0.00    +0.000 HD
ENDBRANCH  27  28
ENDBRANCH   4  27
TORSDOF 5
ENDMDL
MODEL 3
REMARK VINA RESULT:      -7.9      4.049      9.911
REMARK  Name = 
REMARK  5 active torsions:
REMARK  status: ('A' for Active; 'I' for Inactive)
REMARK    1  A    between atoms: C_4  and  C_5
REMARK    2  A    between atoms: C_5  and  O_6
REMARK    3  A    between atoms: C_12  and  C_13
REMARK    4  A    between atoms: C_16  and  C_17
REMARK    5  A    between atoms: C_17  and  N_18
REMARK                            x       y       z     vdW  Elec       q    Type
REMARK                         _______ _______ _______ _____ _____    ______ ____
ROOT
ATOM      1  O   UNL     1       3.902   4.941  16.720  0.00  0.00    +0.000 OA
ATOM      2  C   UNL     1       3.608   4.130  17.581  0.00  0.00    +0.000 C 
ATOM      3  O   UNL     1       3.789   2.783  17.406  0.00  0.00    +0.000 OA
ATOM      4  C   UNL     1       3.237   2.067  18.536  0.00  0.00    +0.000 C 
ATOM      5  C   UNL     1       2.912   3.137  19.558  0.00  0.00    +0.000 C 
ATOM      6  C   UNL     1       1.522   3.075  20.170  0.00  0.00    +0.000 C 
ATOM      7  O   UNL     1       1.306   4.206  21.039  0.00  0.00    +0.000 OA
ATOM      8  C   UNL     1       1.666   5.411  20.467  0.00  0.00    +0.000 A 
ATOM      9  C   UNL     1       1.119   6.551  21.059  0.00  0.00    +0.000 A 
ATOM     10  C   UNL     1       1.397   7.834  20.553  0.00  0.00    +0.000 A 
ATOM     11  C   UNL     1       2.256   7.919  19.440  0.00  0.00    +0.000 A 
ATOM     12  C   UNL     1       2.800   6.781  18.839  0.00  0.00    +0.000 A 
ATOM     13  C   UNL     1       2.515   5.523  19.352  0.00  0.00    +0.000 A 
ATOM     14  N   UNL     1       3.034   4.346  18.804  0.00  0.00    +0.000 N 
ENDROOT
BRANCH  10  15
ATOM     15  C   UNL     1       0.827   9.053  21.165  0.00  0.00    +0.000 A 
ATOM     16  C   UNL     1       0.121   9.022  22.375  0.00  0.00    +0.000 A 
ATOM     17  C   UNL     1      -0.473  10.177  22.890  0.00  0.00    +0.000 A 
ATOM     18  C   UNL     1      -0.347  11.367  22.183  0.00  0.00    +0.000 A 
ATOM     19  N   UNL     1       0.371  11.450  21.035  0.00  0.00    +0.000 NA
ATOM     20  C   UNL     1       0.926  10.307  20.563  0.00  0.00    +0.000 A 
BRANCH  18  21
ATOM     21  C   UNL     1      -1.044  12.620  22.642  0.00  0.00    +0.000 C 
BRANCH  21  22
ATOM     22  N   UNL     1      -2.474  12.549  22.426  0.00  0.00    +0.000 N 
ATOM     23  C   UNL     1      -3.454  12.373  23.354  0.00  0.00    +0.000 A 
ATOM     24  N   UNL     1      -4.629  12.463  22.773  0.00  0.00    +0.000 NA
ATOM     25  C   UNL     1      -4.308  12.714  21.470  0.00  0.00    +0.000 A 
ATOM     26  N   UNL     1      -3.001  12.784  21.206  0.00  0.00    +0.000 NA
ENDBRANCH  21  22
ENDBRANCH  18  21
ENDBRANCH  10  15
BRANCH   4  27
ATOM     27  C   UNL     1       4.314   1.091  19.006  0.00  0.00    +0.000 C 
BRANCH  27  28
ATOM     28  O   UNL     1       5.125   1.680  20.021  0.00  0.00    +0.000 OA
ATOM     29  H   UNL     1       4.649   2.473  20.339  0.00  0.00    +0.000 HD
ENDBRANCH  27  28
ENDBRANCH   4  27
TORSDOF 5
ENDMDL
MODEL 4
REMARK VINA RESULT:      -7.9      1.044      2.198
REMARK  Name = 
REMARK  5 active torsions:
REMARK  status: ('A' for Active; 'I' for Inactive)
REMARK    1  A    between atoms: C_4  and  C_5
REMARK    2  A    between atoms: C_5  and  O_6
REMARK    3  A    between atoms: C_12  and  C_13
REMARK    4  A    between atoms: C_16  and  C_17
REMARK    5  A    between atoms: C_17  and  N_18
REMARK                            x       y       z     vdW  Elec       q    Type
REMARK                         _______ _______ _______ _____ _____    ______ ____
ROOT
ATOM      1  O   UNL     1      -1.349  11.508  23.420  0.00  0.00    +0.000 OA
ATOM      2  C   UNL     1      -1.558  12.085  22.367  0.00  0.00    +0.000 C 
ATOM      3  O   UNL     1      -2.441  13.129  22.271  0.00  0.00    +0.000 OA
ATOM      4  C   UNL     1      -2.574  13.527  20.886  0.00  0.00    +0.000 C 
ATOM      5  C   UNL     1      -1.481  12.775  20.154  0.00  0.00    +0.000 C 
ATOM      6  C   UNL     1      -1.907  12.035  18.897  0.00  0.00    +0.000 C 
ATOM      7  O   UNL     1      -0.803  11.278  18.362  0.00  0.00    +0.000 OA
ATOM      8  C   UNL     1      -0.142  10.527  19.315  0.00  0.00    +0.000 A 
ATOM      9  C   UNL     1       0.644   9.481  18.827  0.00  0.00    +0.000 A 
ATOM     10  C   UNL     1       1.349   8.635  19.703  0.00  0.00    +0.000 A 
ATOM     11  C   UNL     1       1.238   8.895  21.083  0.00  0.00    +0.000 A 
ATOM     12  C   UNL     1       0.446   9.935  21.578  0.00  0.00    +0.000 A 
ATOM     13  C   UNL     1      -0.242  10.760  20.699  0.00  0.00    +0.000 A 
ATOM     14  N   UNL     1      -1.043  11.824  21.128  0.00  0.00    +0.000 N 
ENDROOT
BRANCH  10  15
ATOM     15  C   UNL     1       2.186   7.523  19.206  0.00  0.00    +0.000 A 
ATOM     16  C   UNL     1       2.922   7.615  18.017  0.00  0.00    +0.000 A 
ATOM     17  C   UNL     1       3.642   6.520  17.532  0.00  0.00    +0.000 A 
ATOM     18  C   UNL     1       3.623   5.333  18.254  0.00  0.00    +0.000 A 
ATOM     19  N   UNL     1       2.966   5.218  19.435  0.00  0.00    +0.000 NA
ATOM     20  C   UNL     1       2.272   6.300  19.870  0.00  0.00    +0.000 A 
BRANCH  18  21
ATOM     21  C   UNL     1       4.303   4.096  17.731  0.00  0.00    +0.000 C 
BRANCH  21  22
ATOM     22  N   UNL     1       5.722   4.305  17.534  0.00  0.00    +0.000 N 
ATOM     23  C   UNL     1       6.394   4.442  16.358  0.00  0.00    +0.000 A 
ATOM     24  N   UNL     1       7.655   4.714  16.603  0.00  0.00    +0.000 NA
ATOM     25  C   UNL     1       7.703   4.748  17.967  0.00  0.00    +0.000 A 
ATOM     26  N   UNL     1       6.543   4.511  18.586  0.00  0.00    +0.000 NA
ENDBRANCH  21  22
ENDBRANCH  18  21
ENDBRANCH  10  15
BRANCH   4  27
ATOM     27  C   UNL     1      -2.393  15.044  20.846  0.00  0.00    +0.000 C 
BRANCH  27  28
ATOM     28  O   UNL     1      -1.350  15.408  19.944  0.00  0.00    +0.000 OA
ATOM     29  H   UNL     1      -0.522  15.436  20.464  0.00  0.00    +0.000 HD
ENDBRANCH  27  28
ENDBRANCH   4  27
TORSDOF 5
ENDMDL
MODEL 5
REMARK VINA RESULT:      -7.9      1.694      2.818
REMARK  Name = 
REMARK  5 active torsions:
REMARK  status: ('A' for Active; 'I' for Inactive)
REMARK    1  A    between atoms: C_4  and  C_5
REMARK    2  A    between atoms: C_5  and  O_6
REMARK    3  A    between atoms: C_12  and  C_13
REMARK    4  A    between atoms: C_16  and  C_17
REMARK    5  A    between atoms: C_17  and  N_18
REMARK                            x       y       z     vdW  Elec       q    Type
REMARK                         _______ _______ _______ _____ _____    ______ ____
ROOT
ATOM      1  O   UNL     1      -0.609  10.257  23.454  0.00  0.00    +0.000 OA
ATOM      2  C   UNL     1      -0.646  11.095  22.569  0.00  0.00    +0.000 C 
ATOM      3  O   UNL     1      -1.346  12.265  22.702  0.00  0.00    +0.000 OA
ATOM      4  C   UNL     1      -1.310  12.999  21.455  0.00  0.00    +0.000 C 
ATOM      5  C   UNL     1      -0.293  12.269  20.600  0.00  0.00    +0.000 C 
ATOM      6  C   UNL     1      -0.732  11.933  19.184  0.00  0.00    +0.000 C 
ATOM      7  O   UNL     1       0.280  11.150  18.519  0.00  0.00    +0.000 OA
ATOM      8  C   UNL     1       0.742  10.093  19.280  0.00  0.00    +0.000 A 
ATOM      9  C   UNL     1       1.392   9.077  18.578  0.00  0.00    +0.000 A 
ATOM     10  C   UNL     1       1.889   7.940  19.242  0.00  0.00    +0.000 A 
ATOM     11  C   UNL     1       1.714   7.879  20.638  0.00  0.00    +0.000 A 
ATOM     12  C   UNL     1       1.057   8.889  21.346  0.00  0.00    +0.000 A 
ATOM     13  C   UNL     1       0.574  10.003  20.674  0.00  0.00    +0.000 A 
ATOM     14  N   UNL     1      -0.083  11.054  21.323  0.00  0.00    +0.000 N 
ENDROOT
BRANCH  10  15
ATOM     15  C   UNL     1       2.580   6.854  18.516  0.00  0.00    +0.000 A 
ATOM     16  C   UNL     1       2.084   5.544  18.483  0.00  0.00    +0.000 A 
ATOM     17  C   UNL     1       2.799   4.521  17.854  0.00  0.00    +0.000 A 
ATOM     18  C   UNL     1       4.014   4.826  17.253  0.00  0.00    +0.000 A 
ATOM     19  N   UNL     1       4.504   6.090  17.217  0.00  0.00    +0.000 NA
ATOM     20  C   UNL     1       3.786   7.054  17.845  0.00  0.00    +0.000 A 
BRANCH  18  21
ATOM     21  C   UNL     1       4.870   3.747  16.643  0.00  0.00    +0.000 C 
BRANCH  21  22
ATOM     22  N   UNL     1       5.846   4.291  15.723  0.00  0.00    +0.000 N 
ATOM     23  C   UNL     1       7.096   4.751  16.001  0.00  0.00    +0.000 A 
ATOM     24  N   UNL     1       7.705   5.070  14.882  0.00  0.00    +0.000 NA
ATOM     25  C   UNL     1       6.775   4.767  13.929  0.00  0.00    +0.000 A 
ATOM     26  N   UNL     1       5.620   4.280  14.391  0.00  0.00    +0.000 NA
ENDBRANCH  21  22
ENDBRANCH  18  21
ENDBRANCH  10  15
BRANCH   4  27
ATOM     27  C   UNL     1      -0.895  14.428  21.799  0.00  0.00    +0.000 C 
BRANCH  27  28
ATOM     28  O   UNL     1      -1.582  14.891  22.959  0.00  0.00    +0.000 OA
ATOM     29  H   UNL     1      -1.049  15.623  23.331  0.00  0.00    +0.000 HD
ENDBRANCH  27  28
ENDBRANCH   4  27
TORSDOF 5
ENDMDL
MODEL 6
REMARK VINA RESULT:      -7.7      1.355      2.483
REMARK  Name = 
REMARK  5 active torsions:
REMARK  status: ('A' for Active; 'I' for Inactive)
REMARK    1  A    between atoms: C_4  and  C_5
REMARK    2  A    between atoms: C_5  and  O_6
REMARK    3  A    between atoms: C_12  and  C_13
REMARK    4  A    between atoms: C_16  and  C_17
REMARK    5  A    between atoms: C_17  and  N_18
REMARK                            x       y       z     vdW  Elec       q    Type
REMARK                         _______ _______ _______ _____ _____    ______ ____
ROOT
ATOM      1  O   UNL     1      -1.092  11.465  23.457  0.00  0.00    +0.000 OA
ATOM      2  C   UNL     1      -0.887  12.202  22.507  0.00  0.00    +0.000 C 
ATOM      3  O   UNL     1      -1.426  13.459  22.430  0.00  0.00    +0.000 OA
ATOM      4  C   UNL     1      -1.115  14.044  21.143  0.00  0.00    +0.000 C 
ATOM      5  C   UNL     1      -0.105  13.103  20.518  0.00  0.00    +0.000 C 
ATOM      6  C   UNL     1      -0.388  12.675  19.088  0.00  0.00    +0.000 C 
ATOM      7  O   UNL     1       0.583  11.702  18.653  0.00  0.00    +0.000 OA
ATOM      8  C   UNL     1       0.781  10.683  19.565  0.00  0.00    +0.000 A 
ATOM      9  C   UNL     1       1.370   9.522  19.060  0.00  0.00    +0.000 A 
ATOM     10  C   UNL     1       1.605   8.409  19.888  0.00  0.00    +0.000 A 
ATOM     11  C   UNL     1       1.234   8.521  21.242  0.00  0.00    +0.000 A 
ATOM     12  C   UNL     1       0.636   9.677  21.752  0.00  0.00    +0.000 A 
ATOM     13  C   UNL     1       0.413  10.766  20.920  0.00  0.00    +0.000 A 
ATOM     14  N   UNL     1      -0.171  11.955  21.368  0.00  0.00    +0.000 N 
ENDROOT
BRANCH  10  15
ATOM     15  C   UNL     1       2.227   7.172  19.373  0.00  0.00    +0.000 A 
ATOM     16  C   UNL     1       2.206   5.969  20.092  0.00  0.00    +0.000 A 
ATOM     17  C   UNL     1       2.871   4.837  19.615  0.00  0.00    +0.000 A 
ATOM     18  C   UNL     1       3.550   4.918  18.405  0.00  0.00    +0.000 A 
ATOM     19  N   UNL     1       3.552   6.048  17.654  0.00  0.00    +0.000 NA
ATOM     20  C   UNL     1       2.903   7.129  18.154  0.00  0.00    +0.000 A 
BRANCH  18  21
ATOM     21  C   UNL     1       4.360   3.758  17.891  0.00  0.00    +0.000 C 
BRANCH  21  22
ATOM     22  N   UNL     1       5.734   4.133  17.632  0.00  0.00    +0.000 N 
ATOM     23  C   UNL     1       6.354   4.267  16.428  0.00  0.00    +0.000 A 
ATOM     24  N   UNL     1       7.574   4.716  16.611  0.00  0.00    +0.000 NA
ATOM     25  C   UNL     1       7.649   4.858  17.966  0.00  0.00    +0.000 A 
ATOM     26  N   UNL     1       6.545   4.521  18.639  0.00  0.00    +0.000 NA
ENDBRANCH  21  22
ENDBRANCH  18  21
ENDBRANCH  10  15
BRANCH   4  27
ATOM     27  C   UNL     1      -0.552  15.437  21.419  0.00  0.00    +0.000 C 
BRANCH  27  28
ATOM     28  O   UNL     1      -0.890  15.870  22.735  0.00  0.00    +0.000 OA
ATOM     29  H   UNL     1      -1.091  16.825  22.676  0.00  0.00    +0.000 HD
ENDBRANCH  27  28
ENDBRANCH   4  27
TORSDOF 5
ENDMDL
MODEL 7
REMARK VINA RESULT:      -7.7      1.016      1.292
REMARK  Name = 
REMARK  5 active torsions:
REMARK  status: ('A' for Active; 'I' for Inactive)
REMARK    1  A    between atoms: C_4  and  C_5
REMARK    2  A    between atoms: C_5  and  O_6
REMARK    3  A    between atoms: C_12  and  C_13
REMARK    4  A    between atoms: C_16  and  C_17
REMARK    5  A    between atoms: C_17  and  N_18
REMARK                            x       y       z     vdW  Elec       q    Type
REMARK                         _______ _______ _______ _____ _____    ______ ____
ROOT
ATOM      1  O   UNL     1      -1.602  12.886  18.532  0.00  0.00    +0.000 OA
ATOM      2  C   UNL     1      -1.764  12.563  19.697  0.00  0.00    +0.000 C 
ATOM      3  O   UNL     1      -2.492  13.328  20.570  0.00  0.00    +0.000 OA
ATOM      4  C   UNL     1      -2.404  12.763  21.900  0.00  0.00    +0.000 C 
ATOM      5  C   UNL     1      -1.743  11.414  21.711  0.00  0.00    +0.000 C 
ATOM      6  C   UNL     1      -0.576  11.108  22.635  0.00  0.00    +0.000 C 
ATOM      7  O   UNL     1       0.029   9.848  22.280  0.00  0.00    +0.000 OA
ATOM      8  C   UNL     1       0.276   9.722  20.927  0.00  0.00    +0.000 A 
ATOM      9  C   UNL     1       1.206   8.745  20.567  0.00  0.00    +0.000 A 
ATOM     10  C   UNL     1       1.555   8.537  19.220  0.00  0.00    +0.000 A 
ATOM     11  C   UNL     1       0.919   9.343  18.256  0.00  0.00    +0.000 A 
ATOM     12  C   UNL     1      -0.007  10.328  18.610  0.00  0.00    +0.000 A 
ATOM     13  C   UNL     1      -0.339  10.519  19.944  0.00  0.00    +0.000 A 
ATOM     14  N   UNL     1      -1.264  11.480  20.365  0.00  0.00    +0.000 N 
ENDROOT
BRANCH  10  15
ATOM     15  C   UNL     1       2.537   7.508  18.820  0.00  0.00    +0.000 A 
ATOM     16  C   UNL     1       3.328   7.638  17.670  0.00  0.00    +0.000 A 
ATOM     17  C   UNL     1       4.192   6.613  17.275  0.00  0.00    +0.000 A 
ATOM     18  C   UNL     1       4.261   5.460  18.046  0.00  0.00    +0.000 A 
ATOM     19  N   UNL     1       3.551   5.316  19.193  0.00  0.00    +0.000 NA
ATOM     20  C   UNL     1       2.717   6.328  19.540  0.00  0.00    +0.000 A 
BRANCH  18  21
ATOM     21  C   UNL     1       5.103   4.288  17.616  0.00  0.00    +0.000 C 
BRANCH  21  22
ATOM     22  N   UNL     1       5.892   4.595  16.443  0.00  0.00    +0.000 N 
ATOM     23  C   UNL     1       7.111   5.198  16.386  0.00  0.00    +0.000 A 
ATOM     24  N   UNL     1       7.537   5.208  15.144  0.00  0.00    +0.000 NA
ATOM     25  C   UNL     1       6.534   4.575  14.469  0.00  0.00    +0.000 A 
ATOM     26  N   UNL     1       5.505   4.173  15.220  0.00  0.00    +0.000 NA
ENDBRANCH  21  22
ENDBRANCH  18  21
ENDBRANCH  10  15
BRANCH   4  27
ATOM     27  C   UNL     1      -3.835  12.665  22.429  0.00  0.00    +0.000 C 
BRANCH  27  28
ATOM     28  O   UNL     1      -3.855  12.084  23.732  0.00  0.00    +0.000 OA
ATOM     29  H   UNL     1      -3.861  11.113  23.608  0.00  0.00    +0.000 HD
ENDBRANCH  27  28
ENDBRANCH   4  27
TORSDOF 5
ENDMDL
MODEL 8
REMARK VINA RESULT:      -7.7      1.597      2.038
REMARK  Name = 
REMARK  5 active torsions:
REMARK  status: ('A' for Active; 'I' for Inactive)
REMARK    1  A    between atoms: C_4  and  C_5
REMARK    2  A    between atoms: C_5  and  O_6
REMARK    3  A    between atoms: C_12  and  C_13
REMARK    4  A    between atoms: C_16  and  C_17
REMARK    5  A    between atoms: C_17  and  N_18
REMARK                            x       y       z     vdW  Elec       q    Type
REMARK                         _______ _______ _______ _____ _____    ______ ____
ROOT
ATOM      1  O   UNL     1      -0.231  12.803  19.401  0.00  0.00    +0.000 OA
ATOM      2  C   UNL     1      -0.502  12.226  20.441  0.00  0.00    +0.000 C 
ATOM      3  O   UNL     1      -1.135  12.856  21.480  0.00  0.00    +0.000 OA
ATOM      4  C   UNL     1      -1.210  11.962  22.616  0.00  0.00    +0.000 C 
ATOM      5  C   UNL     1      -0.772  10.613  22.084  0.00  0.00    +0.000 C 
ATOM      6  C   UNL     1       0.280   9.883  22.903  0.00  0.00    +0.000 C 
ATOM      7  O   UNL     1       0.684   8.671  22.234  0.00  0.00    +0.000 OA
ATOM      8  C   UNL     1       0.974   8.855  20.896  0.00  0.00    +0.000 A 
ATOM      9  C   UNL     1       1.745   7.857  20.298  0.00  0.00    +0.000 A 
ATOM     10  C   UNL     1       2.121   7.944  18.945  0.00  0.00    +0.000 A 
ATOM     11  C   UNL     1       1.677   9.068  18.222  0.00  0.00    +0.000 A 
ATOM     12  C   UNL     1       0.911  10.074  18.816  0.00  0.00    +0.000 A 
ATOM     13  C   UNL     1       0.550   9.971  20.152  0.00  0.00    +0.000 A 
ATOM     14  N   UNL     1      -0.224  10.938  20.805  0.00  0.00    +0.000 N 
ENDROOT
BRANCH  10  15
ATOM     15  C   UNL     1       2.938   6.898  18.295  0.00  0.00    +0.000 A 
ATOM     16  C   UNL     1       3.995   7.207  17.428  0.00  0.00    +0.000 A 
ATOM     17  C   UNL     1       4.699   6.196  16.767  0.00  0.00    +0.000 A 
ATOM     18  C   UNL     1       4.337   4.873  16.988  0.00  0.00    +0.000 A 
ATOM     19  N   UNL     1       3.354   4.530  17.858  0.00  0.00    +0.000 NA
ATOM     20  C   UNL     1       2.688   5.538  18.474  0.00  0.00    +0.000 A 
BRANCH  18  21
ATOM     21  C   UNL     1       4.999   3.752  16.232  0.00  0.00    +0.000 C 
BRANCH  21  22
ATOM     22  N   UNL     1       5.936   4.247  15.247  0.00  0.00    +0.000 N 
ATOM     23  C   UNL     1       7.112   4.897  15.461  0.00  0.00    +0.000 A 
ATOM     24  N   UNL     1       7.720   5.095  14.313  0.00  0.00    +0.000 NA
ATOM     25  C   UNL     1       6.867   4.524  13.413  0.00  0.00    +0.000 A 
ATOM     26  N   UNL     1       5.763   3.984  13.934  0.00  0.00    +0.000 NA
ENDBRANCH  21  22
ENDBRANCH  18  21
ENDBRANCH  10  15
BRANCH   4  27
ATOM     27  C   UNL     1      -2.661  11.981  23.095  0.00  0.00    +0.000 C 
BRANCH  27  28
ATOM     28  O   UNL     1      -3.506  12.600  22.127  0.00  0.00    +0.000 OA
ATOM     29  H   UNL     1      -4.046  11.890  21.727  0.00  0.00    +0.000 HD
ENDBRANCH  27  28
ENDBRANCH   4  27
TORSDOF 5
ENDMDL
MODEL 9
REMARK VINA RESULT:      -7.7      1.022      1.287
REMARK  Name = 
REMARK  5 active torsions:
REMARK  status: ('A' for Active; 'I' for Inactive)
REMARK    1  A    between atoms: C_4  and  C_5
REMARK    2  A    between atoms: C_5  and  O_6
REMARK    3  A    between atoms: C_12  and  C_13
REMARK    4  A    between atoms: C_16  and  C_17
REMARK    5  A    between atoms: C_17  and  N_18
REMARK                            x       y       z     vdW  Elec       q    Type
REMARK                         _______ _______ _______ _____ _____    ______ ____
ROOT
ATOM      1  O   UNL     1       0.609  13.533  20.374  0.00  0.00    +0.000 OA
ATOM      2  C   UNL     1      -0.087  12.991  21.215  0.00  0.00    +0.000 C 
ATOM      3  O   UNL     1      -0.790  13.705  22.150  0.00  0.00    +0.000 OA
ATOM      4  C   UNL     1      -1.418  12.796  23.085  0.00  0.00    +0.000 C 
ATOM      5  C   UNL     1      -1.232  11.419  22.480  0.00  0.00    +0.000 C 
ATOM      6  C   UNL     1      -0.689  10.349  23.412  0.00  0.00    +0.000 C 
ATOM      7  O   UNL     1      -0.458   9.124  22.688  0.00  0.00    +0.000 OA
ATOM      8  C   UNL     1       0.232   9.308  21.506  0.00  0.00    +0.000 A 
ATOM      9  C   UNL     1       0.840   8.170  20.973  0.00  0.00    +0.000 A 
ATOM     10  C   UNL     1       1.587   8.237  19.783  0.00  0.00    +0.000 A 
ATOM     11  C   UNL     1       1.684   9.492  19.150  0.00  0.00    +0.000 A 
ATOM     12  C   UNL     1       1.085  10.636  19.683  0.00  0.00    +0.000 A 
ATOM     13  C   UNL     1       0.351  10.551  20.858  0.00  0.00    +0.000 A 
ATOM     14  N   UNL     1      -0.281  11.655  21.439  0.00  0.00    +0.000 N 
ENDROOT
BRANCH  10  15
ATOM     15  C   UNL     1       2.238   7.043  19.203  0.00  0.00    +0.000 A 
ATOM     16  C   UNL     1       2.193   5.791  19.829  0.00  0.00    +0.000 A 
ATOM     17  C   UNL     1       2.884   4.698  19.297  0.00  0.00    +0.000 A 
ATOM     18  C   UNL     1       3.614   4.872  18.127  0.00  0.00    +0.000 A 
ATOM     19  N   UNL     1       3.641   6.055  17.464  0.00  0.00    +0.000 NA
ATOM     20  C   UNL     1       2.965   7.094  18.015  0.00  0.00    +0.000 A 
BRANCH  18  21
ATOM     21  C   UNL     1       4.451   3.756  17.562  0.00  0.00    +0.000 C 
BRANCH  21  22
ATOM     22  N   UNL     1       5.843   4.135  17.441  0.00  0.00    +0.000 N 
ATOM     23  C   UNL     1       6.567   4.314  16.303  0.00  0.00    +0.000 A 
ATOM     24  N   UNL     1       7.767   4.751  16.611  0.00  0.00    +0.000 NA
ATOM     25  C   UNL     1       7.722   4.838  17.973  0.00  0.00    +0.000 A 
ATOM     26  N   UNL     1       6.562   4.479  18.531  0.00  0.00    +0.000 NA
ENDBRANCH  21  22
ENDBRANCH  18  21
ENDBRANCH  10  15
BRANCH   4  27
ATOM     27  C   UNL     1      -2.883  13.217  23.189  0.00  0.00    +0.000 C 
BRANCH  27  28
ATOM     28  O   UNL     1      -3.726  12.296  22.499  0.00  0.00    +0.000 OA
ATOM     29  H   UNL     1      -3.746  12.578  21.562  0.00  0.00    +0.000 HD
ENDBRANCH  27  28
ENDBRANCH   4  27
TORSDOF 5
ENDMDL
