MODEL 1
REMARK VINA RESULT:      -7.8      0.000      0.000
REMARK  Name = 
REMARK  4 active torsions:
REMARK  status: ('A' for Active; 'I' for Inactive)
REMARK    1  A    between atoms: C_2  and  C_4
REMARK    2  A    between atoms: N_15  and  C_16
REMARK    3  A    between atoms: C_16  and  C_17
REMARK    4  A    between atoms: C_17  and  C_18
REMARK                            x       y       z     vdW  Elec       q    Type
REMARK                         _______ _______ _______ _____ _____    ______ ____
ROOT
ATOM      1  C   UNL     1       1.256  16.889  18.221  0.00  0.00    +0.000 A 
ATOM      2  C   UNL     1       2.338  17.278  17.404  0.00  0.00    +0.000 A 
ATOM      3  C   UNL     1       3.406  16.420  17.151  0.00  0.00    +0.000 A 
ATOM      4  C   UNL     1       3.442  15.151  17.721  0.00  0.00    +0.000 A 
ATOM      5  C   UNL     1       2.376  14.781  18.548  0.00  0.00    +0.000 A 
ATOM      6  N   UNL     1       2.188  13.609  19.234  0.00  0.00    +0.000 N 
ATOM      7  C   UNL     1       0.980  13.608  19.873  0.00  0.00    +0.000 A 
ATOM      8  C   UNL     1       0.344  12.618  20.613  0.00  0.00    +0.000 A 
ATOM      9  N   UNL     1       0.889  11.359  20.720  0.00  0.00    +0.000 N 
ATOM     10  C   UNL     1       0.590  10.555  21.911  0.00  0.00    +0.000 C 
ATOM     11  C   UNL     1      -0.182   9.257  21.592  0.00  0.00    +0.000 C 
ATOM     12  N   UNL     1       0.352   8.470  20.454  0.00  0.00    +0.000 NA
ATOM     13  C   UNL     1       0.333   9.370  19.280  0.00  0.00    +0.000 C 
ATOM     14  C   UNL     1       1.163  10.656  19.451  0.00  0.00    +0.000 C 
ATOM     15  N   UNL     1      -0.804  12.969  21.223  0.00  0.00    +0.000 NA
ATOM     16  C   UNL     1      -1.289  14.208  21.013  0.00  0.00    +0.000 A 
ATOM     17  N   UNL     1      -0.769  15.187  20.252  0.00  0.00    +0.000 NA
ATOM     18  C   UNL     1       0.419  14.855  19.690  0.00  0.00    +0.000 A 
ATOM     19  C   UNL     1       1.274  15.606  18.819  0.00  0.00    +0.000 A 
ATOM     20  H   UNL     1       2.834  12.834  19.251  0.00  0.00    +0.000 HD
ENDROOT
BRANCH   1  22
ATOM     21  N   UNL     1      -0.693  18.078  17.344  0.00  0.00    +0.000 N 
ATOM     22  C   UNL     1       0.156  17.868  18.391  0.00  0.00    +0.000 C 
ATOM     23  O   UNL     1       0.031  18.504  19.430  0.00  0.00    +0.000 OA
ATOM     24  H   UNL     1      -1.510  18.639  17.532  0.00  0.00    +0.000 HD
ATOM     25  H   UNL     1      -0.765  17.411  16.581  0.00  0.00    +0.000 HD
ENDBRANCH   1  22
BRANCH  12  26
ATOM     26  C   UNL     1       1.716   7.953  20.686  0.00  0.00    +0.000 C 
BRANCH  26  27
ATOM     27  C   UNL     1       2.361   7.331  19.439  0.00  0.00    +0.000 C 
BRANCH  27  28
ATOM     28  C   UNL     1       2.020   5.864  19.314  0.00  0.00    +0.000 A 
ATOM     29  C   UNL     1       2.087   5.223  18.064  0.00  0.00    +0.000 A 
ATOM     30  C   UNL     1       1.754   3.872  17.943  0.00  0.00    +0.000 A 
ATOM     31  C   UNL     1       1.344   3.163  19.067  0.00  0.00    +0.000 A 
ATOM     32  F   UNL     1       1.024   1.869  18.946  0.00  0.00    +0.000 F 
ATOM     33  C   UNL     1       1.269   3.791  20.304  0.00  0.00    +0.000 A 
ATOM     34  F   UNL     1       0.872   3.107  21.386  0.00  0.00    +0.000 F 
ATOM     35  C   UNL     1       1.602   5.137  20.434  0.00  0.00    +0.000 A 
ENDBRANCH  27  28
ENDBRANCH  26  27
ENDBRANCH  12  26
TORSDOF 4
ENDMDL
MODEL 2
REMARK VINA RESULT:      -7.8      5.399     10.134
REMARK  Name = 
REMARK  4 active torsions:
REMARK  status: ('A' for Active; 'I' for Inactive)
REMARK    1  A    between atoms: C_2  and  C_4
REMARK    2  A    between atoms: N_15  and  C_16
REMARK    3  A    between atoms: C_16  and  C_17
REMARK    4  A    between atoms: C_17  and  C_18
REMARK                            x       y       z     vdW  Elec       q    Type
REMARK                         _______ _______ _______ _____ _____    ______ ____
ROOT
ATOM      1  C   UNL     1       2.967   3.666  18.963  0.00  0.00    +0.000 A 
ATOM      2  C   UNL     1       2.870   2.577  19.853  0.00  0.00    +0.000 A 
ATOM      3  C   UNL     1       2.398   2.739  21.154  0.00  0.00    +0.000 A 
ATOM      4  C   UNL     1       2.027   3.997  21.619  0.00  0.00    +0.000 A 
ATOM      5  C   UNL     1       2.147   5.076  20.736  0.00  0.00    +0.000 A 
ATOM      6  N   UNL     1       1.869   6.400  20.956  0.00  0.00    +0.000 N 
ATOM      7  C   UNL     1       2.049   7.130  19.814  0.00  0.00    +0.000 A 
ATOM      8  C   UNL     1       1.817   8.475  19.550  0.00  0.00    +0.000 A 
ATOM      9  N   UNL     1       1.233   9.288  20.494  0.00  0.00    +0.000 N 
ATOM     10  C   UNL     1       1.532  10.725  20.477  0.00  0.00    +0.000 C 
ATOM     11  C   UNL     1       0.292  11.602  20.203  0.00  0.00    +0.000 C 
ATOM     12  N   UNL     1      -0.916  11.250  20.988  0.00  0.00    +0.000 NA
ATOM     13  C   UNL     1      -1.219   9.836  20.673  0.00  0.00    +0.000 C 
ATOM     14  C   UNL     1      -0.081   8.852  21.008  0.00  0.00    +0.000 C 
ATOM     15  N   UNL     1       2.212   8.926  18.344  0.00  0.00    +0.000 NA
ATOM     16  C   UNL     1       2.723   8.043  17.465  0.00  0.00    +0.000 A 
ATOM     17  N   UNL     1       2.904   6.720  17.624  0.00  0.00    +0.000 NA
ATOM     18  C   UNL     1       2.566   6.279  18.860  0.00  0.00    +0.000 A 
ATOM     19  C   UNL     1       2.602   4.957  19.415  0.00  0.00    +0.000 A 
ATOM     20  H   UNL     1       1.547   6.790  21.828  0.00  0.00    +0.000 HD
ENDROOT
BRANCH   1  22
ATOM     21  N   UNL     1       4.790   3.296  17.374  0.00  0.00    +0.000 N 
ATOM     22  C   UNL     1       3.445   3.372  17.591  0.00  0.00    +0.000 C 
ATOM     23  O   UNL     1       2.657   3.239  16.662  0.00  0.00    +0.000 OA
ATOM     24  H   UNL     1       5.082   2.958  16.469  0.00  0.00    +0.000 HD
ATOM     25  H   UNL     1       5.441   3.161  18.142  0.00  0.00    +0.000 HD
ENDBRANCH   1  22
BRANCH  12  26
ATOM     26  C   UNL     1      -0.742  11.429  22.444  0.00  0.00    +0.000 C 
BRANCH  26  27
ATOM     27  C   UNL     1      -1.093  12.841  22.938  0.00  0.00    +0.000 C 
BRANCH  27  28
ATOM     28  C   UNL     1      -2.589  13.043  23.017  0.00  0.00    +0.000 A 
ATOM     29  C   UNL     1      -3.244  13.873  22.090  0.00  0.00    +0.000 A 
ATOM     30  C   UNL     1      -4.623  14.077  22.174  0.00  0.00    +0.000 A 
ATOM     31  C   UNL     1      -5.347  13.459  23.188  0.00  0.00    +0.000 A 
ATOM     32  F   UNL     1      -6.669  13.660  23.265  0.00  0.00    +0.000 F 
ATOM     33  C   UNL     1      -4.707  12.643  24.112  0.00  0.00    +0.000 A 
ATOM     34  F   UNL     1      -5.406  12.051  25.089  0.00  0.00    +0.000 F 
ATOM     35  C   UNL     1      -3.332  12.433  24.034  0.00  0.00    +0.000 A 
ENDBRANCH  27  28
ENDBRANCH  26  27
ENDBRANCH  12  26
TORSDOF 4
ENDMDL
MODEL 3
REMARK VINA RESULT:      -7.6      5.511     10.182
REMARK  Name = 
REMARK  4 active torsions:
REMARK  status: ('A' for Active; 'I' for Inactive)
REMARK    1  A    between atoms: C_2  and  C_4
REMARK    2  A    between atoms: N_15  and  C_16
REMARK    3  A    between atoms: C_16  and  C_17
REMARK    4  A    between atoms: C_17  and  C_18
REMARK                            x       y       z     vdW  Elec       q    Type
REMARK                         _______ _______ _______ _____ _____    ______ ____
ROOT
ATOM      1  C   UNL     1       3.120   3.519  19.195  0.00  0.00    +0.000 A 
ATOM      2  C   UNL     1       2.997   2.451  20.107  0.00  0.00    +0.000 A 
ATOM      3  C   UNL     1       2.472   2.639  21.384  0.00  0.00    +0.000 A 
ATOM      4  C   UNL     1       2.072   3.904  21.802  0.00  0.00    +0.000 A 
ATOM      5  C   UNL     1       2.218   4.963  20.899  0.00  0.00    +0.000 A 
ATOM      6  N   UNL     1       1.919   6.289  21.076  0.00  0.00    +0.000 N 
ATOM      7  C   UNL     1       2.139   6.994  19.925  0.00  0.00    +0.000 A 
ATOM      8  C   UNL     1       1.907   8.330  19.620  0.00  0.00    +0.000 A 
ATOM      9  N   UNL     1       1.278   9.159  20.521  0.00  0.00    +0.000 N 
ATOM     10  C   UNL     1       1.565  10.598  20.481  0.00  0.00    +0.000 C 
ATOM     11  C   UNL     1       0.330  11.456  20.137  0.00  0.00    +0.000 C 
ATOM     12  N   UNL     1      -0.905  11.111  20.881  0.00  0.00    +0.000 NA
ATOM     13  C   UNL     1      -1.184   9.687  20.589  0.00  0.00    +0.000 C 
ATOM     14  C   UNL     1      -0.052   8.723  20.992  0.00  0.00    +0.000 C 
ATOM     15  N   UNL     1       2.345   8.756  18.421  0.00  0.00    +0.000 NA
ATOM     16  C   UNL     1       2.899   7.857  17.584  0.00  0.00    +0.000 A 
ATOM     17  N   UNL     1       3.084   6.540  17.782  0.00  0.00    +0.000 NA
ATOM     18  C   UNL     1       2.701   6.124  19.014  0.00  0.00    +0.000 A 
ATOM     19  C   UNL     1       2.726   4.817  19.601  0.00  0.00    +0.000 A 
ATOM     20  H   UNL     1       1.560   6.697  21.926  0.00  0.00    +0.000 HD
ENDROOT
BRANCH   1  22
ATOM     21  N   UNL     1       4.883   3.682  17.507  0.00  0.00    +0.000 N 
ATOM     22  C   UNL     1       3.655   3.197  17.850  0.00  0.00    +0.000 C 
ATOM     23  O   UNL     1       2.997   2.545  17.048  0.00  0.00    +0.000 OA
ATOM     24  H   UNL     1       5.281   3.334  16.648  0.00  0.00    +0.000 HD
ATOM     25  H   UNL     1       5.537   4.007  18.212  0.00  0.00    +0.000 HD
ENDBRANCH   1  22
BRANCH  12  26
ATOM     26  C   UNL     1      -0.792  11.327  22.338  0.00  0.00    +0.000 C 
BRANCH  26  27
ATOM     27  C   UNL     1      -1.280  12.709  22.797  0.00  0.00    +0.000 C 
BRANCH  27  28
ATOM     28  C   UNL     1      -2.785  12.747  22.933  0.00  0.00    +0.000 A 
ATOM     29  C   UNL     1      -3.389  12.590  24.193  0.00  0.00    +0.000 A 
ATOM     30  C   UNL     1      -4.780  12.606  24.317  0.00  0.00    +0.000 A 
ATOM     31  C   UNL     1      -5.568  12.766  23.183  0.00  0.00    +0.000 A 
ATOM     32  F   UNL     1      -6.902  12.777  23.308  0.00  0.00    +0.000 F 
ATOM     33  C   UNL     1      -4.980  12.913  21.934  0.00  0.00    +0.000 A 
ATOM     34  F   UNL     1      -5.741  13.066  20.842  0.00  0.00    +0.000 F 
ATOM     35  C   UNL     1      -3.594  12.902  21.801  0.00  0.00    +0.000 A 
ENDBRANCH  27  28
ENDBRANCH  26  27
ENDBRANCH  12  26
TORSDOF 4
ENDMDL
MODEL 4
REMARK VINA RESULT:      -7.5      5.209      9.965
REMARK  Name = 
REMARK  4 active torsions:
REMARK  status: ('A' for Active; 'I' for Inactive)
REMARK    1  A    between atoms: C_2  and  C_4
REMARK    2  A    between atoms: N_15  and  C_16
REMARK    3  A    between atoms: C_16  and  C_17
REMARK    4  A    between atoms: C_17  and  C_18
REMARK                            x       y       z     vdW  Elec       q    Type
REMARK                         _______ _______ _______ _____ _____    ______ ____
ROOT
ATOM      1  C   UNL     1       3.474   4.193  19.143  0.00  0.00    +0.000 A 
ATOM      2  C   UNL     1       3.218   3.159  20.068  0.00  0.00    +0.000 A 
ATOM      3  C   UNL     1       2.408   3.363  21.183  0.00  0.00    +0.000 A 
ATOM      4  C   UNL     1       1.843   4.611  21.427  0.00  0.00    +0.000 A 
ATOM      5  C   UNL     1       2.121   5.637  20.517  0.00  0.00    +0.000 A 
ATOM      6  N   UNL     1       1.705   6.943  20.544  0.00  0.00    +0.000 N 
ATOM      7  C   UNL     1       2.132   7.612  19.430  0.00  0.00    +0.000 A 
ATOM      8  C   UNL     1       1.888   8.911  19.002  0.00  0.00    +0.000 A 
ATOM      9  N   UNL     1       1.021   9.729  19.690  0.00  0.00    +0.000 N 
ATOM     10  C   UNL     1       1.217  11.182  19.629  0.00  0.00    +0.000 C 
ATOM     11  C   UNL     1       0.038  11.928  18.969  0.00  0.00    +0.000 C 
ATOM     12  N   UNL     1      -1.308  11.523  19.441  0.00  0.00    +0.000 NA
ATOM     13  C   UNL     1      -1.421  10.071  19.180  0.00  0.00    +0.000 C 
ATOM     14  C   UNL     1      -0.350   9.214  19.881  0.00  0.00    +0.000 C 
ATOM     15  N   UNL     1       2.557   9.317  17.906  0.00  0.00    +0.000 NA
ATOM     16  C   UNL     1       3.341   8.426  17.267  0.00  0.00    +0.000 A 
ATOM     17  N   UNL     1       3.562   7.137  17.580  0.00  0.00    +0.000 NA
ATOM     18  C   UNL     1       2.940   6.749  18.719  0.00  0.00    +0.000 A 
ATOM     19  C   UNL     1       2.916   5.473  19.374  0.00  0.00    +0.000 A 
ATOM     20  H   UNL     1       1.138   7.359  21.267  0.00  0.00    +0.000 HD
ENDROOT
BRANCH   1  22
ATOM     21  N   UNL     1       5.656   3.676  18.166  0.00  0.00    +0.000 N 
ATOM     22  C   UNL     1       4.317   3.854  17.972  0.00  0.00    +0.000 C 
ATOM     23  O   UNL     1       3.835   3.774  16.849  0.00  0.00    +0.000 OA
ATOM     24  H   UNL     1       6.179   3.311  17.384  0.00  0.00    +0.000 HD
ATOM     25  H   UNL     1       6.036   3.499  19.091  0.00  0.00    +0.000 HD
ENDBRANCH   1  22
BRANCH  12  26
ATOM     26  C   UNL     1      -1.540  11.810  20.872  0.00  0.00    +0.000 C 
BRANCH  26  27
ATOM     27  C   UNL     1      -2.175  13.185  21.130  0.00  0.00    +0.000 C 
BRANCH  27  28
ATOM     28  C   UNL     1      -3.400  13.071  22.008  0.00  0.00    +0.000 A 
ATOM     29  C   UNL     1      -4.678  13.330  21.482  0.00  0.00    +0.000 A 
ATOM     30  C   UNL     1      -5.809  13.245  22.297  0.00  0.00    +0.000 A 
ATOM     31  C   UNL     1      -5.664  12.911  23.639  0.00  0.00    +0.000 A 
ATOM     32  F   UNL     1      -6.751  12.833  24.417  0.00  0.00    +0.000 F 
ATOM     33  C   UNL     1      -4.404  12.661  24.169  0.00  0.00    +0.000 A 
ATOM     34  F   UNL     1      -4.266  12.342  25.462  0.00  0.00    +0.000 F 
ATOM     35  C   UNL     1      -3.271  12.742  23.363  0.00  0.00    +0.000 A 
ENDBRANCH  27  28
ENDBRANCH  26  27
ENDBRANCH  12  26
TORSDOF 4
ENDMDL
MODEL 5
REMARK VINA RESULT:      -7.4      5.680     10.282
REMARK  Name = 
REMARK  4 active torsions:
REMARK  status: ('A' for Active; 'I' for Inactive)
REMARK    1  A    between atoms: C_2  and  C_4
REMARK    2  A    between atoms: N_15  and  C_16
REMARK    3  A    between atoms: C_16  and  C_17
REMARK    4  A    between atoms: C_17  and  C_18
REMARK                            x       y       z     vdW  Elec       q    Type
REMARK                         _______ _______ _______ _____ _____    ______ ____
ROOT
ATOM      1  C   UNL     1       2.879   3.719  19.017  0.00  0.00    +0.000 A 
ATOM      2  C   UNL     1       2.780   2.655  19.937  0.00  0.00    +0.000 A 
ATOM      3  C   UNL     1       2.333   2.860  21.241  0.00  0.00    +0.000 A 
ATOM      4  C   UNL     1       1.992   4.136  21.678  0.00  0.00    +0.000 A 
ATOM      5  C   UNL     1       2.115   5.189  20.765  0.00  0.00    +0.000 A 
ATOM      6  N   UNL     1       1.862   6.523  20.955  0.00  0.00    +0.000 N 
ATOM      7  C   UNL     1       2.036   7.220  19.791  0.00  0.00    +0.000 A 
ATOM      8  C   UNL     1       1.822   8.561  19.495  0.00  0.00    +0.000 A 
ATOM      9  N   UNL     1       1.268   9.408  20.427  0.00  0.00    +0.000 N 
ATOM     10  C   UNL     1       1.592  10.839  20.367  0.00  0.00    +0.000 C 
ATOM     11  C   UNL     1       0.362  11.730  20.091  0.00  0.00    +0.000 C 
ATOM     12  N   UNL     1      -0.838  11.419  20.905  0.00  0.00    +0.000 NA
ATOM     13  C   UNL     1      -1.170  10.003  20.633  0.00  0.00    +0.000 C 
ATOM     14  C   UNL     1      -0.044   9.009  20.975  0.00  0.00    +0.000 C 
ATOM     15  N   UNL     1       2.204   8.973  18.271  0.00  0.00    +0.000 NA
ATOM     16  C   UNL     1       2.684   8.058  17.407  0.00  0.00    +0.000 A 
ATOM     17  N   UNL     1       2.846   6.737  17.599  0.00  0.00    +0.000 NA
ATOM     18  C   UNL     1       2.522   6.334  18.851  0.00  0.00    +0.000 A 
ATOM     19  C   UNL     1       2.545   5.027  19.440  0.00  0.00    +0.000 A 
ATOM     20  H   UNL     1       1.563   6.941  21.822  0.00  0.00    +0.000 HD
ENDROOT
BRANCH   1  22
ATOM     21  N   UNL     1       4.668   3.279  17.407  0.00  0.00    +0.000 N 
ATOM     22  C   UNL     1       3.329   3.380  17.645  0.00  0.00    +0.000 C 
ATOM     23  O   UNL     1       2.522   3.234  16.734  0.00  0.00    +0.000 OA
ATOM     24  H   UNL     1       4.939   2.912  16.507  0.00  0.00    +0.000 HD
ATOM     25  H   UNL     1       5.331   3.156  18.166  0.00  0.00    +0.000 HD
ENDBRANCH   1  22
BRANCH  12  26
ATOM     26  C   UNL     1      -0.636  11.634  22.353  0.00  0.00    +0.000 C 
BRANCH  26  27
ATOM     27  C   UNL     1      -1.888  11.354  23.198  0.00  0.00    +0.000 C 
BRANCH  27  28
ATOM     28  C   UNL     1      -2.846  12.522  23.171  0.00  0.00    +0.000 A 
ATOM     29  C   UNL     1      -3.782  12.649  22.128  0.00  0.00    +0.000 A 
ATOM     30  C   UNL     1      -4.655  13.739  22.091  0.00  0.00    +0.000 A 
ATOM     31  C   UNL     1      -4.588  14.706  23.088  0.00  0.00    +0.000 A 
ATOM     32  F   UNL     1      -5.425  15.750  23.046  0.00  0.00    +0.000 F 
ATOM     33  C   UNL     1      -3.661  14.592  24.116  0.00  0.00    +0.000 A 
ATOM     34  F   UNL     1      -3.596  15.526  25.075  0.00  0.00    +0.000 F 
ATOM     35  C   UNL     1      -2.789  13.507  24.163  0.00  0.00    +0.000 A 
ENDBRANCH  27  28
ENDBRANCH  26  27
ENDBRANCH  12  26
TORSDOF 4
ENDMDL
MODEL 6
REMARK VINA RESULT:      -7.4      1.255      1.505
REMARK  Name = 
REMARK  4 active torsions:
REMARK  status: ('A' for Active; 'I' for Inactive)
REMARK    1  A    between atoms: C_2  and  C_4
REMARK    2  A    between atoms: N_15  and  C_16
REMARK    3  A    between atoms: C_16  and  C_17
REMARK    4  A    between atoms: C_17  and  C_18
REMARK                            x       y       z     vdW  Elec       q    Type
REMARK                         _______ _______ _______ _____ _____    ______ ____
ROOT
ATOM      1  C   UNL     1       1.120  17.060  18.188  0.00  0.00    +0.000 A 
ATOM      2  C   UNL     1       2.209  17.403  17.361  0.00  0.00    +0.000 A 
ATOM      3  C   UNL     1       3.264  16.521  17.142  0.00  0.00    +0.000 A 
ATOM      4  C   UNL     1       3.281  15.273  17.758  0.00  0.00    +0.000 A 
ATOM      5  C   UNL     1       2.207  14.949  18.594  0.00  0.00    +0.000 A 
ATOM      6  N   UNL     1       2.001  13.805  19.322  0.00  0.00    +0.000 N 
ATOM      7  C   UNL     1       0.791  13.846  19.957  0.00  0.00    +0.000 A 
ATOM      8  C   UNL     1       0.139  12.892  20.731  0.00  0.00    +0.000 A 
ATOM      9  N   UNL     1       0.666  11.630  20.884  0.00  0.00    +0.000 N 
ATOM     10  C   UNL     1       0.353  10.874  22.103  0.00  0.00    +0.000 C 
ATOM     11  C   UNL     1      -0.437   9.577  21.829  0.00  0.00    +0.000 C 
ATOM     12  N   UNL     1       0.087   8.741  20.721  0.00  0.00    +0.000 NA
ATOM     13  C   UNL     1       0.084   9.598  19.515  0.00  0.00    +0.000 C 
ATOM     14  C   UNL     1       0.933  10.878  19.642  0.00  0.00    +0.000 C 
ATOM     15  N   UNL     1      -1.005  13.281  21.324  0.00  0.00    +0.000 NA
ATOM     16  C   UNL     1      -1.471  14.519  21.068  0.00  0.00    +0.000 A 
ATOM     17  N   UNL     1      -0.935  15.462  20.273  0.00  0.00    +0.000 NA
ATOM     18  C   UNL     1       0.249  15.093  19.728  0.00  0.00    +0.000 A 
ATOM     19  C   UNL     1       1.117  15.799  18.832  0.00  0.00    +0.000 A 
ATOM     20  H   UNL     1       2.635  13.022  19.368  0.00  0.00    +0.000 HD
ENDROOT
BRANCH   1  22
ATOM     21  N   UNL     1      -0.208  18.599  19.549  0.00  0.00    +0.000 N 
ATOM     22  C   UNL     1       0.033  18.060  18.319  0.00  0.00    +0.000 C 
ATOM     23  O   UNL     1      -0.661  18.368  17.358  0.00  0.00    +0.000 OA
ATOM     24  H   UNL     1      -0.853  19.374  19.582  0.00  0.00    +0.000 HD
ATOM     25  H   UNL     1       0.484  18.551  20.291  0.00  0.00    +0.000 HD
ENDBRANCH   1  22
BRANCH  12  26
ATOM     26  C   UNL     1       1.443   8.213  20.976  0.00  0.00    +0.000 C 
BRANCH  26  27
ATOM     27  C   UNL     1       2.119   7.622  19.730  0.00  0.00    +0.000 C 
BRANCH  27  28
ATOM     28  C   UNL     1       2.381   6.143  19.892  0.00  0.00    +0.000 A 
ATOM     29  C   UNL     1       1.450   5.326  20.557  0.00  0.00    +0.000 A 
ATOM     30  C   UNL     1       1.699   3.961  20.725  0.00  0.00    +0.000 A 
ATOM     31  C   UNL     1       2.881   3.415  20.238  0.00  0.00    +0.000 A 
ATOM     32  F   UNL     1       3.116   2.107  20.404  0.00  0.00    +0.000 F 
ATOM     33  C   UNL     1       3.810   4.217  19.586  0.00  0.00    +0.000 A 
ATOM     34  F   UNL     1       4.949   3.690  19.120  0.00  0.00    +0.000 F 
ATOM     35  C   UNL     1       3.568   5.577  19.412  0.00  0.00    +0.000 A 
ENDBRANCH  27  28
ENDBRANCH  26  27
ENDBRANCH  12  26
TORSDOF 4
ENDMDL
MODEL 7
REMARK VINA RESULT:      -7.4      5.226      8.206
REMARK  Name = 
REMARK  4 active torsions:
REMARK  status: ('A' for Active; 'I' for Inactive)
REMARK    1  A    between atoms: C_2  and  C_4
REMARK    2  A    between atoms: N_15  and  C_16
REMARK    3  A    between atoms: C_16  and  C_17
REMARK    4  A    between atoms: C_17  and  C_18
REMARK                            x       y       z     vdW  Elec       q    Type
REMARK                         _______ _______ _______ _____ _____    ______ ____
ROOT
ATOM      1  C   UNL     1      -0.805  11.507  18.466  0.00  0.00    +0.000 A 
ATOM      2  C   UNL     1      -0.630  10.114  18.329  0.00  0.00    +0.000 A 
ATOM      3  C   UNL     1       0.638   9.539  18.287  0.00  0.00    +0.000 A 
ATOM      4  C   UNL     1       1.777  10.335  18.359  0.00  0.00    +0.000 A 
ATOM      5  C   UNL     1       1.595  11.718  18.472  0.00  0.00    +0.000 A 
ATOM      6  N   UNL     1       2.544  12.705  18.540  0.00  0.00    +0.000 N 
ATOM      7  C   UNL     1       1.959  13.928  18.720  0.00  0.00    +0.000 A 
ATOM      8  C   UNL     1       2.523  15.184  18.916  0.00  0.00    +0.000 A 
ATOM      9  N   UNL     1       3.884  15.332  19.052  0.00  0.00    +0.000 N 
ATOM     10  C   UNL     1       4.503  16.604  18.658  0.00  0.00    +0.000 C 
ATOM     11  C   UNL     1       5.170  17.346  19.834  0.00  0.00    +0.000 C 
ATOM     12  N   UNL     1       6.027  16.506  20.706  0.00  0.00    +0.000 NA
ATOM     13  C   UNL     1       5.162  15.422  21.220  0.00  0.00    +0.000 C 
ATOM     14  C   UNL     1       4.523  14.545  20.126  0.00  0.00    +0.000 C 
ATOM     15  N   UNL     1       1.670  16.226  18.943  0.00  0.00    +0.000 NA
ATOM     16  C   UNL     1       0.349  15.976  18.859  0.00  0.00    +0.000 A 
ATOM     17  N   UNL     1      -0.267  14.786  18.745  0.00  0.00    +0.000 NA
ATOM     18  C   UNL     1       0.594  13.744  18.653  0.00  0.00    +0.000 A 
ATOM     19  C   UNL     1       0.339  12.338  18.533  0.00  0.00    +0.000 A 
ATOM     20  H   UNL     1       3.541  12.559  18.493  0.00  0.00    +0.000 HD
ENDROOT
BRANCH   1  22
ATOM     21  N   UNL     1      -2.568  12.744  19.625  0.00  0.00    +0.000 N 
ATOM     22  C   UNL     1      -2.198  12.006  18.538  0.00  0.00    +0.000 C 
ATOM     23  O   UNL     1      -3.014  11.733  17.666  0.00  0.00    +0.000 OA
ATOM     24  H   UNL     1      -3.474  13.186  19.582  0.00  0.00    +0.000 HD
ATOM     25  H   UNL     1      -1.876  13.181  20.225  0.00  0.00    +0.000 HD
ENDBRANCH   1  22
BRANCH  12  26
ATOM     26  C   UNL     1       7.201  15.943  20.007  0.00  0.00    +0.000 C 
BRANCH  26  27
ATOM     27  C   UNL     1       8.044  15.000  20.880  0.00  0.00    +0.000 C 
BRANCH  27  28
ATOM     28  C   UNL     1       8.833  14.026  20.037  0.00  0.00    +0.000 A 
ATOM     29  C   UNL     1       8.482  13.801  18.694  0.00  0.00    +0.000 A 
ATOM     30  C   UNL     1       9.198  12.885  17.919  0.00  0.00    +0.000 A 
ATOM     31  C   UNL     1      10.258  12.187  18.487  0.00  0.00    +0.000 A 
ATOM     32  F   UNL     1      10.940  11.309  17.741  0.00  0.00    +0.000 F 
ATOM     33  C   UNL     1      10.607  12.398  19.815  0.00  0.00    +0.000 A 
ATOM     34  F   UNL     1      11.627  11.723  20.362  0.00  0.00    +0.000 F 
ATOM     35  C   UNL     1       9.900  13.310  20.594  0.00  0.00    +0.000 A 
ENDBRANCH  27  28
ENDBRANCH  26  27
ENDBRANCH  12  26
TORSDOF 4
ENDMDL
MODEL 8
REMARK VINA RESULT:      -7.3      0.727      1.299
REMARK  Name = 
REMARK  4 active torsions:
REMARK  status: ('A' for Active; 'I' for Inactive)
REMARK    1  A    between atoms: C_2  and  C_4
REMARK    2  A    between atoms: N_15  and  C_16
REMARK    3  A    between atoms: C_16  and  C_17
REMARK    4  A    between atoms: C_17  and  C_18
REMARK                            x       y       z     vdW  Elec       q    Type
REMARK                         _______ _______ _______ _____ _____    ______ ____
ROOT
ATOM      1  C   UNL     1       1.996  16.641  18.457  0.00  0.00    +0.000 A 
ATOM      2  C   UNL     1       3.188  16.954  17.770  0.00  0.00    +0.000 A 
ATOM      3  C   UNL     1       4.218  16.025  17.639  0.00  0.00    +0.000 A 
ATOM      4  C   UNL     1       4.105  14.760  18.208  0.00  0.00    +0.000 A 
ATOM      5  C   UNL     1       2.929  14.466  18.906  0.00  0.00    +0.000 A 
ATOM      6  N   UNL     1       2.587  13.313  19.564  0.00  0.00    +0.000 N 
ATOM      7  C   UNL     1       1.316  13.395  20.060  0.00  0.00    +0.000 A 
ATOM      8  C   UNL     1       0.535  12.453  20.720  0.00  0.00    +0.000 A 
ATOM      9  N   UNL     1       0.981  11.162  20.886  0.00  0.00    +0.000 N 
ATOM     10  C   UNL     1       0.495  10.386  22.034  0.00  0.00    +0.000 C 
ATOM     11  C   UNL     1      -0.320   9.140  21.625  0.00  0.00    +0.000 C 
ATOM     12  N   UNL     1       0.287   8.313  20.555  0.00  0.00    +0.000 NA
ATOM     13  C   UNL     1       0.462   9.205  19.388  0.00  0.00    +0.000 C 
ATOM     14  C   UNL     1       1.351  10.435  19.655  0.00  0.00    +0.000 C 
ATOM     15  N   UNL     1      -0.649  12.883  21.194  0.00  0.00    +0.000 NA
ATOM     16  C   UNL     1      -1.024  14.150  20.933  0.00  0.00    +0.000 A 
ATOM     17  N   UNL     1      -0.357  15.088  20.238  0.00  0.00    +0.000 NA
ATOM     18  C   UNL     1       0.863  14.676  19.816  0.00  0.00    +0.000 A 
ATOM     19  C   UNL     1       1.861  15.363  19.050  0.00  0.00    +0.000 A 
ATOM     20  H   UNL     1       3.174  12.497  19.652  0.00  0.00    +0.000 HD
ENDROOT
BRANCH   1  22
ATOM     21  N   UNL     1      -0.086  17.612  17.618  0.00  0.00    +0.000 N 
ATOM     22  C   UNL     1       0.951  17.691  18.501  0.00  0.00    +0.000 C 
ATOM     23  O   UNL     1       1.032  18.631  19.283  0.00  0.00    +0.000 OA
ATOM     24  H   UNL     1      -0.851  18.255  17.762  0.00  0.00    +0.000 HD
ATOM     25  H   UNL     1      -0.307  16.744  17.139  0.00  0.00    +0.000 HD
ENDBRANCH   1  22
BRANCH  12  26
ATOM     26  C   UNL     1       1.579   7.708  20.941  0.00  0.00    +0.000 C 
BRANCH  26  27
ATOM     27  C   UNL     1       2.359   7.113  19.760  0.00  0.00    +0.000 C 
BRANCH  27  28
ATOM     28  C   UNL     1       2.007   5.659  19.542  0.00  0.00    +0.000 A 
ATOM     29  C   UNL     1       1.465   4.895  20.590  0.00  0.00    +0.000 A 
ATOM     30  C   UNL     1       1.157   3.546  20.396  0.00  0.00    +0.000 A 
ATOM     31  C   UNL     1       1.400   2.958  19.159  0.00  0.00    +0.000 A 
ATOM     32  F   UNL     1       1.106   1.664  18.979  0.00  0.00    +0.000 F 
ATOM     33  C   UNL     1       1.943   3.704  18.121  0.00  0.00    +0.000 A 
ATOM     34  F   UNL     1       2.178   3.136  16.931  0.00  0.00    +0.000 F 
ATOM     35  C   UNL     1       2.250   5.050  18.305  0.00  0.00    +0.000 A 
ENDBRANCH  27  28
ENDBRANCH  26  27
ENDBRANCH  12  26
TORSDOF 4
ENDMDL
MODEL 9
REMARK VINA RESULT:      -7.3      5.528     10.270
REMARK  Name = 
REMARK  4 active torsions:
REMARK  status: ('A' for Active; 'I' for Inactive)
REMARK    1  A    between atoms: C_2  and  C_4
REMARK    2  A    between atoms: N_15  and  C_16
REMARK    3  A    between atoms: C_16  and  C_17
REMARK    4  A    between atoms: C_17  and  C_18
REMARK                            x       y       z     vdW  Elec       q    Type
REMARK                         _______ _______ _______ _____ _____    ______ ____
ROOT
ATOM      1  C   UNL     1       2.900   3.728  18.907  0.00  0.00    +0.000 A 
ATOM      2  C   UNL     1       2.796   2.632  19.789  0.00  0.00    +0.000 A 
ATOM      3  C   UNL     1       2.341   2.789  21.096  0.00  0.00    +0.000 A 
ATOM      4  C   UNL     1       1.996   4.049  21.577  0.00  0.00    +0.000 A 
ATOM      5  C   UNL     1       2.124   5.134  20.703  0.00  0.00    +0.000 A 
ATOM      6  N   UNL     1       1.869   6.460  20.939  0.00  0.00    +0.000 N 
ATOM      7  C   UNL     1       2.049   7.199  19.802  0.00  0.00    +0.000 A 
ATOM      8  C   UNL     1       1.836   8.549  19.554  0.00  0.00    +0.000 A 
ATOM      9  N   UNL     1       1.275   9.362  20.512  0.00  0.00    +0.000 N 
ATOM     10  C   UNL     1       1.597  10.794  20.506  0.00  0.00    +0.000 C 
ATOM     11  C   UNL     1       0.369  11.694  20.254  0.00  0.00    +0.000 C 
ATOM     12  N   UNL     1      -0.836  11.353  21.049  0.00  0.00    +0.000 NA
ATOM     13  C   UNL     1      -1.165   9.947  20.724  0.00  0.00    +0.000 C 
ATOM     14  C   UNL     1      -0.040   8.942  21.037  0.00  0.00    +0.000 C 
ATOM     15  N   UNL     1       2.224   9.006  18.348  0.00  0.00    +0.000 NA
ATOM     16  C   UNL     1       2.711   8.123  17.454  0.00  0.00    +0.000 A 
ATOM     17  N   UNL     1       2.872   6.796  17.599  0.00  0.00    +0.000 NA
ATOM     18  C   UNL     1       2.541   6.348  18.834  0.00  0.00    +0.000 A 
ATOM     19  C   UNL     1       2.562   5.020  19.376  0.00  0.00    +0.000 A 
ATOM     20  H   UNL     1       1.564   6.847  21.819  0.00  0.00    +0.000 HD
ENDROOT
BRANCH   1  22
ATOM     21  N   UNL     1       4.591   3.884  17.146  0.00  0.00    +0.000 N 
ATOM     22  C   UNL     1       3.358   3.440  17.527  0.00  0.00    +0.000 C 
ATOM     23  O   UNL     1       2.635   2.853  16.731  0.00  0.00    +0.000 OA
ATOM     24  H   UNL     1       4.933   3.555  16.255  0.00  0.00    +0.000 HD
ATOM     25  H   UNL     1       5.291   4.150  17.832  0.00  0.00    +0.000 HD
ENDBRANCH   1  22
BRANCH  12  26
ATOM     26  C   UNL     1      -0.643  11.515  22.505  0.00  0.00    +0.000 C 
BRANCH  26  27
ATOM     27  C   UNL     1      -1.946  11.424  23.313  0.00  0.00    +0.000 C 
BRANCH  27  28
ATOM     28  C   UNL     1      -2.783  12.673  23.157  0.00  0.00    +0.000 A 
ATOM     29  C   UNL     1      -2.365  13.884  23.737  0.00  0.00    +0.000 A 
ATOM     30  C   UNL     1      -3.146  15.035  23.611  0.00  0.00    +0.000 A 
ATOM     31  C   UNL     1      -4.349  14.975  22.915  0.00  0.00    +0.000 A 
ATOM     32  F   UNL     1      -5.095  16.081  22.799  0.00  0.00    +0.000 F 
ATOM     33  C   UNL     1      -4.773  13.781  22.346  0.00  0.00    +0.000 A 
ATOM     34  F   UNL     1      -5.932  13.724  21.678  0.00  0.00    +0.000 F 
ATOM     35  C   UNL     1      -3.998  12.629  22.465  0.00  0.00    +0.000 A 
ENDBRANCH  27  28
ENDBRANCH  26  27
ENDBRANCH  12  26
TORSDOF 4
ENDMDL
