MODEL 1
REMARK VINA RESULT:      -8.2      0.000      0.000
REMARK  Name = 
REMARK  4 active torsions:
REMARK  status: ('A' for Active; 'I' for Inactive)
REMARK    1  A    between atoms: C_1  and  C_2
REMARK    2  A    between atoms: C_5  and  C_6
REMARK    3  A    between atoms: C_7  and  C_8
REMARK    4  A    between atoms: C_13  and  C_14
REMARK                            x       y       z     vdW  Elec       q    Type
REMARK                         _______ _______ _______ _____ _____    ______ ____
ROOT
ATOM      1  C   UNL     1       1.023   9.935  18.849  0.00  0.00    +0.000 C 
ATOM      2  O   UNL     1       0.581   9.273  19.783  0.00  0.00    +0.000 OA
ATOM      3  N   UNL     1       1.973   9.498  17.959  0.00  0.00    +0.000 N 
ATOM      4  C   UNL     1       2.503   8.239  18.040  0.00  0.00    +0.000 A 
ATOM      5  N   UNL     1       2.080   7.193  18.698  0.00  0.00    +0.000 NA
ATOM      6  C   UNL     1       2.957   6.128  18.526  0.00  0.00    +0.000 A 
ATOM      7  C   UNL     1       4.061   6.440  17.746  0.00  0.00    +0.000 A 
ATOM      8  S   UNL     1       3.933   8.037  17.136  0.00  0.00    +0.000 S 
ATOM      9  H   UNL     1       2.420  10.118  17.311  0.00  0.00    +0.000 HD
ENDROOT
BRANCH   6  10
ATOM     10  C   UNL     1       2.608   4.773  19.126  0.00  0.00    +0.000 C 
ATOM     11  C   UNL     1       1.788   3.952  18.092  0.00  0.00    +0.000 C 
ATOM     12  C   UNL     1       1.428   2.565  18.649  0.00  0.00    +0.000 C 
ATOM     13  C   UNL     1       2.718   1.805  18.992  0.00  0.00    +0.000 C 
ATOM     14  C   UNL     1       3.516   2.577  20.055  0.00  0.00    +0.000 C 
ATOM     15  C   UNL     1       2.660   2.750  21.319  0.00  0.00    +0.000 C 
ATOM     16  C   UNL     1       1.374   3.520  20.978  0.00  0.00    +0.000 C 
ATOM     17  C   UNL     1       0.583   2.731  19.921  0.00  0.00    +0.000 C 
ATOM     18  C   UNL     1       1.743   4.907  20.412  0.00  0.00    +0.000 C 
ATOM     19  C   UNL     1       3.881   3.962  19.499  0.00  0.00    +0.000 C 
ENDBRANCH   6  10
BRANCH   1  26
ATOM     20  C   UNL     1      -2.007  10.892  18.455  0.00  0.00    +0.000 C 
ATOM     21  C   UNL     1      -0.783  11.730  18.490  0.00  0.00    +0.000 A 
ATOM     22  N   UNL     1      -0.883  13.056  18.354  0.00  0.00    +0.000 NA
ATOM     23  O   UNL     1       0.399  13.538  18.440  0.00  0.00    +0.000 OA
ATOM     24  C   UNL     1       1.274  12.509  18.632  0.00  0.00    +0.000 A 
ATOM     25  C   UNL     1       2.683  12.933  18.735  0.00  0.00    +0.000 C 
ATOM     26  C   UNL     1       0.574  11.317  18.671  0.00  0.00    +0.000 A 
ENDBRANCH   1  26
TORSDOF 2
ENDMDL
MODEL 2
REMARK VINA RESULT:      -8.2      2.020      2.025
REMARK  Name = 
REMARK  4 active torsions:
REMARK  status: ('A' for Active; 'I' for Inactive)
REMARK    1  A    between atoms: C_1  and  C_2
REMARK    2  A    between atoms: C_5  and  C_6
REMARK    3  A    between atoms: C_7  and  C_8
REMARK    4  A    between atoms: C_13  and  C_14
REMARK                            x       y       z     vdW  Elec       q    Type
REMARK                         _______ _______ _______ _____ _____    ______ ____
ROOT
ATOM      1  C   UNL     1       0.887   9.914  20.997  0.00  0.00    +0.000 C 
ATOM      2  O   UNL     1       0.936   9.036  21.854  0.00  0.00    +0.000 OA
ATOM      3  N   UNL     1       1.277   9.756  19.691  0.00  0.00    +0.000 N 
ATOM      4  C   UNL     1       1.750   8.560  19.225  0.00  0.00    +0.000 A 
ATOM      5  N   UNL     1       1.674   7.367  19.751  0.00  0.00    +0.000 NA
ATOM      6  C   UNL     1       2.332   6.442  18.949  0.00  0.00    +0.000 A 
ATOM      7  C   UNL     1       2.928   7.005  17.830  0.00  0.00    +0.000 A 
ATOM      8  S   UNL     1       2.559   8.677  17.729  0.00  0.00    +0.000 S 
ATOM      9  H   UNL     1       1.370  10.534  19.065  0.00  0.00    +0.000 HD
ENDROOT
BRANCH   6  10
ATOM     10  C   UNL     1       2.284   4.967  19.322  0.00  0.00    +0.000 C 
ATOM     11  C   UNL     1       1.734   4.153  18.117  0.00  0.00    +0.000 C 
ATOM     12  C   UNL     1       1.685   2.650  18.442  0.00  0.00    +0.000 C 
ATOM     13  C   UNL     1       3.100   2.159  18.783  0.00  0.00    +0.000 C 
ATOM     14  C   UNL     1       3.639   2.916  20.008  0.00  0.00    +0.000 C 
ATOM     15  C   UNL     1       2.706   2.692  21.206  0.00  0.00    +0.000 C 
ATOM     16  C   UNL     1       1.293   3.195  20.869  0.00  0.00    +0.000 C 
ATOM     17  C   UNL     1       0.764   2.422  19.650  0.00  0.00    +0.000 C 
ATOM     18  C   UNL     1       1.350   4.699  20.537  0.00  0.00    +0.000 C 
ATOM     19  C   UNL     1       3.693   4.418  19.683  0.00  0.00    +0.000 C 
ENDBRANCH   6  10
BRANCH   1  26
ATOM     20  C   UNL     1      -1.332  10.617  23.195  0.00  0.00    +0.000 C 
ATOM     21  C   UNL     1      -0.556  11.557  22.349  0.00  0.00    +0.000 A 
ATOM     22  N   UNL     1      -0.750  12.874  22.472  0.00  0.00    +0.000 NA
ATOM     23  O   UNL     1       0.109  13.463  21.578  0.00  0.00    +0.000 OA
ATOM     24  C   UNL     1       0.826  12.507  20.919  0.00  0.00    +0.000 A 
ATOM     25  C   UNL     1       1.778  13.049  19.932  0.00  0.00    +0.000 C 
ATOM     26  C   UNL     1       0.442  11.257  21.370  0.00  0.00    +0.000 A 
ENDBRANCH   1  26
TORSDOF 2
ENDMDL
MODEL 3
REMARK VINA RESULT:      -8.1      2.712      4.361
REMARK  Name = 
REMARK  4 active torsions:
REMARK  status: ('A' for Active; 'I' for Inactive)
REMARK    1  A    between atoms: C_1  and  C_2
REMARK    2  A    between atoms: C_5  and  C_6
REMARK    3  A    between atoms: C_7  and  C_8
REMARK    4  A    between atoms: C_13  and  C_14
REMARK                            x       y       z     vdW  Elec       q    Type
REMARK                         _______ _______ _______ _____ _____    ______ ____
ROOT
ATOM      1  C   UNL     1       1.061   8.997  20.143  0.00  0.00    +0.000 C 
ATOM      2  O   UNL     1       1.670   9.362  19.142  0.00  0.00    +0.000 OA
ATOM      3  N   UNL     1       1.169   7.755  20.717  0.00  0.00    +0.000 N 
ATOM      4  C   UNL     1       2.009   6.803  20.208  0.00  0.00    +0.000 A 
ATOM      5  N   UNL     1       2.995   6.922  19.360  0.00  0.00    +0.000 NA
ATOM      6  C   UNL     1       3.553   5.678  19.090  0.00  0.00    +0.000 A 
ATOM      7  C   UNL     1       2.919   4.633  19.745  0.00  0.00    +0.000 A 
ATOM      8  S   UNL     1       1.696   5.231  20.788  0.00  0.00    +0.000 S 
ATOM      9  H   UNL     1       0.542   7.444  21.435  0.00  0.00    +0.000 HD
ENDROOT
BRANCH   6  10
ATOM     10  C   UNL     1       4.784   5.593  18.199  0.00  0.00    +0.000 C 
ATOM     11  C   UNL     1       4.777   6.786  17.201  0.00  0.00    +0.000 C 
ATOM     12  C   UNL     1       6.016   6.751  16.290  0.00  0.00    +0.000 C 
ATOM     13  C   UNL     1       7.283   6.821  17.155  0.00  0.00    +0.000 C 
ATOM     14  C   UNL     1       7.335   5.619  18.111  0.00  0.00    +0.000 C 
ATOM     15  C   UNL     1       7.327   4.314  17.302  0.00  0.00    +0.000 C 
ATOM     16  C   UNL     1       6.053   4.238  16.445  0.00  0.00    +0.000 C 
ATOM     17  C   UNL     1       6.021   5.441  15.488  0.00  0.00    +0.000 C 
ATOM     18  C   UNL     1       4.814   4.281  17.364  0.00  0.00    +0.000 C 
ATOM     19  C   UNL     1       6.100   5.653  19.026  0.00  0.00    +0.000 C 
ENDBRANCH   6  10
BRANCH   1  26
ATOM     20  C   UNL     1      -0.773  11.130  18.612  0.00  0.00    +0.000 C 
ATOM     21  C   UNL     1      -0.714  10.856  20.070  0.00  0.00    +0.000 A 
ATOM     22  N   UNL     1      -1.501  11.541  20.905  0.00  0.00    +0.000 NA
ATOM     23  O   UNL     1      -1.225  11.058  22.160  0.00  0.00    +0.000 OA
ATOM     24  C   UNL     1      -0.278  10.078  22.086  0.00  0.00    +0.000 A 
ATOM     25  C   UNL     1       0.085   9.498  23.392  0.00  0.00    +0.000 C 
ATOM     26  C   UNL     1       0.094   9.903  20.765  0.00  0.00    +0.000 A 
ENDBRANCH   1  26
TORSDOF 2
ENDMDL
MODEL 4
REMARK VINA RESULT:      -8.1      2.000      2.463
REMARK  Name = 
REMARK  4 active torsions:
REMARK  status: ('A' for Active; 'I' for Inactive)
REMARK    1  A    between atoms: C_1  and  C_2
REMARK    2  A    between atoms: C_5  and  C_6
REMARK    3  A    between atoms: C_7  and  C_8
REMARK    4  A    between atoms: C_13  and  C_14
REMARK                            x       y       z     vdW  Elec       q    Type
REMARK                         _______ _______ _______ _____ _____    ______ ____
ROOT
ATOM      1  C   UNL     1       0.981   9.792  20.967  0.00  0.00    +0.000 C 
ATOM      2  O   UNL     1       1.014   8.902  21.812  0.00  0.00    +0.000 OA
ATOM      3  N   UNL     1       1.380   9.648  19.661  0.00  0.00    +0.000 N 
ATOM      4  C   UNL     1       1.844   8.453  19.183  0.00  0.00    +0.000 A 
ATOM      5  N   UNL     1       1.751   7.254  19.692  0.00  0.00    +0.000 NA
ATOM      6  C   UNL     1       2.407   6.334  18.882  0.00  0.00    +0.000 A 
ATOM      7  C   UNL     1       3.017   6.906  17.775  0.00  0.00    +0.000 A 
ATOM      8  S   UNL     1       2.666   8.582  17.696  0.00  0.00    +0.000 S 
ATOM      9  H   UNL     1       1.486  10.433  19.047  0.00  0.00    +0.000 HD
ENDROOT
BRANCH   6  10
ATOM     10  C   UNL     1       2.340   4.854  19.234  0.00  0.00    +0.000 C 
ATOM     11  C   UNL     1       1.369   4.656  20.432  0.00  0.00    +0.000 C 
ATOM     12  C   UNL     1       1.256   3.170  20.811  0.00  0.00    +0.000 C 
ATOM     13  C   UNL     1       0.740   2.375  19.602  0.00  0.00    +0.000 C 
ATOM     14  C   UNL     1       1.717   2.516  18.424  0.00  0.00    +0.000 C 
ATOM     15  C   UNL     1       3.102   1.996  18.837  0.00  0.00    +0.000 C 
ATOM     16  C   UNL     1       3.624   2.799  20.040  0.00  0.00    +0.000 C 
ATOM     17  C   UNL     1       2.641   2.641  21.212  0.00  0.00    +0.000 C 
ATOM     18  C   UNL     1       3.727   4.289  19.656  0.00  0.00    +0.000 C 
ATOM     19  C   UNL     1       1.829   4.000  18.040  0.00  0.00    +0.000 C 
ENDBRANCH   6  10
BRANCH   1  26
ATOM     20  C   UNL     1      -1.197  10.490  23.208  0.00  0.00    +0.000 C 
ATOM     21  C   UNL     1      -0.433  11.432  22.353  0.00  0.00    +0.000 A 
ATOM     22  N   UNL     1      -0.620  12.749  22.486  0.00  0.00    +0.000 NA
ATOM     23  O   UNL     1       0.225  13.340  21.580  0.00  0.00    +0.000 OA
ATOM     24  C   UNL     1       0.927  12.386  20.904  0.00  0.00    +0.000 A 
ATOM     25  C   UNL     1       1.864  12.930  19.903  0.00  0.00    +0.000 C 
ATOM     26  C   UNL     1       0.547  11.134  21.355  0.00  0.00    +0.000 A 
ENDBRANCH   1  26
TORSDOF 2
ENDMDL
MODEL 5
REMARK VINA RESULT:      -8.1      0.093      1.524
REMARK  Name = 
REMARK  4 active torsions:
REMARK  status: ('A' for Active; 'I' for Inactive)
REMARK    1  A    between atoms: C_1  and  C_2
REMARK    2  A    between atoms: C_5  and  C_6
REMARK    3  A    between atoms: C_7  and  C_8
REMARK    4  A    between atoms: C_13  and  C_14
REMARK                            x       y       z     vdW  Elec       q    Type
REMARK                         _______ _______ _______ _____ _____    ______ ____
ROOT
ATOM      1  C   UNL     1       1.058   9.965  18.828  0.00  0.00    +0.000 C 
ATOM      2  O   UNL     1       0.589   9.292  19.741  0.00  0.00    +0.000 OA
ATOM      3  N   UNL     1       2.017   9.531  17.947  0.00  0.00    +0.000 N 
ATOM      4  C   UNL     1       2.527   8.263  18.012  0.00  0.00    +0.000 A 
ATOM      5  N   UNL     1       2.077   7.211  18.642  0.00  0.00    +0.000 NA
ATOM      6  C   UNL     1       2.941   6.137  18.465  0.00  0.00    +0.000 A 
ATOM      7  C   UNL     1       4.064   6.447  17.710  0.00  0.00    +0.000 A 
ATOM      8  S   UNL     1       3.970   8.058  17.130  0.00  0.00    +0.000 S 
ATOM      9  H   UNL     1       2.485  10.157  17.319  0.00  0.00    +0.000 HD
ENDROOT
BRANCH   6  10
ATOM     10  C   UNL     1       2.561   4.776  19.031  0.00  0.00    +0.000 C 
ATOM     11  C   UNL     1       3.853   4.007  19.427  0.00  0.00    +0.000 C 
ATOM     12  C   UNL     1       3.516   2.629  20.022  0.00  0.00    +0.000 C 
ATOM     13  C   UNL     1       2.636   2.817  21.267  0.00  0.00    +0.000 C 
ATOM     14  C   UNL     1       1.328   3.528  20.885  0.00  0.00    +0.000 C 
ATOM     15  C   UNL     1       0.576   2.697  19.835  0.00  0.00    +0.000 C 
ATOM     16  C   UNL     1       1.452   2.519  18.584  0.00  0.00    +0.000 C 
ATOM     17  C   UNL     1       2.752   1.799  18.981  0.00  0.00    +0.000 C 
ATOM     18  C   UNL     1       1.793   3.903  17.996  0.00  0.00    +0.000 C 
ATOM     19  C   UNL     1       1.662   4.907  20.293  0.00  0.00    +0.000 C 
ENDBRANCH   6  10
BRANCH   1  26
ATOM     20  C   UNL     1      -1.965  10.991  18.584  0.00  0.00    +0.000 C 
ATOM     21  C   UNL     1      -0.722  11.800  18.555  0.00  0.00    +0.000 A 
ATOM     22  N   UNL     1      -0.798  13.128  18.422  0.00  0.00    +0.000 NA
ATOM     23  O   UNL     1       0.498  13.581  18.442  0.00  0.00    +0.000 OA
ATOM     24  C   UNL     1       1.357  12.532  18.593  0.00  0.00    +0.000 A 
ATOM     25  C   UNL     1       2.779  12.924  18.625  0.00  0.00    +0.000 C 
ATOM     26  C   UNL     1       0.633  11.356  18.670  0.00  0.00    +0.000 A 
ENDBRANCH   1  26
TORSDOF 2
ENDMDL
MODEL 6
REMARK VINA RESULT:      -8.1      0.134      1.551
REMARK  Name = 
REMARK  4 active torsions:
REMARK  status: ('A' for Active; 'I' for Inactive)
REMARK    1  A    between atoms: C_1  and  C_2
REMARK    2  A    between atoms: C_5  and  C_6
REMARK    3  A    between atoms: C_7  and  C_8
REMARK    4  A    between atoms: C_13  and  C_14
REMARK                            x       y       z     vdW  Elec       q    Type
REMARK                         _______ _______ _______ _____ _____    ______ ____
ROOT
ATOM      1  C   UNL     1       1.007   9.922  18.842  0.00  0.00    +0.000 C 
ATOM      2  O   UNL     1       0.558   9.241  19.759  0.00  0.00    +0.000 OA
ATOM      3  N   UNL     1       1.971   9.507  17.957  0.00  0.00    +0.000 N 
ATOM      4  C   UNL     1       2.511   8.252  18.024  0.00  0.00    +0.000 A 
ATOM      5  N   UNL     1       2.088   7.191  18.658  0.00  0.00    +0.000 NA
ATOM      6  C   UNL     1       2.976   6.137  18.480  0.00  0.00    +0.000 A 
ATOM      7  C   UNL     1       4.087   6.471  17.720  0.00  0.00    +0.000 A 
ATOM      8  S   UNL     1       3.954   8.077  17.135  0.00  0.00    +0.000 S 
ATOM      9  H   UNL     1       2.422  10.142  17.326  0.00  0.00    +0.000 HD
ENDROOT
BRANCH   6  10
ATOM     10  C   UNL     1       2.630   4.769  19.052  0.00  0.00    +0.000 C 
ATOM     11  C   UNL     1       1.901   4.953  20.413  0.00  0.00    +0.000 C 
ATOM     12  C   UNL     1       1.515   3.594  21.021  0.00  0.00    +0.000 C 
ATOM     13  C   UNL     1       0.591   2.847  20.047  0.00  0.00    +0.000 C 
ATOM     14  C   UNL     1       1.315   2.608  18.713  0.00  0.00    +0.000 C 
ATOM     15  C   UNL     1       2.590   1.786  18.957  0.00  0.00    +0.000 C 
ATOM     16  C   UNL     1       3.520   2.539  19.922  0.00  0.00    +0.000 C 
ATOM     17  C   UNL     1       2.785   2.762  21.254  0.00  0.00    +0.000 C 
ATOM     18  C   UNL     1       3.897   3.904  19.310  0.00  0.00    +0.000 C 
ATOM     19  C   UNL     1       1.699   3.965  18.101  0.00  0.00    +0.000 C 
ENDBRANCH   6  10
BRANCH   1  26
ATOM     20  C   UNL     1      -1.987  10.846  18.182  0.00  0.00    +0.000 C 
ATOM     21  C   UNL     1      -0.790  11.701  18.381  0.00  0.00    +0.000 A 
ATOM     22  N   UNL     1      -0.904  13.031  18.296  0.00  0.00    +0.000 NA
ATOM     23  O   UNL     1       0.352  13.530  18.535  0.00  0.00    +0.000 OA
ATOM     24  C   UNL     1       1.224  12.507  18.770  0.00  0.00    +0.000 A 
ATOM     25  C   UNL     1       2.606  12.949  19.036  0.00  0.00    +0.000 C 
ATOM     26  C   UNL     1       0.549  11.303  18.682  0.00  0.00    +0.000 A 
ENDBRANCH   1  26
TORSDOF 2
ENDMDL
MODEL 7
REMARK VINA RESULT:      -8.0      2.001      2.539
REMARK  Name = 
REMARK  4 active torsions:
REMARK  status: ('A' for Active; 'I' for Inactive)
REMARK    1  A    between atoms: C_1  and  C_2
REMARK    2  A    between atoms: C_5  and  C_6
REMARK    3  A    between atoms: C_7  and  C_8
REMARK    4  A    between atoms: C_13  and  C_14
REMARK                            x       y       z     vdW  Elec       q    Type
REMARK                         _______ _______ _______ _____ _____    ______ ____
ROOT
ATOM      1  C   UNL     1       0.973   9.765  20.955  0.00  0.00    +0.000 C 
ATOM      2  O   UNL     1       0.981   8.870  21.795  0.00  0.00    +0.000 OA
ATOM      3  N   UNL     1       1.388   9.623  19.655  0.00  0.00    +0.000 N 
ATOM      4  C   UNL     1       1.842   8.425  19.176  0.00  0.00    +0.000 A 
ATOM      5  N   UNL     1       1.725   7.224  19.676  0.00  0.00    +0.000 NA
ATOM      6  C   UNL     1       2.379   6.299  18.870  0.00  0.00    +0.000 A 
ATOM      7  C   UNL     1       3.013   6.869  17.776  0.00  0.00    +0.000 A 
ATOM      8  S   UNL     1       2.687   8.551  17.701  0.00  0.00    +0.000 S 
ATOM      9  H   UNL     1       1.514  10.410  19.047  0.00  0.00    +0.000 HD
ENDROOT
BRANCH   6  10
ATOM     10  C   UNL     1       2.287   4.819  19.212  0.00  0.00    +0.000 C 
ATOM     11  C   UNL     1       3.693   4.300  19.624  0.00  0.00    +0.000 C 
ATOM     12  C   UNL     1       3.645   2.809  19.997  0.00  0.00    +0.000 C 
ATOM     13  C   UNL     1       2.668   2.610  21.166  0.00  0.00    +0.000 C 
ATOM     14  C   UNL     1       1.259   3.067  20.757  0.00  0.00    +0.000 C 
ATOM     15  C   UNL     1       0.786   2.260  19.539  0.00  0.00    +0.000 C 
ATOM     16  C   UNL     1       1.757   2.469  18.366  0.00  0.00    +0.000 C 
ATOM     17  C   UNL     1       3.159   1.998  18.786  0.00  0.00    +0.000 C 
ATOM     18  C   UNL     1       1.807   3.966  18.002  0.00  0.00    +0.000 C 
ATOM     19  C   UNL     1       1.304   4.559  20.388  0.00  0.00    +0.000 C 
ENDBRANCH   6  10
BRANCH   1  26
ATOM     20  C   UNL     1      -1.181  10.482  23.213  0.00  0.00    +0.000 C 
ATOM     21  C   UNL     1      -0.417  11.417  22.351  0.00  0.00    +0.000 A 
ATOM     22  N   UNL     1      -0.593  12.736  22.484  0.00  0.00    +0.000 NA
ATOM     23  O   UNL     1       0.248  13.320  21.571  0.00  0.00    +0.000 OA
ATOM     24  C   UNL     1       0.938  12.359  20.889  0.00  0.00    +0.000 A 
ATOM     25  C   UNL     1       1.870  12.895  19.881  0.00  0.00    +0.000 C 
ATOM     26  C   UNL     1       0.552  11.111  21.345  0.00  0.00    +0.000 A 
ENDBRANCH   1  26
TORSDOF 2
ENDMDL
MODEL 8
REMARK VINA RESULT:      -8.0      2.117      2.543
REMARK  Name = 
REMARK  4 active torsions:
REMARK  status: ('A' for Active; 'I' for Inactive)
REMARK    1  A    between atoms: C_1  and  C_2
REMARK    2  A    between atoms: C_5  and  C_6
REMARK    3  A    between atoms: C_7  and  C_8
REMARK    4  A    between atoms: C_13  and  C_14
REMARK                            x       y       z     vdW  Elec       q    Type
REMARK                         _______ _______ _______ _____ _____    ______ ____
ROOT
ATOM      1  C   UNL     1       0.776  10.115  21.121  0.00  0.00    +0.000 C 
ATOM      2  O   UNL     1       0.871   9.223  21.960  0.00  0.00    +0.000 OA
ATOM      3  N   UNL     1       1.131   9.990  19.801  0.00  0.00    +0.000 N 
ATOM      4  C   UNL     1       1.618   8.814  19.300  0.00  0.00    +0.000 A 
ATOM      5  N   UNL     1       1.585   7.610  19.806  0.00  0.00    +0.000 NA
ATOM      6  C   UNL     1       2.241   6.716  18.968  0.00  0.00    +0.000 A 
ATOM      7  C   UNL     1       2.790   7.313  17.842  0.00  0.00    +0.000 A 
ATOM      8  S   UNL     1       2.379   8.976  17.784  0.00  0.00    +0.000 S 
ATOM      9  H   UNL     1       1.187  10.780  19.188  0.00  0.00    +0.000 HD
ENDROOT
BRANCH   6  10
ATOM     10  C   UNL     1       2.238   5.233  19.314  0.00  0.00    +0.000 C 
ATOM     11  C   UNL     1       1.748   4.421  18.083  0.00  0.00    +0.000 C 
ATOM     12  C   UNL     1       1.746   2.912  18.382  0.00  0.00    +0.000 C 
ATOM     13  C   UNL     1       3.169   2.466  18.749  0.00  0.00    +0.000 C 
ATOM     14  C   UNL     1       3.651   3.221  19.998  0.00  0.00    +0.000 C 
ATOM     15  C   UNL     1       2.699   2.942  21.170  0.00  0.00    +0.000 C 
ATOM     16  C   UNL     1       1.276   3.399  20.807  0.00  0.00    +0.000 C 
ATOM     17  C   UNL     1       0.805   2.629  19.562  0.00  0.00    +0.000 C 
ATOM     18  C   UNL     1       1.286   4.910  20.501  0.00  0.00    +0.000 C 
ATOM     19  C   UNL     1       3.658   4.729  19.701  0.00  0.00    +0.000 C 
ENDBRANCH   6  10
BRANCH   1  26
ATOM     20  C   UNL     1       1.971  12.917  20.135  0.00  0.00    +0.000 C 
ATOM     21  C   UNL     1       0.858  12.684  21.088  0.00  0.00    +0.000 A 
ATOM     22  N   UNL     1       0.225  13.727  21.636  0.00  0.00    +0.000 NA
ATOM     23  O   UNL     1      -0.743  13.192  22.449  0.00  0.00    +0.000 OA
ATOM     24  C   UNL     1      -0.702  11.829  22.390  0.00  0.00    +0.000 A 
ATOM     25  C   UNL     1      -1.710  11.164  23.236  0.00  0.00    +0.000 C 
ATOM     26  C   UNL     1       0.310  11.440  21.532  0.00  0.00    +0.000 A 
ENDBRANCH   1  26
TORSDOF 2
ENDMDL
MODEL 9
REMARK VINA RESULT:      -8.0      2.116      2.926
REMARK  Name = 
REMARK  4 active torsions:
REMARK  status: ('A' for Active; 'I' for Inactive)
REMARK    1  A    between atoms: C_1  and  C_2
REMARK    2  A    between atoms: C_5  and  C_6
REMARK    3  A    between atoms: C_7  and  C_8
REMARK    4  A    between atoms: C_13  and  C_14
REMARK                            x       y       z     vdW  Elec       q    Type
REMARK                         _______ _______ _______ _____ _____    ______ ____
ROOT
ATOM      1  C   UNL     1       0.793  10.144  21.108  0.00  0.00    +0.000 C 
ATOM      2  O   UNL     1       0.896   9.245  21.938  0.00  0.00    +0.000 OA
ATOM      3  N   UNL     1       1.139  10.032  19.785  0.00  0.00    +0.000 N 
ATOM      4  C   UNL     1       1.628   8.863  19.270  0.00  0.00    +0.000 A 
ATOM      5  N   UNL     1       1.603   7.654  19.765  0.00  0.00    +0.000 NA
ATOM      6  C   UNL     1       2.258   6.770  18.916  0.00  0.00    +0.000 A 
ATOM      7  C   UNL     1       2.797   7.380  17.792  0.00  0.00    +0.000 A 
ATOM      8  S   UNL     1       2.379   9.042  17.751  0.00  0.00    +0.000 S 
ATOM      9  H   UNL     1       1.188  10.829  19.178  0.00  0.00    +0.000 HD
ENDROOT
BRANCH   6  10
ATOM     10  C   UNL     1       2.264   5.285  19.249  0.00  0.00    +0.000 C 
ATOM     11  C   UNL     1       1.337   5.031  20.471  0.00  0.00    +0.000 C 
ATOM     12  C   UNL     1       1.297   3.537  20.833  0.00  0.00    +0.000 C 
ATOM     13  C   UNL     1       0.779   2.736  19.628  0.00  0.00    +0.000 C 
ATOM     14  C   UNL     1       1.715   2.933  18.425  0.00  0.00    +0.000 C 
ATOM     15  C   UNL     1       3.132   2.467  18.791  0.00  0.00    +0.000 C 
ATOM     16  C   UNL     1       3.655   3.276  19.989  0.00  0.00    +0.000 C 
ATOM     17  C   UNL     1       2.714   3.062  21.186  0.00  0.00    +0.000 C 
ATOM     18  C   UNL     1       3.685   4.773  19.622  0.00  0.00    +0.000 C 
ATOM     19  C   UNL     1       1.753   4.425  18.058  0.00  0.00    +0.000 C 
ENDBRANCH   6  10
BRANCH   1  26
ATOM     20  C   UNL     1       2.006  12.959  20.183  0.00  0.00    +0.000 C 
ATOM     21  C   UNL     1       0.880  12.714  21.118  0.00  0.00    +0.000 A 
ATOM     22  N   UNL     1       0.242  13.749  21.673  0.00  0.00    +0.000 NA
ATOM     23  O   UNL     1      -0.739  13.203  22.464  0.00  0.00    +0.000 OA
ATOM     24  C   UNL     1      -0.700  11.841  22.384  0.00  0.00    +0.000 A 
ATOM     25  C   UNL     1      -1.720  11.165  23.206  0.00  0.00    +0.000 C 
ATOM     26  C   UNL     1       0.324  11.464  21.533  0.00  0.00    +0.000 A 
ENDBRANCH   1  26
TORSDOF 2
ENDMDL
