MODEL 1
REMARK VINA RESULT:      -5.4      0.000      0.000
REMARK  Name = 
REMARK  5 active torsions:
REMARK  status: ('A' for Active; 'I' for Inactive)
REMARK    1  A    between atoms: C_1  and  O_2
REMARK    2  A    between atoms: O_2  and  C_3
REMARK    3  A    between atoms: C_3  and  C_5
REMARK    4  A    between atoms: C_5  and  C_6
REMARK    5  A    between atoms: C_6  and  N_7
REMARK                            x       y       z     vdW  Elec       q    Type
REMARK                         _______ _______ _______ _____ _____    ______ ____
ROOT
ATOM      1  N   UNL     1       4.097   4.804  18.132  0.00  0.00    +0.000 N 
ATOM      2  S   UNL     1       2.413   4.736  17.915  0.00  0.00    +0.000 S 
ATOM      3  C   UNL     1       2.285   3.664  19.264  0.00  0.00    +0.000 A 
ATOM      4 CL   UNL     1       0.773   3.072  19.793  0.00  0.00    +0.000 Cl
ATOM      5  C   UNL     1       3.443   3.344  19.841  0.00  0.00    +0.000 A 
ATOM      6  C   UNL     1       4.569   4.007  19.156  0.00  0.00    +0.000 A 
ATOM      7  O   UNL     1       5.732   3.834  19.483  0.00  0.00    +0.000 OA
ENDROOT
BRANCH   1   8
ATOM      8  C   UNL     1       4.947   5.571  17.243  0.00  0.00    +0.000 C 
BRANCH   8   9
ATOM      9  C   UNL     1       5.493   4.730  16.096  0.00  0.00    +0.000 C 
BRANCH   9  10
ATOM     10  C   UNL     1       6.996   4.808  16.074  0.00  0.00    +0.000 C 
ATOM     11  O   UNL     1       7.728   4.549  17.019  0.00  0.00    +0.000 OA
BRANCH  10  13
ATOM     12  C   UNL     1       6.788   4.552  13.760  0.00  0.00    +0.000 C 
ATOM     13  O   UNL     1       7.421   5.224  14.849  0.00  0.00    +0.000 OA
ENDBRANCH  10  13
ENDBRANCH   9  10
ENDBRANCH   8   9
ENDBRANCH   1   8
TORSDOF 4
ENDMDL
MODEL 2
REMARK VINA RESULT:      -5.3      1.225      1.606
REMARK  Name = 
REMARK  5 active torsions:
REMARK  status: ('A' for Active; 'I' for Inactive)
REMARK    1  A    between atoms: C_1  and  O_2
REMARK    2  A    between atoms: O_2  and  C_3
REMARK    3  A    between atoms: C_3  and  C_5
REMARK    4  A    between atoms: C_5  and  C_6
REMARK    5  A    between atoms: C_6  and  N_7
REMARK                            x       y       z     vdW  Elec       q    Type
REMARK                         _______ _______ _______ _____ _____    ______ ____
ROOT
ATOM      1  N   UNL     1       3.890   4.624  18.187  0.00  0.00    +0.000 N 
ATOM      2  S   UNL     1       2.265   4.494  17.710  0.00  0.00    +0.000 S 
ATOM      3  C   UNL     1       2.088   3.090  18.700  0.00  0.00    +0.000 A 
ATOM      4 CL   UNL     1       0.597   2.268  18.824  0.00  0.00    +0.000 Cl
ATOM      5  C   UNL     1       3.192   2.710  19.342  0.00  0.00    +0.000 A 
ATOM      6  C   UNL     1       4.315   3.615  19.029  0.00  0.00    +0.000 A 
ATOM      7  O   UNL     1       5.440   3.445  19.472  0.00  0.00    +0.000 OA
ENDROOT
BRANCH   1   8
ATOM      8  C   UNL     1       4.755   5.664  17.666  0.00  0.00    +0.000 C 
BRANCH   8   9
ATOM      9  C   UNL     1       5.589   5.184  16.484  0.00  0.00    +0.000 C 
BRANCH   9  10
ATOM     10  C   UNL     1       7.052   5.371  16.780  0.00  0.00    +0.000 C 
ATOM     11  O   UNL     1       7.787   4.523  17.265  0.00  0.00    +0.000 OA
BRANCH  10  13
ATOM     12  C   UNL     1       7.667   7.487  17.562  0.00  0.00    +0.000 C 
ATOM     13  O   UNL     1       7.436   6.634  16.440  0.00  0.00    +0.000 OA
ENDBRANCH  10  13
ENDBRANCH   9  10
ENDBRANCH   8   9
ENDBRANCH   1   8
TORSDOF 4
ENDMDL
MODEL 3
REMARK VINA RESULT:      -5.3      2.239      2.600
REMARK  Name = 
REMARK  5 active torsions:
REMARK  status: ('A' for Active; 'I' for Inactive)
REMARK    1  A    between atoms: C_1  and  O_2
REMARK    2  A    between atoms: O_2  and  C_3
REMARK    3  A    between atoms: C_3  and  C_5
REMARK    4  A    between atoms: C_5  and  C_6
REMARK    5  A    between atoms: C_6  and  N_7
REMARK                            x       y       z     vdW  Elec       q    Type
REMARK                         _______ _______ _______ _____ _____    ______ ____
ROOT
ATOM      1  N   UNL     1       3.059   3.542  18.132  0.00  0.00    +0.000 N 
ATOM      2  S   UNL     1       3.658   2.997  19.626  0.00  0.00    +0.000 S 
ATOM      3  C   UNL     1       2.054   2.995  20.266  0.00  0.00    +0.000 A 
ATOM      4 CL   UNL     1       1.734   2.502  21.869  0.00  0.00    +0.000 Cl
ATOM      5  C   UNL     1       1.109   3.404  19.420  0.00  0.00    +0.000 A 
ATOM      6  C   UNL     1       1.697   3.767  18.116  0.00  0.00    +0.000 A 
ATOM      7  O   UNL     1       1.030   4.207  17.193  0.00  0.00    +0.000 OA
ENDROOT
BRANCH   1   8
ATOM      8  C   UNL     1       3.941   3.822  17.016  0.00  0.00    +0.000 C 
BRANCH   8   9
ATOM      9  C   UNL     1       4.647   5.165  17.160  0.00  0.00    +0.000 C 
BRANCH   9  10
ATOM     10  C   UNL     1       5.179   5.610  15.825  0.00  0.00    +0.000 C 
ATOM     11  O   UNL     1       5.295   6.773  15.466  0.00  0.00    +0.000 OA
BRANCH  10  13
ATOM     12  C   UNL     1       6.774   4.620  14.432  0.00  0.00    +0.000 C 
ATOM     13  O   UNL     1       5.499   4.524  15.067  0.00  0.00    +0.000 OA
ENDBRANCH  10  13
ENDBRANCH   9  10
ENDBRANCH   8   9
ENDBRANCH   1   8
TORSDOF 4
ENDMDL
MODEL 4
REMARK VINA RESULT:      -5.3      1.300      1.790
REMARK  Name = 
REMARK  5 active torsions:
REMARK  status: ('A' for Active; 'I' for Inactive)
REMARK    1  A    between atoms: C_1  and  O_2
REMARK    2  A    between atoms: O_2  and  C_3
REMARK    3  A    between atoms: C_3  and  C_5
REMARK    4  A    between atoms: C_5  and  C_6
REMARK    5  A    between atoms: C_6  and  N_7
REMARK                            x       y       z     vdW  Elec       q    Type
REMARK                         _______ _______ _______ _____ _____    ______ ____
ROOT
ATOM      1  N   UNL     1       4.256   3.853  17.584  0.00  0.00    +0.000 N 
ATOM      2  S   UNL     1       2.594   3.525  17.447  0.00  0.00    +0.000 S 
ATOM      3  C   UNL     1       2.421   3.694  19.157  0.00  0.00    +0.000 A 
ATOM      4 CL   UNL     1       0.904   3.527  19.921  0.00  0.00    +0.000 Cl
ATOM      5  C   UNL     1       3.550   3.958  19.814  0.00  0.00    +0.000 A 
ATOM      6  C   UNL     1       4.691   4.037  18.881  0.00  0.00    +0.000 A 
ATOM      7  O   UNL     1       5.836   4.231  19.258  0.00  0.00    +0.000 OA
ENDROOT
BRANCH   1   8
ATOM      8  C   UNL     1       5.130   3.843  16.428  0.00  0.00    +0.000 C 
BRANCH   8   9
ATOM      9  C   UNL     1       5.187   5.199  15.735  0.00  0.00    +0.000 C 
BRANCH   9  10
ATOM     10  C   UNL     1       6.550   5.810  15.916  0.00  0.00    +0.000 C 
ATOM     11  O   UNL     1       7.588   5.365  15.447  0.00  0.00    +0.000 OA
BRANCH  10  13
ATOM     12  C   UNL     1       7.477   7.018  17.690  0.00  0.00    +0.000 C 
ATOM     13  O   UNL     1       6.459   6.926  16.692  0.00  0.00    +0.000 OA
ENDBRANCH  10  13
ENDBRANCH   9  10
ENDBRANCH   8   9
ENDBRANCH   1   8
TORSDOF 4
ENDMDL
MODEL 5
REMARK VINA RESULT:      -5.3      2.140      2.510
REMARK  Name = 
REMARK  5 active torsions:
REMARK  status: ('A' for Active; 'I' for Inactive)
REMARK    1  A    between atoms: C_1  and  O_2
REMARK    2  A    between atoms: O_2  and  C_3
REMARK    3  A    between atoms: C_3  and  C_5
REMARK    4  A    between atoms: C_5  and  C_6
REMARK    5  A    between atoms: C_6  and  N_7
REMARK                            x       y       z     vdW  Elec       q    Type
REMARK                         _______ _______ _______ _____ _____    ______ ____
ROOT
ATOM      1  N   UNL     1       4.075   3.584  17.882  0.00  0.00    +0.000 N 
ATOM      2  S   UNL     1       4.568   3.530  19.507  0.00  0.00    +0.000 S 
ATOM      3  C   UNL     1       2.988   3.010  19.968  0.00  0.00    +0.000 A 
ATOM      4 CL   UNL     1       2.600   2.669  21.595  0.00  0.00    +0.000 Cl
ATOM      5  C   UNL     1       2.115   2.901  18.966  0.00  0.00    +0.000 A 
ATOM      6  C   UNL     1       2.745   3.269  17.683  0.00  0.00    +0.000 A 
ATOM      7  O   UNL     1       2.130   3.283  16.629  0.00  0.00    +0.000 OA
ENDROOT
BRANCH   1   8
ATOM      8  C   UNL     1       4.972   4.014  16.828  0.00  0.00    +0.000 C 
BRANCH   8   9
ATOM      9  C   UNL     1       5.557   5.396  17.095  0.00  0.00    +0.000 C 
BRANCH   9  10
ATOM     10  C   UNL     1       7.049   5.366  16.908  0.00  0.00    +0.000 C 
ATOM     11  O   UNL     1       7.766   4.399  17.122  0.00  0.00    +0.000 OA
BRANCH  10  13
ATOM     12  C   UNL     1       7.563   7.566  17.510  0.00  0.00    +0.000 C 
ATOM     13  O   UNL     1       7.488   6.582  16.478  0.00  0.00    +0.000 OA
ENDBRANCH  10  13
ENDBRANCH   9  10
ENDBRANCH   8   9
ENDBRANCH   1   8
TORSDOF 4
ENDMDL
MODEL 6
REMARK VINA RESULT:      -5.3      3.520      5.481
REMARK  Name = 
REMARK  5 active torsions:
REMARK  status: ('A' for Active; 'I' for Inactive)
REMARK    1  A    between atoms: C_1  and  O_2
REMARK    2  A    between atoms: O_2  and  C_3
REMARK    3  A    between atoms: C_3  and  C_5
REMARK    4  A    between atoms: C_5  and  C_6
REMARK    5  A    between atoms: C_6  and  N_7
REMARK                            x       y       z     vdW  Elec       q    Type
REMARK                         _______ _______ _______ _____ _____    ______ ____
ROOT
ATOM      1  N   UNL     1       4.342   4.520  17.704  0.00  0.00    +0.000 N 
ATOM      2  S   UNL     1       4.822   5.888  16.817  0.00  0.00    +0.000 S 
ATOM      3  C   UNL     1       6.217   6.048  17.823  0.00  0.00    +0.000 A 
ATOM      4 CL   UNL     1       7.364   7.286  17.566  0.00  0.00    +0.000 Cl
ATOM      5  C   UNL     1       6.317   5.142  18.796  0.00  0.00    +0.000 A 
ATOM      6  C   UNL     1       5.173   4.211  18.762  0.00  0.00    +0.000 A 
ATOM      7  O   UNL     1       5.028   3.318  19.581  0.00  0.00    +0.000 OA
ENDROOT
BRANCH   1   8
ATOM      8  C   UNL     1       3.111   3.815  17.406  0.00  0.00    +0.000 C 
BRANCH   8   9
ATOM      9  C   UNL     1       1.899   4.462  18.066  0.00  0.00    +0.000 C 
BRANCH   9  10
ATOM     10  C   UNL     1       1.223   3.473  18.976  0.00  0.00    +0.000 C 
ATOM     11  O   UNL     1       0.765   2.394  18.627  0.00  0.00    +0.000 OA
BRANCH  10  13
ATOM     12  C   UNL     1       1.509   3.001  21.248  0.00  0.00    +0.000 C 
ATOM     13  O   UNL     1       1.181   3.965  20.246  0.00  0.00    +0.000 OA
ENDBRANCH  10  13
ENDBRANCH   9  10
ENDBRANCH   8   9
ENDBRANCH   1   8
TORSDOF 4
ENDMDL
MODEL 7
REMARK VINA RESULT:      -5.2      1.259      1.305
REMARK  Name = 
REMARK  5 active torsions:
REMARK  status: ('A' for Active; 'I' for Inactive)
REMARK    1  A    between atoms: C_1  and  O_2
REMARK    2  A    between atoms: O_2  and  C_3
REMARK    3  A    between atoms: C_3  and  C_5
REMARK    4  A    between atoms: C_5  and  C_6
REMARK    5  A    between atoms: C_6  and  N_7
REMARK                            x       y       z     vdW  Elec       q    Type
REMARK                         _______ _______ _______ _____ _____    ______ ____
ROOT
ATOM      1  N   UNL     1       4.368   5.202  18.149  0.00  0.00    +0.000 N 
ATOM      2  S   UNL     1       2.954   4.379  17.691  0.00  0.00    +0.000 S 
ATOM      3  C   UNL     1       3.267   3.177  18.891  0.00  0.00    +0.000 A 
ATOM      4 CL   UNL     1       2.204   1.864  19.138  0.00  0.00    +0.000 Cl
ATOM      5  C   UNL     1       4.387   3.358  19.591  0.00  0.00    +0.000 A 
ATOM      6  C   UNL     1       5.092   4.575  19.142  0.00  0.00    +0.000 A 
ATOM      7  O   UNL     1       6.163   4.924  19.612  0.00  0.00    +0.000 OA
ENDROOT
BRANCH   1   8
ATOM      8  C   UNL     1       4.797   6.410  17.472  0.00  0.00    +0.000 C 
BRANCH   8   9
ATOM      9  C   UNL     1       5.464   6.118  16.134  0.00  0.00    +0.000 C 
BRANCH   9  10
ATOM     10  C   UNL     1       6.947   5.950  16.326  0.00  0.00    +0.000 C 
ATOM     11  O   UNL     1       7.706   6.818  16.735  0.00  0.00    +0.000 OA
BRANCH  10  13
ATOM     12  C   UNL     1       6.368   4.020  15.141  0.00  0.00    +0.000 C 
ATOM     13  O   UNL     1       7.323   4.693  15.962  0.00  0.00    +0.000 OA
ENDBRANCH  10  13
ENDBRANCH   9  10
ENDBRANCH   8   9
ENDBRANCH   1   8
TORSDOF 4
ENDMDL
MODEL 8
REMARK VINA RESULT:      -5.2      1.907      2.057
REMARK  Name = 
REMARK  5 active torsions:
REMARK  status: ('A' for Active; 'I' for Inactive)
REMARK    1  A    between atoms: C_1  and  O_2
REMARK    2  A    between atoms: O_2  and  C_3
REMARK    3  A    between atoms: C_3  and  C_5
REMARK    4  A    between atoms: C_5  and  C_6
REMARK    5  A    between atoms: C_6  and  N_7
REMARK                            x       y       z     vdW  Elec       q    Type
REMARK                         _______ _______ _______ _____ _____    ______ ____
ROOT
ATOM      1  N   UNL     1       4.390   4.795  18.510  0.00  0.00    +0.000 N 
ATOM      2  S   UNL     1       3.883   3.243  18.982  0.00  0.00    +0.000 S 
ATOM      3  C   UNL     1       2.272   3.621  18.488  0.00  0.00    +0.000 A 
ATOM      4 CL   UNL     1       1.010   2.478  18.612  0.00  0.00    +0.000 Cl
ATOM      5  C   UNL     1       2.102   4.856  18.015  0.00  0.00    +0.000 A 
ATOM      6  C   UNL     1       3.374   5.603  18.039  0.00  0.00    +0.000 A 
ATOM      7  O   UNL     1       3.458   6.770  17.689  0.00  0.00    +0.000 OA
ENDROOT
BRANCH   1   8
ATOM      8  C   UNL     1       5.760   5.233  18.685  0.00  0.00    +0.000 C 
BRANCH   8   9
ATOM      9  C   UNL     1       6.661   4.787  17.540  0.00  0.00    +0.000 C 
BRANCH   9  10
ATOM     10  C   UNL     1       6.959   5.954  16.638  0.00  0.00    +0.000 C 
ATOM     11  O   UNL     1       6.694   7.121  16.887  0.00  0.00    +0.000 OA
BRANCH  10  13
ATOM     12  C   UNL     1       6.779   4.563  14.767  0.00  0.00    +0.000 C 
ATOM     13  O   UNL     1       7.556   5.516  15.494  0.00  0.00    +0.000 OA
ENDBRANCH  10  13
ENDBRANCH   9  10
ENDBRANCH   8   9
ENDBRANCH   1   8
TORSDOF 4
ENDMDL
MODEL 9
REMARK VINA RESULT:      -5.2      2.150      2.531
REMARK  Name = 
REMARK  5 active torsions:
REMARK  status: ('A' for Active; 'I' for Inactive)
REMARK    1  A    between atoms: C_1  and  O_2
REMARK    2  A    between atoms: O_2  and  C_3
REMARK    3  A    between atoms: C_3  and  C_5
REMARK    4  A    between atoms: C_5  and  C_6
REMARK    5  A    between atoms: C_6  and  N_7
REMARK                            x       y       z     vdW  Elec       q    Type
REMARK                         _______ _______ _______ _____ _____    ______ ____
ROOT
ATOM      1  N   UNL     1       3.880   4.293  17.816  0.00  0.00    +0.000 N 
ATOM      2  S   UNL     1       4.072   5.456  19.040  0.00  0.00    +0.000 S 
ATOM      3  C   UNL     1       2.397   5.312  19.437  0.00  0.00    +0.000 A 
ATOM      4 CL   UNL     1       1.700   6.213  20.708  0.00  0.00    +0.000 Cl
ATOM      5  C   UNL     1       1.710   4.456  18.680  0.00  0.00    +0.000 A 
ATOM      6  C   UNL     1       2.586   3.837  17.666  0.00  0.00    +0.000 A 
ATOM      7  O   UNL     1       2.171   3.047  16.833  0.00  0.00    +0.000 OA
ENDROOT
BRANCH   1   8
ATOM      8  C   UNL     1       4.983   3.902  16.961  0.00  0.00    +0.000 C 
BRANCH   8   9
ATOM      9  C   UNL     1       5.270   4.935  15.878  0.00  0.00    +0.000 C 
BRANCH   9  10
ATOM     10  C   UNL     1       6.669   5.465  16.032  0.00  0.00    +0.000 C 
ATOM     11  O   UNL     1       7.691   4.825  15.824  0.00  0.00    +0.000 OA
BRANCH  10  13
ATOM     12  C   UNL     1       7.422   7.010  17.617  0.00  0.00    +0.000 C 
ATOM     13  O   UNL     1       6.632   6.760  16.454  0.00  0.00    +0.000 OA
ENDBRANCH  10  13
ENDBRANCH   9  10
ENDBRANCH   8   9
ENDBRANCH   1   8
TORSDOF 4
ENDMDL
