MODEL 1
REMARK VINA RESULT:      -9.3      0.000      0.000
REMARK  Name = 
REMARK  4 active torsions:
REMARK  status: ('A' for Active; 'I' for Inactive)
REMARK    1  A    between atoms: C_1  and  N_2
REMARK    2  A    between atoms: N_9  and  C_10
REMARK    3  A    between atoms: C_10  and  C_11
REMARK    4  A    between atoms: N_25  and  C_26
REMARK                            x       y       z     vdW  Elec       q    Type
REMARK                         _______ _______ _______ _____ _____    ______ ____
ROOT
ATOM      1  C   UNL     1       1.851  16.576  22.556  0.00  0.00    +0.000 C 
ATOM      2  N   UNL     1       1.344  15.220  22.362  0.00  0.00    +0.000 NA
ATOM      3  C   UNL     1       2.208  14.464  21.426  0.00  0.00    +0.000 C 
ATOM      4  C   UNL     1       1.692  13.027  21.163  0.00  0.00    +0.000 C 
ATOM      5  N   UNL     1       0.303  13.084  20.702  0.00  0.00    +0.000 N 
ATOM      6  C   UNL     1      -0.182  12.115  19.853  0.00  0.00    +0.000 A 
ATOM      7  N   UNL     1       0.712  11.280  19.266  0.00  0.00    +0.000 NA
ATOM      8  C   UNL     1       0.320  10.385  18.325  0.00  0.00    +0.000 A 
ATOM      9  N   UNL     1       1.242   9.569  17.653  0.00  0.00    +0.000 N 
ATOM     10  C   UNL     1      -1.043  10.349  17.994  0.00  0.00    +0.000 A 
ATOM     11  N   UNL     1      -1.729   9.563  17.105  0.00  0.00    +0.000 NA
ATOM     12  C   UNL     1      -2.970   9.985  17.189  0.00  0.00    +0.000 A 
ATOM     13  N   UNL     1      -3.141  11.032  18.083  0.00  0.00    +0.000 N 
ATOM     14  C   UNL     1      -1.879  11.240  18.639  0.00  0.00    +0.000 A 
ATOM     15  N   UNL     1      -1.500  12.124  19.578  0.00  0.00    +0.000 NA
ATOM     16  C   UNL     1      -0.603  13.826  21.583  0.00  0.00    +0.000 C 
ATOM     17  C   UNL     1      -0.036  15.247  21.825  0.00  0.00    +0.000 C 
ATOM     18  H   UNL     1       0.731   8.805  17.209  0.00  0.00    +0.000 HD
ENDROOT
BRANCH  13  19
ATOM     19  C   UNL     1      -4.360  11.740  18.318  0.00  0.00    +0.000 A 
ATOM     20  C   UNL     1      -5.253  11.998  17.267  0.00  0.00    +0.000 A 
ATOM     21  C   UNL     1      -6.407  12.725  17.532  0.00  0.00    +0.000 A 
ATOM     22  N   UNL     1      -6.727  13.204  18.747  0.00  0.00    +0.000 NA
ATOM     23  C   UNL     1      -5.860  12.942  19.742  0.00  0.00    +0.000 A 
ATOM     24  F   UNL     1      -6.158  13.419  20.960  0.00  0.00    +0.000 F 
ATOM     25  C   UNL     1      -4.685  12.225  19.586  0.00  0.00    +0.000 A 
ENDBRANCH  13  19
BRANCH   9  26
ATOM     26  C   UNL     1       2.369   9.116  18.456  0.00  0.00    +0.000 C 
BRANCH  26  27
ATOM     27  C   UNL     1       2.301   7.646  18.768  0.00  0.00    +0.000 A 
ATOM     28  N   UNL     1       2.326   6.637  17.919  0.00  0.00    +0.000 NA
ATOM     29  C   UNL     1       2.215   5.492  18.683  0.00  0.00    +0.000 A 
ATOM     30  C   UNL     1       2.168   4.138  18.310  0.00  0.00    +0.000 A 
ATOM     31  F   UNL     1       2.243   3.767  17.024  0.00  0.00    +0.000 F 
ATOM     32  C   UNL     1       2.034   3.173  19.310  0.00  0.00    +0.000 A 
ATOM     33  F   UNL     1       1.976   1.873  18.977  0.00  0.00    +0.000 F 
ATOM     34  C   UNL     1       1.955   3.523  20.655  0.00  0.00    +0.000 A 
ATOM     35  C   UNL     1       2.009   4.865  21.053  0.00  0.00    +0.000 A 
ATOM     36  C   UNL     1       2.136   5.819  20.036  0.00  0.00    +0.000 A 
ATOM     37  N   UNL     1       2.212   7.189  20.061  0.00  0.00    +0.000 N 
ATOM     38  H   UNL     1       2.210   7.780  20.882  0.00  0.00    +0.000 HD
ENDBRANCH  26  27
ENDBRANCH   9  26
TORSDOF 3
ENDMDL
MODEL 2
REMARK VINA RESULT:      -9.2      1.408      1.874
REMARK  Name = 
REMARK  4 active torsions:
REMARK  status: ('A' for Active; 'I' for Inactive)
REMARK    1  A    between atoms: C_1  and  N_2
REMARK    2  A    between atoms: N_9  and  C_10
REMARK    3  A    between atoms: C_10  and  C_11
REMARK    4  A    between atoms: N_25  and  C_26
REMARK                            x       y       z     vdW  Elec       q    Type
REMARK                         _______ _______ _______ _____ _____    ______ ____
ROOT
ATOM      1  C   UNL     1       0.214  16.584  23.047  0.00  0.00    +0.000 C 
ATOM      2  N   UNL     1      -0.103  15.192  22.735  0.00  0.00    +0.000 NA
ATOM      3  C   UNL     1       0.941  14.596  21.870  0.00  0.00    +0.000 C 
ATOM      4  C   UNL     1       0.633  13.127  21.487  0.00  0.00    +0.000 C 
ATOM      5  N   UNL     1      -0.695  13.051  20.874  0.00  0.00    +0.000 N 
ATOM      6  C   UNL     1      -0.965  12.083  19.932  0.00  0.00    +0.000 A 
ATOM      7  N   UNL     1       0.080  11.392  19.414  0.00  0.00    +0.000 NA
ATOM      8  C   UNL     1      -0.097  10.514  18.395  0.00  0.00    +0.000 A 
ATOM      9  N   UNL     1       0.983   9.850  17.796  0.00  0.00    +0.000 N 
ATOM     10  C   UNL     1      -1.403  10.341  17.910  0.00  0.00    +0.000 A 
ATOM     11  N   UNL     1      -1.890   9.534  16.915  0.00  0.00    +0.000 NA
ATOM     12  C   UNL     1      -3.174   9.806  16.877  0.00  0.00    +0.000 A 
ATOM     13  N   UNL     1      -3.565  10.773  17.791  0.00  0.00    +0.000 N 
ATOM     14  C   UNL     1      -2.405  11.091  18.496  0.00  0.00    +0.000 A 
ATOM     15  N   UNL     1      -2.237  11.957  19.510  0.00  0.00    +0.000 NA
ATOM     16  C   UNL     1      -1.773  13.632  21.678  0.00  0.00    +0.000 C 
ATOM     17  C   UNL     1      -1.411  15.092  22.047  0.00  0.00    +0.000 C 
ATOM     18  H   UNL     1       0.619   9.059  17.263  0.00  0.00    +0.000 HD
ENDROOT
BRANCH  13  19
ATOM     19  C   UNL     1      -4.878  11.321  17.918  0.00  0.00    +0.000 A 
ATOM     20  C   UNL     1      -5.756  10.860  18.911  0.00  0.00    +0.000 A 
ATOM     21  C   UNL     1      -7.037  11.392  18.972  0.00  0.00    +0.000 A 
ATOM     22  N   UNL     1      -7.498  12.335  18.130  0.00  0.00    +0.000 NA
ATOM     23  C   UNL     1      -6.639  12.768  17.189  0.00  0.00    +0.000 A 
ATOM     24  F   UNL     1      -7.083  13.701  16.333  0.00  0.00    +0.000 F 
ATOM     25  C   UNL     1      -5.341  12.306  17.043  0.00  0.00    +0.000 A 
ENDBRANCH  13  19
BRANCH   9  26
ATOM     26  C   UNL     1       2.064   9.483  18.701  0.00  0.00    +0.000 C 
BRANCH  26  27
ATOM     27  C   UNL     1       2.265   7.995  18.786  0.00  0.00    +0.000 A 
ATOM     28  N   UNL     1       1.958   7.193  19.788  0.00  0.00    +0.000 NA
ATOM     29  C   UNL     1       2.355   5.929  19.399  0.00  0.00    +0.000 A 
ATOM     30  C   UNL     1       2.291   4.697  20.073  0.00  0.00    +0.000 A 
ATOM     31  F   UNL     1       1.770   4.603  21.305  0.00  0.00    +0.000 F 
ATOM     32  C   UNL     1       2.790   3.559  19.436  0.00  0.00    +0.000 A 
ATOM     33  F   UNL     1       2.749   2.373  20.065  0.00  0.00    +0.000 F 
ATOM     34  C   UNL     1       3.336   3.620  18.157  0.00  0.00    +0.000 A 
ATOM     35  C   UNL     1       3.402   4.834  17.461  0.00  0.00    +0.000 A 
ATOM     36  C   UNL     1       2.905   5.965  18.118  0.00  0.00    +0.000 A 
ATOM     37  N   UNL     1       2.817   7.284  17.747  0.00  0.00    +0.000 N 
ATOM     38  H   UNL     1       3.100   7.683  16.862  0.00  0.00    +0.000 HD
ENDBRANCH  26  27
ENDBRANCH   9  26
TORSDOF 3
ENDMDL
MODEL 3
REMARK VINA RESULT:      -9.1      1.794      2.213
REMARK  Name = 
REMARK  4 active torsions:
REMARK  status: ('A' for Active; 'I' for Inactive)
REMARK    1  A    between atoms: C_1  and  N_2
REMARK    2  A    between atoms: N_9  and  C_10
REMARK    3  A    between atoms: C_10  and  C_11
REMARK    4  A    between atoms: N_25  and  C_26
REMARK                            x       y       z     vdW  Elec       q    Type
REMARK                         _______ _______ _______ _____ _____    ______ ____
ROOT
ATOM      1  C   UNL     1       0.976  18.053  20.060  0.00  0.00    +0.000 C 
ATOM      2  N   UNL     1       0.551  16.690  20.370  0.00  0.00    +0.000 NA
ATOM      3  C   UNL     1       1.396  15.701  19.662  0.00  0.00    +0.000 C 
ATOM      4  C   UNL     1       0.964  14.239  19.937  0.00  0.00    +0.000 C 
ATOM      5  N   UNL     1      -0.455  14.081  19.609  0.00  0.00    +0.000 N 
ATOM      6  C   UNL     1      -0.931  12.864  19.174  0.00  0.00    +0.000 A 
ATOM      7  N   UNL     1      -0.026  11.919  18.818  0.00  0.00    +0.000 NA
ATOM      8  C   UNL     1      -0.420  10.745  18.264  0.00  0.00    +0.000 A 
ATOM      9  N   UNL     1       0.506   9.790  17.819  0.00  0.00    +0.000 N 
ATOM     10  C   UNL     1      -1.798  10.544  18.087  0.00  0.00    +0.000 A 
ATOM     11  N   UNL     1      -2.489   9.478  17.573  0.00  0.00    +0.000 NA
ATOM     12  C   UNL     1      -3.747   9.852  17.624  0.00  0.00    +0.000 A 
ATOM     13  N   UNL     1      -3.926  11.130  18.134  0.00  0.00    +0.000 N 
ATOM     14  C   UNL     1      -2.646  11.564  18.475  0.00  0.00    +0.000 A 
ATOM     15  N   UNL     1      -2.262  12.726  19.031  0.00  0.00    +0.000 NA
ATOM     16  C   UNL     1      -1.345  15.036  20.273  0.00  0.00    +0.000 C 
ATOM     17  C   UNL     1      -0.862  16.479  19.980  0.00  0.00    +0.000 C 
ATOM     18  H   UNL     1       0.019   8.901  17.700  0.00  0.00    +0.000 HD
ENDROOT
BRANCH  13  19
ATOM     19  C   UNL     1      -5.171  11.825  18.230  0.00  0.00    +0.000 A 
ATOM     20  C   UNL     1      -5.914  11.804  19.420  0.00  0.00    +0.000 A 
ATOM     21  C   UNL     1      -7.138  12.459  19.458  0.00  0.00    +0.000 A 
ATOM     22  N   UNL     1      -7.665  13.121  18.412  0.00  0.00    +0.000 NA
ATOM     23  C   UNL     1      -6.935  13.134  17.282  0.00  0.00    +0.000 A 
ATOM     24  F   UNL     1      -7.448  13.782  16.225  0.00  0.00    +0.000 F 
ATOM     25  C   UNL     1      -5.703  12.517  17.140  0.00  0.00    +0.000 A 
ENDBRANCH  13  19
BRANCH   9  26
ATOM     26  C   UNL     1       1.715   9.679  18.622  0.00  0.00    +0.000 C 
BRANCH  26  27
ATOM     27  C   UNL     1       2.228   8.267  18.701  0.00  0.00    +0.000 A 
ATOM     28  N   UNL     1       2.110   7.418  19.704  0.00  0.00    +0.000 NA
ATOM     29  C   UNL     1       2.761   6.267  19.307  0.00  0.00    +0.000 A 
ATOM     30  C   UNL     1       2.968   5.049  19.978  0.00  0.00    +0.000 A 
ATOM     31  F   UNL     1       2.493   4.847  21.215  0.00  0.00    +0.000 F 
ATOM     32  C   UNL     1       3.688   4.043  19.332  0.00  0.00    +0.000 A 
ATOM     33  F   UNL     1       3.907   2.875  19.958  0.00  0.00    +0.000 F 
ATOM     34  C   UNL     1       4.194   4.219  18.047  0.00  0.00    +0.000 A 
ATOM     35  C   UNL     1       3.993   5.419  17.354  0.00  0.00    +0.000 A 
ATOM     36  C   UNL     1       3.275   6.419  18.020  0.00  0.00    +0.000 A 
ATOM     37  N   UNL     1       2.905   7.690  17.654  0.00  0.00    +0.000 N 
ATOM     38  H   UNL     1       3.087   8.140  16.766  0.00  0.00    +0.000 HD
ENDBRANCH  26  27
ENDBRANCH   9  26
TORSDOF 3
ENDMDL
MODEL 4
REMARK VINA RESULT:      -9.0      1.106      1.342
REMARK  Name = 
REMARK  4 active torsions:
REMARK  status: ('A' for Active; 'I' for Inactive)
REMARK    1  A    between atoms: C_1  and  N_2
REMARK    2  A    between atoms: N_9  and  C_10
REMARK    3  A    between atoms: C_10  and  C_11
REMARK    4  A    between atoms: N_25  and  C_26
REMARK                            x       y       z     vdW  Elec       q    Type
REMARK                         _______ _______ _______ _____ _____    ______ ____
ROOT
ATOM      1  C   UNL     1       1.224  17.450  21.654  0.00  0.00    +0.000 C 
ATOM      2  N   UNL     1       0.765  16.063  21.670  0.00  0.00    +0.000 NA
ATOM      3  C   UNL     1       1.647  15.207  20.843  0.00  0.00    +0.000 C 
ATOM      4  C   UNL     1       1.182  13.730  20.803  0.00  0.00    +0.000 C 
ATOM      5  N   UNL     1      -0.213  13.670  20.359  0.00  0.00    +0.000 N 
ATOM      6  C   UNL     1      -0.669  12.569  19.669  0.00  0.00    +0.000 A 
ATOM      7  N   UNL     1       0.249  11.689  19.199  0.00  0.00    +0.000 NA
ATOM      8  C   UNL     1      -0.119  10.651  18.406  0.00  0.00    +0.000 A 
ATOM      9  N   UNL     1       0.826   9.777  17.848  0.00  0.00    +0.000 N 
ATOM     10  C   UNL     1      -1.483  10.518  18.105  0.00  0.00    +0.000 A 
ATOM     11  N   UNL     1      -2.148   9.586  17.351  0.00  0.00    +0.000 NA
ATOM     12  C   UNL     1      -3.403   9.973  17.391  0.00  0.00    +0.000 A 
ATOM     13  N   UNL     1      -3.603  11.134  18.123  0.00  0.00    +0.000 N 
ATOM     14  C   UNL     1      -2.345  11.466  18.624  0.00  0.00    +0.000 A 
ATOM     15  N   UNL     1      -1.989  12.491  19.416  0.00  0.00    +0.000 NA
ATOM     16  C   UNL     1      -1.137  14.502  21.134  0.00  0.00    +0.000 C 
ATOM     17  C   UNL     1      -0.620  15.962  21.155  0.00  0.00    +0.000 C 
ATOM     18  H   UNL     1       0.339   8.938  17.530  0.00  0.00    +0.000 HD
ENDROOT
BRANCH  13  19
ATOM     19  C   UNL     1      -4.845  11.826  18.269  0.00  0.00    +0.000 A 
ATOM     20  C   UNL     1      -5.439  11.976  19.531  0.00  0.00    +0.000 A 
ATOM     21  C   UNL     1      -6.665  12.620  19.622  0.00  0.00    +0.000 A 
ATOM     22  N   UNL     1      -7.331  13.116  18.564  0.00  0.00    +0.000 NA
ATOM     23  C   UNL     1      -6.743  12.967  17.363  0.00  0.00    +0.000 A 
ATOM     24  F   UNL     1      -7.395  13.447  16.293  0.00  0.00    +0.000 F 
ATOM     25  C   UNL     1      -5.522  12.345  17.162  0.00  0.00    +0.000 A 
ENDBRANCH  13  19
BRANCH   9  26
ATOM     26  C   UNL     1       1.976   9.487  18.693  0.00  0.00    +0.000 C 
BRANCH  26  27
ATOM     27  C   UNL     1       2.190   8.012  18.892  0.00  0.00    +0.000 A 
ATOM     28  N   UNL     1       2.595   7.126  18.002  0.00  0.00    +0.000 NA
ATOM     29  C   UNL     1       2.612   5.909  18.655  0.00  0.00    +0.000 A 
ATOM     30  C   UNL     1       2.941   4.623  18.195  0.00  0.00    +0.000 A 
ATOM     31  F   UNL     1       3.327   4.414  16.929  0.00  0.00    +0.000 F 
ATOM     32  C   UNL     1       2.853   3.551  19.086  0.00  0.00    +0.000 A 
ATOM     33  F   UNL     1       3.153   2.312  18.666  0.00  0.00    +0.000 F 
ATOM     34  C   UNL     1       2.457   3.733  20.408  0.00  0.00    +0.000 A 
ATOM     35  C   UNL     1       2.133   5.007  20.893  0.00  0.00    +0.000 A 
ATOM     36  C   UNL     1       2.219   6.067  19.984  0.00  0.00    +0.000 A 
ATOM     37  N   UNL     1       1.977   7.413  20.110  0.00  0.00    +0.000 N 
ATOM     38  H   UNL     1       1.693   7.900  20.950  0.00  0.00    +0.000 HD
ENDBRANCH  26  27
ENDBRANCH   9  26
TORSDOF 3
ENDMDL
MODEL 5
REMARK VINA RESULT:      -8.9      1.624      2.112
REMARK  Name = 
REMARK  4 active torsions:
REMARK  status: ('A' for Active; 'I' for Inactive)
REMARK    1  A    between atoms: C_1  and  N_2
REMARK    2  A    between atoms: N_9  and  C_10
REMARK    3  A    between atoms: C_10  and  C_11
REMARK    4  A    between atoms: N_25  and  C_26
REMARK                            x       y       z     vdW  Elec       q    Type
REMARK                         _______ _______ _______ _____ _____    ______ ____
ROOT
ATOM      1  C   UNL     1       1.455  16.737  22.505  0.00  0.00    +0.000 C 
ATOM      2  N   UNL     1       0.952  15.377  22.334  0.00  0.00    +0.000 NA
ATOM      3  C   UNL     1       1.841  14.594  21.445  0.00  0.00    +0.000 C 
ATOM      4  C   UNL     1       1.331  13.151  21.209  0.00  0.00    +0.000 C 
ATOM      5  N   UNL     1      -0.044  13.196  20.706  0.00  0.00    +0.000 N 
ATOM      6  C   UNL     1      -0.505  12.203  19.870  0.00  0.00    +0.000 A 
ATOM      7  N   UNL     1       0.404  11.352  19.334  0.00  0.00    +0.000 NA
ATOM      8  C   UNL     1       0.038  10.431  18.407  0.00  0.00    +0.000 A 
ATOM      9  N   UNL     1       0.978   9.595  17.785  0.00  0.00    +0.000 N 
ATOM     10  C   UNL     1      -1.315  10.386  18.038  0.00  0.00    +0.000 A 
ATOM     11  N   UNL     1      -1.976   9.575  17.152  0.00  0.00    +0.000 NA
ATOM     12  C   UNL     1      -3.219  10.001  17.188  0.00  0.00    +0.000 A 
ATOM     13  N   UNL     1      -3.413  11.073  18.047  0.00  0.00    +0.000 N 
ATOM     14  C   UNL     1      -2.168  11.295  18.634  0.00  0.00    +0.000 A 
ATOM     15  N   UNL     1      -1.814  12.205  19.557  0.00  0.00    +0.000 NA
ATOM     16  C   UNL     1      -0.974  13.963  21.538  0.00  0.00    +0.000 C 
ATOM     17  C   UNL     1      -0.412  15.390  21.757  0.00  0.00    +0.000 C 
ATOM     18  H   UNL     1       0.479   8.819  17.349  0.00  0.00    +0.000 HD
ENDROOT
BRANCH  13  19
ATOM     19  C   UNL     1      -4.637  11.788  18.226  0.00  0.00    +0.000 A 
ATOM     20  C   UNL     1      -5.144  12.032  19.512  0.00  0.00    +0.000 A 
ATOM     21  C   UNL     1      -6.357  12.696  19.639  0.00  0.00    +0.000 A 
ATOM     22  N   UNL     1      -7.089  13.126  18.595  0.00  0.00    +0.000 NA
ATOM     23  C   UNL     1      -6.583  12.886  17.371  0.00  0.00    +0.000 A 
ATOM     24  F   UNL     1      -7.303  13.299  16.316  0.00  0.00    +0.000 F 
ATOM     25  C   UNL     1      -5.383  12.237  17.134  0.00  0.00    +0.000 A 
ENDBRANCH  13  19
BRANCH   9  26
ATOM     26  C   UNL     1       2.080   9.164  18.634  0.00  0.00    +0.000 C 
BRANCH  26  27
ATOM     27  C   UNL     1       2.677   7.859  18.185  0.00  0.00    +0.000 A 
ATOM     28  N   UNL     1       3.751   7.673  17.442  0.00  0.00    +0.000 NA
ATOM     29  C   UNL     1       3.877   6.307  17.287  0.00  0.00    +0.000 A 
ATOM     30  C   UNL     1       4.822   5.543  16.580  0.00  0.00    +0.000 A 
ATOM     31  F   UNL     1       5.826   6.126  15.909  0.00  0.00    +0.000 F 
ATOM     32  C   UNL     1       4.697   4.153  16.582  0.00  0.00    +0.000 A 
ATOM     33  F   UNL     1       5.582   3.405  15.905  0.00  0.00    +0.000 F 
ATOM     34  C   UNL     1       3.668   3.515  17.270  0.00  0.00    +0.000 A 
ATOM     35  C   UNL     1       2.719   4.253  17.990  0.00  0.00    +0.000 A 
ATOM     36  C   UNL     1       2.857   5.646  17.970  0.00  0.00    +0.000 A 
ATOM     37  N   UNL     1       2.123   6.654  18.545  0.00  0.00    +0.000 N 
ATOM     38  H   UNL     1       1.312   6.547  19.141  0.00  0.00    +0.000 HD
ENDBRANCH  26  27
ENDBRANCH   9  26
TORSDOF 3
ENDMDL
MODEL 6
REMARK VINA RESULT:      -8.8      1.096      1.546
REMARK  Name = 
REMARK  4 active torsions:
REMARK  status: ('A' for Active; 'I' for Inactive)
REMARK    1  A    between atoms: C_1  and  N_2
REMARK    2  A    between atoms: N_9  and  C_10
REMARK    3  A    between atoms: C_10  and  C_11
REMARK    4  A    between atoms: N_25  and  C_26
REMARK                            x       y       z     vdW  Elec       q    Type
REMARK                         _______ _______ _______ _____ _____    ______ ____
ROOT
ATOM      1  C   UNL     1       1.763  16.849  22.040  0.00  0.00    +0.000 C 
ATOM      2  N   UNL     1       1.236  15.490  21.943  0.00  0.00    +0.000 NA
ATOM      3  C   UNL     1       2.082  14.660  21.054  0.00  0.00    +0.000 C 
ATOM      4  C   UNL     1       1.546  13.216  20.895  0.00  0.00    +0.000 C 
ATOM      5  N   UNL     1       0.154  13.260  20.441  0.00  0.00    +0.000 N 
ATOM      6  C   UNL     1      -0.351  12.241  19.663  0.00  0.00    +0.000 A 
ATOM      7  N   UNL     1       0.527  11.357  19.129  0.00  0.00    +0.000 NA
ATOM      8  C   UNL     1       0.116  10.405  18.254  0.00  0.00    +0.000 A 
ATOM      9  N   UNL     1       1.021   9.532  17.632  0.00  0.00    +0.000 N 
ATOM     10  C   UNL     1      -1.251  10.364  17.937  0.00  0.00    +0.000 A 
ATOM     11  N   UNL     1      -1.954   9.529  17.108  0.00  0.00    +0.000 NA
ATOM     12  C   UNL     1      -3.189   9.973  17.173  0.00  0.00    +0.000 A 
ATOM     13  N   UNL     1      -3.338  11.081  17.994  0.00  0.00    +0.000 N 
ATOM     14  C   UNL     1      -2.070  11.309  18.526  0.00  0.00    +0.000 A 
ATOM     15  N   UNL     1      -1.671  12.250  19.398  0.00  0.00    +0.000 NA
ATOM     16  C   UNL     1      -0.735  14.073  21.275  0.00  0.00    +0.000 C 
ATOM     17  C   UNL     1      -0.148  15.499  21.415  0.00  0.00    +0.000 C 
ATOM     18  H   UNL     1       0.497   8.746  17.246  0.00  0.00    +0.000 HD
ENDROOT
BRANCH  13  19
ATOM     19  C   UNL     1      -4.546  11.820  18.189  0.00  0.00    +0.000 A 
ATOM     20  C   UNL     1      -5.362  12.160  17.099  0.00  0.00    +0.000 A 
ATOM     21  C   UNL     1      -6.506  12.913  17.329  0.00  0.00    +0.000 A 
ATOM     22  N   UNL     1      -6.887  13.345  18.545  0.00  0.00    +0.000 NA
ATOM     23  C   UNL     1      -6.093  13.004  19.577  0.00  0.00    +0.000 A 
ATOM     24  F   UNL     1      -6.451  13.433  20.797  0.00  0.00    +0.000 F 
ATOM     25  C   UNL     1      -4.935  12.254  19.458  0.00  0.00    +0.000 A 
ENDBRANCH  13  19
BRANCH   9  26
ATOM     26  C   UNL     1       2.149   9.119  18.457  0.00  0.00    +0.000 C 
BRANCH  26  27
ATOM     27  C   UNL     1       2.598   7.716  18.159  0.00  0.00    +0.000 A 
ATOM     28  N   UNL     1       1.976   6.588  18.447  0.00  0.00    +0.000 NA
ATOM     29  C   UNL     1       2.795   5.574  17.993  0.00  0.00    +0.000 A 
ATOM     30  C   UNL     1       2.648   4.177  18.048  0.00  0.00    +0.000 A 
ATOM     31  F   UNL     1       1.566   3.613  18.604  0.00  0.00    +0.000 F 
ATOM     32  C   UNL     1       3.658   3.375  17.514  0.00  0.00    +0.000 A 
ATOM     33  F   UNL     1       3.543   2.039  17.566  0.00  0.00    +0.000 F 
ATOM     34  C   UNL     1       4.794   3.927  16.929  0.00  0.00    +0.000 A 
ATOM     35  C   UNL     1       4.960   5.316  16.853  0.00  0.00    +0.000 A 
ATOM     36  C   UNL     1       3.940   6.104  17.399  0.00  0.00    +0.000 A 
ATOM     37  N   UNL     1       3.779   7.464  17.502  0.00  0.00    +0.000 N 
ATOM     38  H   UNL     1       4.409   8.175  17.155  0.00  0.00    +0.000 HD
ENDBRANCH  26  27
ENDBRANCH   9  26
TORSDOF 3
ENDMDL
MODEL 7
REMARK VINA RESULT:      -8.8      8.235     12.019
REMARK  Name = 
REMARK  4 active torsions:
REMARK  status: ('A' for Active; 'I' for Inactive)
REMARK    1  A    between atoms: C_1  and  N_2
REMARK    2  A    between atoms: N_9  and  C_10
REMARK    3  A    between atoms: C_10  and  C_11
REMARK    4  A    between atoms: N_25  and  C_26
REMARK                            x       y       z     vdW  Elec       q    Type
REMARK                         _______ _______ _______ _____ _____    ______ ____
ROOT
ATOM      1  C   UNL     1       0.769   3.421  19.673  0.00  0.00    +0.000 C 
ATOM      2  N   UNL     1       2.165   3.364  19.245  0.00  0.00    +0.000 NA
ATOM      3  C   UNL     1       2.817   4.686  19.399  0.00  0.00    +0.000 C 
ATOM      4  C   UNL     1       4.292   4.684  18.928  0.00  0.00    +0.000 C 
ATOM      5  N   UNL     1       4.363   4.195  17.549  0.00  0.00    +0.000 N 
ATOM      6  C   UNL     1       5.361   4.641  16.710  0.00  0.00    +0.000 A 
ATOM      7  N   UNL     1       6.093   5.710  17.108  0.00  0.00    +0.000 NA
ATOM      8  C   UNL     1       7.006   6.280  16.281  0.00  0.00    +0.000 A 
ATOM      9  N   UNL     1       7.716   7.433  16.647  0.00  0.00    +0.000 N 
ATOM     10  C   UNL     1       7.170   5.711  15.008  0.00  0.00    +0.000 A 
ATOM     11  N   UNL     1       8.004   6.051  13.974  0.00  0.00    +0.000 NA
ATOM     12  C   UNL     1       7.706   5.196  13.023  0.00  0.00    +0.000 A 
ATOM     13  N   UNL     1       6.697   4.310  13.369  0.00  0.00    +0.000 N 
ATOM     14  C   UNL     1       6.376   4.626  14.688  0.00  0.00    +0.000 A 
ATOM     15  N   UNL     1       5.475   4.053  15.505  0.00  0.00    +0.000 NA
ATOM     16  C   UNL     1       3.729   2.893  17.328  0.00  0.00    +0.000 C 
ATOM     17  C   UNL     1       2.263   2.944  17.828  0.00  0.00    +0.000 C 
ATOM     18  H   UNL     1       8.519   7.527  16.023  0.00  0.00    +0.000 HD
ENDROOT
BRANCH  13  19
ATOM     19  C   UNL     1       6.115   3.329  12.508  0.00  0.00    +0.000 A 
ATOM     20  C   UNL     1       6.865   2.229  12.064  0.00  0.00    +0.000 A 
ATOM     21  C   UNL     1       6.273   1.321  11.196  0.00  0.00    +0.000 A 
ATOM     22  N   UNL     1       5.010   1.429  10.747  0.00  0.00    +0.000 NA
ATOM     23  C   UNL     1       4.306   2.487  11.188  0.00  0.00    +0.000 A 
ATOM     24  F   UNL     1       3.046   2.617  10.744  0.00  0.00    +0.000 F 
ATOM     25  C   UNL     1       4.799   3.447  12.056  0.00  0.00    +0.000 A 
ENDBRANCH  13  19
BRANCH   9  26
ATOM     26  C   UNL     1       8.071   7.520  18.056  0.00  0.00    +0.000 C 
BRANCH  26  27
ATOM     27  C   UNL     1       8.534   8.896  18.451  0.00  0.00    +0.000 A 
ATOM     28  N   UNL     1       8.563   9.984  17.706  0.00  0.00    +0.000 NA
ATOM     29  C   UNL     1       9.087  10.980  18.506  0.00  0.00    +0.000 A 
ATOM     30  C   UNL     1       9.362  12.331  18.233  0.00  0.00    +0.000 A 
ATOM     31  F   UNL     1       9.107  12.864  17.029  0.00  0.00    +0.000 F 
ATOM     32  C   UNL     1       9.916  13.119  19.243  0.00  0.00    +0.000 A 
ATOM     33  F   UNL     1      10.197  14.410  19.001  0.00  0.00    +0.000 F 
ATOM     34  C   UNL     1      10.192  12.599  20.504  0.00  0.00    +0.000 A 
ATOM     35  C   UNL     1       9.918  11.258  20.805  0.00  0.00    +0.000 A 
ATOM     36  C   UNL     1       9.370  10.482  19.777  0.00  0.00    +0.000 A 
ATOM     37  N   UNL     1       8.991   9.164  19.719  0.00  0.00    +0.000 N 
ATOM     38  H   UNL     1       9.030   8.489  20.472  0.00  0.00    +0.000 HD
ENDBRANCH  26  27
ENDBRANCH   9  26
TORSDOF 3
ENDMDL
MODEL 8
REMARK VINA RESULT:      -8.8      1.579      1.588
REMARK  Name = 
REMARK  4 active torsions:
REMARK  status: ('A' for Active; 'I' for Inactive)
REMARK    1  A    between atoms: C_1  and  N_2
REMARK    2  A    between atoms: N_9  and  C_10
REMARK    3  A    between atoms: C_10  and  C_11
REMARK    4  A    between atoms: N_25  and  C_26
REMARK                            x       y       z     vdW  Elec       q    Type
REMARK                         _______ _______ _______ _____ _____    ______ ____
ROOT
ATOM      1  C   UNL     1       1.643  18.039  18.965  0.00  0.00    +0.000 C 
ATOM      2  N   UNL     1       1.182  16.743  19.456  0.00  0.00    +0.000 NA
ATOM      3  C   UNL     1       1.906  15.638  18.785  0.00  0.00    +0.000 C 
ATOM      4  C   UNL     1       1.429  14.240  19.252  0.00  0.00    +0.000 C 
ATOM      5  N   UNL     1      -0.021  14.134  19.072  0.00  0.00    +0.000 N 
ATOM      6  C   UNL     1      -0.596  12.909  18.814  0.00  0.00    +0.000 A 
ATOM      7  N   UNL     1       0.223  11.881  18.481  0.00  0.00    +0.000 NA
ATOM      8  C   UNL     1      -0.280  10.683  18.093  0.00  0.00    +0.000 A 
ATOM      9  N   UNL     1       0.550   9.634  17.671  0.00  0.00    +0.000 N 
ATOM     10  C   UNL     1      -1.677  10.546  18.063  0.00  0.00    +0.000 A 
ATOM     11  N   UNL     1      -2.467   9.477  17.730  0.00  0.00    +0.000 NA
ATOM     12  C   UNL     1      -3.694   9.929  17.853  0.00  0.00    +0.000 A 
ATOM     13  N   UNL     1      -3.759  11.260  18.238  0.00  0.00    +0.000 N 
ATOM     14  C   UNL     1      -2.432  11.650  18.414  0.00  0.00    +0.000 A 
ATOM     15  N   UNL     1      -1.940  12.837  18.806  0.00  0.00    +0.000 NA
ATOM     16  C   UNL     1      -0.795  15.203  19.707  0.00  0.00    +0.000 C 
ATOM     17  C   UNL     1      -0.271  16.577  19.220  0.00  0.00    +0.000 C 
ATOM     18  H   UNL     1       0.010   8.768  17.693  0.00  0.00    +0.000 HD
ENDROOT
BRANCH  13  19
ATOM     19  C   UNL     1      -4.953  12.034  18.370  0.00  0.00    +0.000 A 
ATOM     20  C   UNL     1      -5.661  12.460  17.236  0.00  0.00    +0.000 A 
ATOM     21  C   UNL     1      -6.794  13.244  17.410  0.00  0.00    +0.000 A 
ATOM     22  N   UNL     1      -7.263  13.627  18.611  0.00  0.00    +0.000 NA
ATOM     23  C   UNL     1      -6.573  13.203  19.686  0.00  0.00    +0.000 A 
ATOM     24  F   UNL     1      -7.020  13.582  20.893  0.00  0.00    +0.000 F 
ATOM     25  C   UNL     1      -5.435  12.417  19.624  0.00  0.00    +0.000 A 
ENDBRANCH  13  19
BRANCH   9  26
ATOM     26  C   UNL     1       1.824   9.533  18.371  0.00  0.00    +0.000 C 
BRANCH  26  27
ATOM     27  C   UNL     1       2.237   8.108  18.614  0.00  0.00    +0.000 A 
ATOM     28  N   UNL     1       2.919   7.314  17.810  0.00  0.00    +0.000 NA
ATOM     29  C   UNL     1       3.026   6.105  18.468  0.00  0.00    +0.000 A 
ATOM     30  C   UNL     1       3.628   4.896  18.079  0.00  0.00    +0.000 A 
ATOM     31  F   UNL     1       4.243   4.774  16.894  0.00  0.00    +0.000 F 
ATOM     32  C   UNL     1       3.572   3.809  18.953  0.00  0.00    +0.000 A 
ATOM     33  F   UNL     1       4.132   2.641  18.599  0.00  0.00    +0.000 F 
ATOM     34  C   UNL     1       2.944   3.901  20.192  0.00  0.00    +0.000 A 
ATOM     35  C   UNL     1       2.344   5.098  20.606  0.00  0.00    +0.000 A 
ATOM     36  C   UNL     1       2.404   6.175  19.714  0.00  0.00    +0.000 A 
ATOM     37  N   UNL     1       1.930   7.461  19.787  0.00  0.00    +0.000 N 
ATOM     38  H   UNL     1       1.440   7.882  20.566  0.00  0.00    +0.000 HD
ENDBRANCH  26  27
ENDBRANCH   9  26
TORSDOF 3
ENDMDL
MODEL 9
REMARK VINA RESULT:      -8.7      1.498      1.866
REMARK  Name = 
REMARK  4 active torsions:
REMARK  status: ('A' for Active; 'I' for Inactive)
REMARK    1  A    between atoms: C_1  and  N_2
REMARK    2  A    between atoms: N_9  and  C_10
REMARK    3  A    between atoms: C_10  and  C_11
REMARK    4  A    between atoms: N_25  and  C_26
REMARK                            x       y       z     vdW  Elec       q    Type
REMARK                         _______ _______ _______ _____ _____    ______ ____
ROOT
ATOM      1  C   UNL     1       2.050  17.136  21.273  0.00  0.00    +0.000 C 
ATOM      2  N   UNL     1       1.484  15.791  21.341  0.00  0.00    +0.000 NA
ATOM      3  C   UNL     1       2.273  14.846  20.516  0.00  0.00    +0.000 C 
ATOM      4  C   UNL     1       1.693  13.410  20.531  0.00  0.00    +0.000 C 
ATOM      5  N   UNL     1       0.286  13.448  20.125  0.00  0.00    +0.000 N 
ATOM      6  C   UNL     1      -0.274  12.369  19.479  0.00  0.00    +0.000 A 
ATOM      7  N   UNL     1       0.558  11.407  19.012  0.00  0.00    +0.000 NA
ATOM      8  C   UNL     1       0.089  10.380  18.258  0.00  0.00    +0.000 A 
ATOM      9  N   UNL     1       0.947   9.420  17.702  0.00  0.00    +0.000 N 
ATOM     10  C   UNL     1      -1.289  10.348  17.996  0.00  0.00    +0.000 A 
ATOM     11  N   UNL     1      -2.046   9.451  17.287  0.00  0.00    +0.000 NA
ATOM     12  C   UNL     1      -3.265   9.936  17.348  0.00  0.00    +0.000 A 
ATOM     13  N   UNL     1      -3.354  11.129  18.051  0.00  0.00    +0.000 N 
ATOM     14  C   UNL     1      -2.060  11.374  18.510  0.00  0.00    +0.000 A 
ATOM     15  N   UNL     1      -1.603  12.389  19.262  0.00  0.00    +0.000 NA
ATOM     16  C   UNL     1      -0.548  14.371  20.899  0.00  0.00    +0.000 C 
ATOM     17  C   UNL     1       0.081  15.786  20.865  0.00  0.00    +0.000 C 
ATOM     18  H   UNL     1       0.387   8.614  17.421  0.00  0.00    +0.000 HD
ENDROOT
BRANCH  13  19
ATOM     19  C   UNL     1      -4.533  11.921  18.209  0.00  0.00    +0.000 A 
ATOM     20  C   UNL     1      -5.329  12.250  17.101  0.00  0.00    +0.000 A 
ATOM     21  C   UNL     1      -6.444  13.055  17.294  0.00  0.00    +0.000 A 
ATOM     22  N   UNL     1      -6.815  13.547  18.489  0.00  0.00    +0.000 NA
ATOM     23  C   UNL     1      -6.042  13.215  19.539  0.00  0.00    +0.000 A 
ATOM     24  F   UNL     1      -6.390  13.704  20.739  0.00  0.00    +0.000 F 
ATOM     25  C   UNL     1      -4.912  12.418  19.458  0.00  0.00    +0.000 A 
ENDBRANCH  13  19
BRANCH   9  26
ATOM     26  C   UNL     1       2.094   9.063  18.525  0.00  0.00    +0.000 C 
BRANCH  26  27
ATOM     27  C   UNL     1       2.717   7.758  18.111  0.00  0.00    +0.000 A 
ATOM     28  N   UNL     1       3.804   7.574  17.386  0.00  0.00    +0.000 NA
ATOM     29  C   UNL     1       3.953   6.207  17.261  0.00  0.00    +0.000 A 
ATOM     30  C   UNL     1       4.919   5.445  16.583  0.00  0.00    +0.000 A 
ATOM     31  F   UNL     1       5.923   6.029  15.913  0.00  0.00    +0.000 F 
ATOM     32  C   UNL     1       4.815   4.053  16.612  0.00  0.00    +0.000 A 
ATOM     33  F   UNL     1       5.721   3.305  15.962  0.00  0.00    +0.000 F 
ATOM     34  C   UNL     1       3.787   3.413  17.299  0.00  0.00    +0.000 A 
ATOM     35  C   UNL     1       2.817   4.150  17.991  0.00  0.00    +0.000 A 
ATOM     36  C   UNL     1       2.934   5.544  17.944  0.00  0.00    +0.000 A 
ATOM     37  N   UNL     1       2.177   6.552  18.489  0.00  0.00    +0.000 N 
ATOM     38  H   UNL     1       1.359   6.445  19.075  0.00  0.00    +0.000 HD
ENDBRANCH  26  27
ENDBRANCH   9  26
TORSDOF 3
ENDMDL
