MODEL 1
REMARK VINA RESULT:      -7.4      0.000      0.000
REMARK  Name = 
REMARK  11 active torsions:
REMARK  status: ('A' for Active; 'I' for Inactive)
REMARK    1  A    between atoms: C_1  and  C_2
REMARK    2  A    between atoms: C_2  and  C_3
REMARK    3  A    between atoms: C_3  and  C_4
REMARK    4  A    between atoms: C_4  and  C_5
REMARK    5  A    between atoms: C_5  and  C_6
REMARK    6  A    between atoms: C_6  and  C_7
REMARK    7  A    between atoms: C_7  and  C_8
REMARK    8  A    between atoms: C_8  and  N_9
REMARK    9  A    between atoms: N_15  and  C_16
REMARK   10  A    between atoms: C_19  and  O_20
REMARK   11  A    between atoms: O_20  and  C_21
REMARK                            x       y       z     vdW  Elec       q    Type
REMARK                         _______ _______ _______ _____ _____    ______ ____
ROOT
ATOM      1  N   UNL     1       4.740   4.426  17.496  0.00  0.00    +0.000 N 
ATOM      2  C   UNL     1       4.737   4.087  18.811  0.00  0.00    +0.000 C 
ATOM      3  N   UNL     1       5.339   3.057  19.302  0.00  0.00    +0.000 NA
ATOM      4  N   UNL     1       3.995   4.907  19.628  0.00  0.00    +0.000 N 
ATOM      5  C   UNL     1       2.831   5.592  19.389  0.00  0.00    +0.000 C 
ATOM      6  N   UNL     1       2.051   5.289  18.386  0.00  0.00    +0.000 NA
ATOM      7  N   UNL     1       2.522   6.618  20.251  0.00  0.00    +0.000 N 
ATOM      8  H   UNL     1       4.717   5.420  17.287  0.00  0.00    +0.000 HD
ATOM      9  H   UNL     1       5.823   2.569  18.539  0.00  0.00    +0.000 HD
ATOM     10  H   UNL     1       4.118   4.634  20.591  0.00  0.00    +0.000 HD
ATOM     11  H   UNL     1       2.452   4.467  17.924  0.00  0.00    +0.000 HD
ATOM     12  H   UNL     1       3.114   6.753  21.063  0.00  0.00    +0.000 HD
ENDROOT
BRANCH   7  13
ATOM     13  C   UNL     1       1.951   7.841  19.806  0.00  0.00    +0.000 A 
ATOM     14  C   UNL     1       2.205   8.322  18.516  0.00  0.00    +0.000 A 
ATOM     15  C   UNL     1       1.628   9.523  18.072  0.00  0.00    +0.000 A 
ATOM     16  C   UNL     1       0.755  10.245  18.888  0.00  0.00    +0.000 A 
ATOM     17  C   UNL     1       0.512   9.789  20.179  0.00  0.00    +0.000 A 
ATOM     18  C   UNL     1       1.110   8.606  20.630  0.00  0.00    +0.000 A 
BRANCH  16  19
ATOM     19  O   UNL     1       0.226  11.386  18.347  0.00  0.00    +0.000 OA
ATOM     20  C   UNL     1       0.381  12.566  19.132  0.00  0.00    +0.000 C 
ENDBRANCH  16  19
ENDBRANCH   7  13
BRANCH   1  21
ATOM     21  C   UNL     1       5.065   3.529  16.406  0.00  0.00    +0.000 C 
BRANCH  21  22
ATOM     22  C   UNL     1       6.260   4.012  15.571  0.00  0.00    +0.000 C 
BRANCH  22  23
ATOM     23  C   UNL     1       5.748   4.583  14.240  0.00  0.00    +0.000 C 
BRANCH  23  24
ATOM     24  C   UNL     1       6.515   4.044  13.033  0.00  0.00    +0.000 C 
BRANCH  24  25
ATOM     25  C   UNL     1       5.643   3.118  12.176  0.00  0.00    +0.000 C 
BRANCH  25  26
ATOM     26  C   UNL     1       4.371   3.835  11.717  0.00  0.00    +0.000 C 
BRANCH  26  28
ATOM     27  C   UNL     1       2.942   3.971   9.651  0.00  0.00    +0.000 C 
ATOM     28  C   UNL     1       3.622   3.043  10.645  0.00  0.00    +0.000 C 
ENDBRANCH  26  28
ENDBRANCH  25  26
ENDBRANCH  24  25
ENDBRANCH  23  24
ENDBRANCH  22  23
ENDBRANCH  21  22
ENDBRANCH   1  21
TORSDOF 9
ENDMDL
MODEL 2
REMARK VINA RESULT:      -7.2      0.950      1.019
REMARK  Name = 
REMARK  11 active torsions:
REMARK  status: ('A' for Active; 'I' for Inactive)
REMARK    1  A    between atoms: C_1  and  C_2
REMARK    2  A    between atoms: C_2  and  C_3
REMARK    3  A    between atoms: C_3  and  C_4
REMARK    4  A    between atoms: C_4  and  C_5
REMARK    5  A    between atoms: C_5  and  C_6
REMARK    6  A    between atoms: C_6  and  C_7
REMARK    7  A    between atoms: C_7  and  C_8
REMARK    8  A    between atoms: C_8  and  N_9
REMARK    9  A    between atoms: N_15  and  C_16
REMARK   10  A    between atoms: C_19  and  O_20
REMARK   11  A    between atoms: O_20  and  C_21
REMARK                            x       y       z     vdW  Elec       q    Type
REMARK                         _______ _______ _______ _____ _____    ______ ____
ROOT
ATOM      1  N   UNL     1       4.997   5.222  16.939  0.00  0.00    +0.000 N 
ATOM      2  C   UNL     1       5.211   4.804  18.213  0.00  0.00    +0.000 C 
ATOM      3  N   UNL     1       6.046   3.879  18.549  0.00  0.00    +0.000 NA
ATOM      4  N   UNL     1       4.433   5.411  19.170  0.00  0.00    +0.000 N 
ATOM      5  C   UNL     1       3.144   5.875  19.113  0.00  0.00    +0.000 C 
ATOM      6  N   UNL     1       2.319   5.494  18.174  0.00  0.00    +0.000 NA
ATOM      7  N   UNL     1       2.756   6.764  20.087  0.00  0.00    +0.000 N 
ATOM      8  H   UNL     1       4.768   6.205  16.819  0.00  0.00    +0.000 HD
ATOM      9  H   UNL     1       6.518   3.543  17.700  0.00  0.00    +0.000 HD
ATOM     10  H   UNL     1       4.717   5.105  20.088  0.00  0.00    +0.000 HD
ATOM     11  H   UNL     1       2.807   4.796  17.603  0.00  0.00    +0.000 HD
ATOM     12  H   UNL     1       3.404   6.957  20.843  0.00  0.00    +0.000 HD
ENDROOT
BRANCH   7  13
ATOM     13  C   UNL     1       1.921   7.881  19.811  0.00  0.00    +0.000 A 
ATOM     14  C   UNL     1       1.984   8.532  18.573  0.00  0.00    +0.000 A 
ATOM     15  C   UNL     1       1.149   9.627  18.295  0.00  0.00    +0.000 A 
ATOM     16  C   UNL     1       0.208  10.066  19.229  0.00  0.00    +0.000 A 
ATOM     17  C   UNL     1       0.151   9.442  20.469  0.00  0.00    +0.000 A 
ATOM     18  C   UNL     1       1.004   8.368  20.755  0.00  0.00    +0.000 A 
BRANCH  16  19
ATOM     19  O   UNL     1      -0.575  11.122  18.846  0.00  0.00    +0.000 OA
ATOM     20  C   UNL     1      -1.601  10.816  17.904  0.00  0.00    +0.000 C 
ENDBRANCH  16  19
ENDBRANCH   7  13
BRANCH   1  21
ATOM     21  C   UNL     1       5.350   4.477  15.747  0.00  0.00    +0.000 C 
BRANCH  21  22
ATOM     22  C   UNL     1       6.596   5.032  15.043  0.00  0.00    +0.000 C 
BRANCH  22  23
ATOM     23  C   UNL     1       6.651   4.486  13.608  0.00  0.00    +0.000 C 
BRANCH  23  24
ATOM     24  C   UNL     1       5.520   3.504  13.307  0.00  0.00    +0.000 C 
BRANCH  24  25
ATOM     25  C   UNL     1       5.555   3.031  11.849  0.00  0.00    +0.000 C 
BRANCH  25  26
ATOM     26  C   UNL     1       4.138   2.860  11.296  0.00  0.00    +0.000 C 
BRANCH  26  28
ATOM     27  C   UNL     1       3.028   4.022   9.358  0.00  0.00    +0.000 C 
ATOM     28  C   UNL     1       3.565   4.178  10.773  0.00  0.00    +0.000 C 
ENDBRANCH  26  28
ENDBRANCH  25  26
ENDBRANCH  24  25
ENDBRANCH  23  24
ENDBRANCH  22  23
ENDBRANCH  21  22
ENDBRANCH   1  21
TORSDOF 9
ENDMDL
MODEL 3
REMARK VINA RESULT:      -7.1      1.158      1.799
REMARK  Name = 
REMARK  11 active torsions:
REMARK  status: ('A' for Active; 'I' for Inactive)
REMARK    1  A    between atoms: C_1  and  C_2
REMARK    2  A    between atoms: C_2  and  C_3
REMARK    3  A    between atoms: C_3  and  C_4
REMARK    4  A    between atoms: C_4  and  C_5
REMARK    5  A    between atoms: C_5  and  C_6
REMARK    6  A    between atoms: C_6  and  C_7
REMARK    7  A    between atoms: C_7  and  C_8
REMARK    8  A    between atoms: C_8  and  N_9
REMARK    9  A    between atoms: N_15  and  C_16
REMARK   10  A    between atoms: C_19  and  O_20
REMARK   11  A    between atoms: O_20  and  C_21
REMARK                            x       y       z     vdW  Elec       q    Type
REMARK                         _______ _______ _______ _____ _____    ______ ____
ROOT
ATOM      1  N   UNL     1       5.119   4.956  17.493  0.00  0.00    +0.000 N 
ATOM      2  C   UNL     1       4.962   4.482  18.756  0.00  0.00    +0.000 C 
ATOM      3  N   UNL     1       5.548   3.430  19.221  0.00  0.00    +0.000 NA
ATOM      4  N   UNL     1       4.078   5.182  19.542  0.00  0.00    +0.000 N 
ATOM      5  C   UNL     1       2.920   5.843  19.217  0.00  0.00    +0.000 C 
ATOM      6  N   UNL     1       2.295   5.617  18.092  0.00  0.00    +0.000 NA
ATOM      7  N   UNL     1       2.448   6.760  20.126  0.00  0.00    +0.000 N 
ATOM      8  H   UNL     1       5.071   5.965  17.382  0.00  0.00    +0.000 HD
ATOM      9  H   UNL     1       6.152   3.044  18.486  0.00  0.00    +0.000 HD
ATOM     10  H   UNL     1       4.088   4.815  20.481  0.00  0.00    +0.000 HD
ATOM     11  H   UNL     1       2.796   4.863  17.610  0.00  0.00    +0.000 HD
ATOM     12  H   UNL     1       2.921   6.833  21.020  0.00  0.00    +0.000 HD
ENDROOT
BRANCH   7  13
ATOM     13  C   UNL     1       1.876   8.000  19.730  0.00  0.00    +0.000 A 
ATOM     14  C   UNL     1       1.063   8.726  20.609  0.00  0.00    +0.000 A 
ATOM     15  C   UNL     1       0.511   9.958  20.223  0.00  0.00    +0.000 A 
ATOM     16  C   UNL     1       0.791  10.509  18.971  0.00  0.00    +0.000 A 
ATOM     17  C   UNL     1       1.579   9.788  18.082  0.00  0.00    +0.000 A 
ATOM     18  C   UNL     1       2.107   8.547  18.458  0.00  0.00    +0.000 A 
BRANCH  16  19
ATOM     19  O   UNL     1       0.225  11.727  18.708  0.00  0.00    +0.000 OA
ATOM     20  C   UNL     1      -0.768  12.157  19.636  0.00  0.00    +0.000 C 
ENDBRANCH  16  19
ENDBRANCH   7  13
BRANCH   1  21
ATOM     21  C   UNL     1       5.630   4.192  16.374  0.00  0.00    +0.000 C 
BRANCH  21  22
ATOM     22  C   UNL     1       6.840   4.855  15.701  0.00  0.00    +0.000 C 
BRANCH  22  23
ATOM     23  C   UNL     1       6.738   4.667  14.179  0.00  0.00    +0.000 C 
BRANCH  23  24
ATOM     24  C   UNL     1       5.750   3.569  13.786  0.00  0.00    +0.000 C 
BRANCH  24  25
ATOM     25  C   UNL     1       5.613   3.451  12.263  0.00  0.00    +0.000 C 
BRANCH  25  26
ATOM     26  C   UNL     1       6.987   3.416  11.591  0.00  0.00    +0.000 C 
BRANCH  26  28
ATOM     27  C   UNL     1       6.185   1.089  11.065  0.00  0.00    +0.000 C 
ATOM     28  C   UNL     1       7.399   1.995  11.203  0.00  0.00    +0.000 C 
ENDBRANCH  26  28
ENDBRANCH  25  26
ENDBRANCH  24  25
ENDBRANCH  23  24
ENDBRANCH  22  23
ENDBRANCH  21  22
ENDBRANCH   1  21
TORSDOF 9
ENDMDL
MODEL 4
REMARK VINA RESULT:      -7.0      1.013      1.478
REMARK  Name = 
REMARK  11 active torsions:
REMARK  status: ('A' for Active; 'I' for Inactive)
REMARK    1  A    between atoms: C_1  and  C_2
REMARK    2  A    between atoms: C_2  and  C_3
REMARK    3  A    between atoms: C_3  and  C_4
REMARK    4  A    between atoms: C_4  and  C_5
REMARK    5  A    between atoms: C_5  and  C_6
REMARK    6  A    between atoms: C_6  and  C_7
REMARK    7  A    between atoms: C_7  and  C_8
REMARK    8  A    between atoms: C_8  and  N_9
REMARK    9  A    between atoms: N_15  and  C_16
REMARK   10  A    between atoms: C_19  and  O_20
REMARK   11  A    between atoms: O_20  and  C_21
REMARK                            x       y       z     vdW  Elec       q    Type
REMARK                         _______ _______ _______ _____ _____    ______ ____
ROOT
ATOM      1  N   UNL     1       5.754   5.958  17.572  0.00  0.00    +0.000 N 
ATOM      2  C   UNL     1       5.595   5.142  18.646  0.00  0.00    +0.000 C 
ATOM      3  N   UNL     1       6.334   4.114  18.900  0.00  0.00    +0.000 NA
ATOM      4  N   UNL     1       4.537   5.450  19.467  0.00  0.00    +0.000 N 
ATOM      5  C   UNL     1       3.303   5.975  19.179  0.00  0.00    +0.000 C 
ATOM      6  N   UNL     1       2.819   5.961  17.965  0.00  0.00    +0.000 NA
ATOM      7  N   UNL     1       2.598   6.524  20.224  0.00  0.00    +0.000 N 
ATOM      8  H   UNL     1       5.524   6.937  17.713  0.00  0.00    +0.000 HD
ATOM      9  H   UNL     1       7.054   4.044  18.172  0.00  0.00    +0.000 HD
ATOM     10  H   UNL     1       4.546   4.850  20.278  0.00  0.00    +0.000 HD
ATOM     11  H   UNL     1       3.489   5.458  17.374  0.00  0.00    +0.000 HD
ATOM     12  H   UNL     1       2.978   6.429  21.159  0.00  0.00    +0.000 HD
ENDROOT
BRANCH   7  13
ATOM     13  C   UNL     1       1.832   7.714  20.085  0.00  0.00    +0.000 A 
ATOM     14  C   UNL     1       1.037   8.179  21.139  0.00  0.00    +0.000 A 
ATOM     15  C   UNL     1       0.293   9.363  21.007  0.00  0.00    +0.000 A 
ATOM     16  C   UNL     1       0.358  10.125  19.839  0.00  0.00    +0.000 A 
ATOM     17  C   UNL     1       1.127   9.662  18.777  0.00  0.00    +0.000 A 
ATOM     18  C   UNL     1       1.847   8.467  18.901  0.00  0.00    +0.000 A 
BRANCH  16  19
ATOM     19  O   UNL     1      -0.384  11.275  19.826  0.00  0.00    +0.000 OA
ATOM     20  C   UNL     1      -0.138  12.153  18.730  0.00  0.00    +0.000 C 
ENDBRANCH  16  19
ENDBRANCH   7  13
BRANCH   1  21
ATOM     21  C   UNL     1       6.485   5.617  16.369  0.00  0.00    +0.000 C 
BRANCH  21  22
ATOM     22  C   UNL     1       5.871   4.432  15.612  0.00  0.00    +0.000 C 
BRANCH  22  23
ATOM     23  C   UNL     1       6.404   4.421  14.171  0.00  0.00    +0.000 C 
BRANCH  23  24
ATOM     24  C   UNL     1       5.350   3.983  13.155  0.00  0.00    +0.000 C 
BRANCH  24  25
ATOM     25  C   UNL     1       5.944   3.058  12.086  0.00  0.00    +0.000 C 
BRANCH  25  26
ATOM     26  C   UNL     1       4.849   2.513  11.166  0.00  0.00    +0.000 C 
BRANCH  26  28
ATOM     27  C   UNL     1       3.248   3.951   9.860  0.00  0.00    +0.000 C 
ATOM     28  C   UNL     1       3.578   3.362  11.223  0.00  0.00    +0.000 C 
ENDBRANCH  26  28
ENDBRANCH  25  26
ENDBRANCH  24  25
ENDBRANCH  23  24
ENDBRANCH  22  23
ENDBRANCH  21  22
ENDBRANCH   1  21
TORSDOF 9
ENDMDL
MODEL 5
REMARK VINA RESULT:      -7.0      1.291      1.544
REMARK  Name = 
REMARK  11 active torsions:
REMARK  status: ('A' for Active; 'I' for Inactive)
REMARK    1  A    between atoms: C_1  and  C_2
REMARK    2  A    between atoms: C_2  and  C_3
REMARK    3  A    between atoms: C_3  and  C_4
REMARK    4  A    between atoms: C_4  and  C_5
REMARK    5  A    between atoms: C_5  and  C_6
REMARK    6  A    between atoms: C_6  and  C_7
REMARK    7  A    between atoms: C_7  and  C_8
REMARK    8  A    between atoms: C_8  and  N_9
REMARK    9  A    between atoms: N_15  and  C_16
REMARK   10  A    between atoms: C_19  and  O_20
REMARK   11  A    between atoms: O_20  and  C_21
REMARK                            x       y       z     vdW  Elec       q    Type
REMARK                         _______ _______ _______ _____ _____    ______ ____
ROOT
ATOM      1  N   UNL     1       4.483   4.975  17.501  0.00  0.00    +0.000 N 
ATOM      2  C   UNL     1       4.764   4.684  18.797  0.00  0.00    +0.000 C 
ATOM      3  N   UNL     1       5.609   3.787  19.179  0.00  0.00    +0.000 NA
ATOM      4  N   UNL     1       4.045   5.395  19.729  0.00  0.00    +0.000 N 
ATOM      5  C   UNL     1       2.757   5.867  19.695  0.00  0.00    +0.000 C 
ATOM      6  N   UNL     1       1.879   5.404  18.845  0.00  0.00    +0.000 NA
ATOM      7  N   UNL     1       2.430   6.854  20.594  0.00  0.00    +0.000 N 
ATOM      8  H   UNL     1       4.255   5.944  17.295  0.00  0.00    +0.000 HD
ATOM      9  H   UNL     1       6.031   3.362  18.345  0.00  0.00    +0.000 HD
ATOM     10  H   UNL     1       4.376   5.179  20.656  0.00  0.00    +0.000 HD
ATOM     11  H   UNL     1       2.330   4.646  18.322  0.00  0.00    +0.000 HD
ATOM     12  H   UNL     1       3.120   7.114  21.290  0.00  0.00    +0.000 HD
ENDROOT
BRANCH   7  13
ATOM     13  C   UNL     1       1.590   7.949  20.251  0.00  0.00    +0.000 A 
ATOM     14  C   UNL     1       1.707   8.579  19.007  0.00  0.00    +0.000 A 
ATOM     15  C   UNL     1       0.867   9.650  18.663  0.00  0.00    +0.000 A 
ATOM     16  C   UNL     1      -0.132  10.086  19.535  0.00  0.00    +0.000 A 
ATOM     17  C   UNL     1      -0.245   9.483  20.783  0.00  0.00    +0.000 A 
ATOM     18  C   UNL     1       0.612   8.433  21.134  0.00  0.00    +0.000 A 
BRANCH  16  19
ATOM     19  O   UNL     1      -0.914  11.119  19.091  0.00  0.00    +0.000 OA
ATOM     20  C   UNL     1      -1.558  10.906  17.836  0.00  0.00    +0.000 C 
ENDBRANCH  16  19
ENDBRANCH   7  13
BRANCH   1  21
ATOM     21  C   UNL     1       4.765   4.110  16.373  0.00  0.00    +0.000 C 
BRANCH  21  22
ATOM     22  C   UNL     1       5.327   4.869  15.164  0.00  0.00    +0.000 C 
BRANCH  22  23
ATOM     23  C   UNL     1       6.563   4.128  14.631  0.00  0.00    +0.000 C 
BRANCH  23  24
ATOM     24  C   UNL     1       7.152   4.783  13.383  0.00  0.00    +0.000 C 
BRANCH  24  25
ATOM     25  C   UNL     1       7.050   3.865  12.159  0.00  0.00    +0.000 C 
BRANCH  25  26
ATOM     26  C   UNL     1       5.608   3.397  11.947  0.00  0.00    +0.000 C 
BRANCH  26  28
ATOM     27  C   UNL     1       6.839   1.429  10.975  0.00  0.00    +0.000 C 
ATOM     28  C   UNL     1       5.535   1.913  11.589  0.00  0.00    +0.000 C 
ENDBRANCH  26  28
ENDBRANCH  25  26
ENDBRANCH  24  25
ENDBRANCH  23  24
ENDBRANCH  22  23
ENDBRANCH  21  22
ENDBRANCH   1  21
TORSDOF 9
ENDMDL
MODEL 6
REMARK VINA RESULT:      -6.7      0.947      1.559
REMARK  Name = 
REMARK  11 active torsions:
REMARK  status: ('A' for Active; 'I' for Inactive)
REMARK    1  A    between atoms: C_1  and  C_2
REMARK    2  A    between atoms: C_2  and  C_3
REMARK    3  A    between atoms: C_3  and  C_4
REMARK    4  A    between atoms: C_4  and  C_5
REMARK    5  A    between atoms: C_5  and  C_6
REMARK    6  A    between atoms: C_6  and  C_7
REMARK    7  A    between atoms: C_7  and  C_8
REMARK    8  A    between atoms: C_8  and  N_9
REMARK    9  A    between atoms: N_15  and  C_16
REMARK   10  A    between atoms: C_19  and  O_20
REMARK   11  A    between atoms: O_20  and  C_21
REMARK                            x       y       z     vdW  Elec       q    Type
REMARK                         _______ _______ _______ _____ _____    ______ ____
ROOT
ATOM      1  N   UNL     1       4.481   4.802  17.732  0.00  0.00    +0.000 N 
ATOM      2  C   UNL     1       4.625   4.529  19.054  0.00  0.00    +0.000 C 
ATOM      3  N   UNL     1       5.362   3.582  19.530  0.00  0.00    +0.000 NA
ATOM      4  N   UNL     1       3.884   5.318  19.902  0.00  0.00    +0.000 N 
ATOM      5  C   UNL     1       2.645   5.884  19.743  0.00  0.00    +0.000 C 
ATOM      6  N   UNL     1       1.811   5.464  18.829  0.00  0.00    +0.000 NA
ATOM      7  N   UNL     1       2.318   6.919  20.587  0.00  0.00    +0.000 N 
ATOM      8  H   UNL     1       4.347   5.778  17.485  0.00  0.00    +0.000 HD
ATOM      9  H   UNL     1       5.821   3.103  18.747  0.00  0.00    +0.000 HD
ATOM     10  H   UNL     1       4.117   5.105  20.860  0.00  0.00    +0.000 HD
ATOM     11  H   UNL     1       2.246   4.659  18.366  0.00  0.00    +0.000 HD
ATOM     12  H   UNL     1       2.964   7.147  21.335  0.00  0.00    +0.000 HD
ENDROOT
BRANCH   7  13
ATOM     13  C   UNL     1       1.598   8.063  20.147  0.00  0.00    +0.000 A 
ATOM     14  C   UNL     1       0.664   8.686  20.983  0.00  0.00    +0.000 A 
ATOM     15  C   UNL     1      -0.036   9.825  20.553  0.00  0.00    +0.000 A 
ATOM     16  C   UNL     1       0.210  10.388  19.300  0.00  0.00    +0.000 A 
ATOM     17  C   UNL     1       1.119   9.766  18.451  0.00  0.00    +0.000 A 
ATOM     18  C   UNL     1       1.796   8.615  18.871  0.00  0.00    +0.000 A 
BRANCH  16  19
ATOM     19  O   UNL     1      -0.506  11.513  18.991  0.00  0.00    +0.000 OA
ATOM     20  C   UNL     1      -1.900  11.312  18.768  0.00  0.00    +0.000 C 
ENDBRANCH  16  19
ENDBRANCH   7  13
BRANCH   1  21
ATOM     21  C   UNL     1       4.792   3.885  16.654  0.00  0.00    +0.000 C 
BRANCH  21  22
ATOM     22  C   UNL     1       4.823   4.567  15.279  0.00  0.00    +0.000 C 
BRANCH  22  23
ATOM     23  C   UNL     1       6.169   5.287  15.103  0.00  0.00    +0.000 C 
BRANCH  23  24
ATOM     24  C   UNL     1       6.954   4.781  13.894  0.00  0.00    +0.000 C 
BRANCH  24  25
ATOM     25  C   UNL     1       6.455   3.407  13.429  0.00  0.00    +0.000 C 
BRANCH  25  26
ATOM     26  C   UNL     1       6.476   3.307  11.902  0.00  0.00    +0.000 C 
BRANCH  26  28
ATOM     27  C   UNL     1       4.030   3.277  11.310  0.00  0.00    +0.000 C 
ATOM     28  C   UNL     1       5.317   2.467  11.367  0.00  0.00    +0.000 C 
ENDBRANCH  26  28
ENDBRANCH  25  26
ENDBRANCH  24  25
ENDBRANCH  23  24
ENDBRANCH  22  23
ENDBRANCH  21  22
ENDBRANCH   1  21
TORSDOF 9
ENDMDL
MODEL 7
REMARK VINA RESULT:      -6.7      3.963      6.736
REMARK  Name = 
REMARK  11 active torsions:
REMARK  status: ('A' for Active; 'I' for Inactive)
REMARK    1  A    between atoms: C_1  and  C_2
REMARK    2  A    between atoms: C_2  and  C_3
REMARK    3  A    between atoms: C_3  and  C_4
REMARK    4  A    between atoms: C_4  and  C_5
REMARK    5  A    between atoms: C_5  and  C_6
REMARK    6  A    between atoms: C_6  and  C_7
REMARK    7  A    between atoms: C_7  and  C_8
REMARK    8  A    between atoms: C_8  and  N_9
REMARK    9  A    between atoms: N_15  and  C_16
REMARK   10  A    between atoms: C_19  and  O_20
REMARK   11  A    between atoms: O_20  and  C_21
REMARK                            x       y       z     vdW  Elec       q    Type
REMARK                         _______ _______ _______ _____ _____    ______ ____
ROOT
ATOM      1  N   UNL     1       2.266   3.635  18.542  0.00  0.00    +0.000 N 
ATOM      2  C   UNL     1       3.004   2.624  18.018  0.00  0.00    +0.000 C 
ATOM      3  N   UNL     1       2.564   1.428  17.808  0.00  0.00    +0.000 NA
ATOM      4  N   UNL     1       4.315   2.933  17.744  0.00  0.00    +0.000 N 
ATOM      5  C   UNL     1       5.189   3.774  18.384  0.00  0.00    +0.000 C 
ATOM      6  N   UNL     1       4.974   4.184  19.606  0.00  0.00    +0.000 NA
ATOM      7  N   UNL     1       6.301   4.174  17.681  0.00  0.00    +0.000 N 
ATOM      8  H   UNL     1       2.479   4.570  18.207  0.00  0.00    +0.000 HD
ATOM      9  H   UNL     1       1.575   1.393  18.084  0.00  0.00    +0.000 HD
ATOM     10  H   UNL     1       4.762   2.156  17.280  0.00  0.00    +0.000 HD
ATOM     11  H   UNL     1       4.125   3.717  19.941  0.00  0.00    +0.000 HD
ATOM     12  H   UNL     1       6.465   3.757  16.771  0.00  0.00    +0.000 HD
ENDROOT
BRANCH   7  13
ATOM     13  C   UNL     1       6.814   5.497  17.755  0.00  0.00    +0.000 A 
ATOM     14  C   UNL     1       6.283   6.516  16.955  0.00  0.00    +0.000 A 
ATOM     15  C   UNL     1       6.781   7.827  17.040  0.00  0.00    +0.000 A 
ATOM     16  C   UNL     1       7.788   8.155  17.950  0.00  0.00    +0.000 A 
ATOM     17  C   UNL     1       8.338   7.147  18.734  0.00  0.00    +0.000 A 
ATOM     18  C   UNL     1       7.859   5.836  18.629  0.00  0.00    +0.000 A 
BRANCH  16  19
ATOM     19  O   UNL     1       8.180   9.467  17.970  0.00  0.00    +0.000 OA
ATOM     20  C   UNL     1       9.041   9.834  19.046  0.00  0.00    +0.000 C 
ENDBRANCH  16  19
ENDBRANCH   7  13
BRANCH   1  21
ATOM     21  C   UNL     1       1.038   3.467  19.293  0.00  0.00    +0.000 C 
BRANCH  21  22
ATOM     22  C   UNL     1       0.853   4.531  20.383  0.00  0.00    +0.000 C 
BRANCH  22  23
ATOM     23  C   UNL     1       2.229   5.082  20.790  0.00  0.00    +0.000 C 
BRANCH  23  24
ATOM     24  C   UNL     1       2.239   6.604  20.923  0.00  0.00    +0.000 C 
BRANCH  24  25
ATOM     25  C   UNL     1       1.780   7.288  19.629  0.00  0.00    +0.000 C 
BRANCH  25  26
ATOM     26  C   UNL     1       2.868   7.214  18.556  0.00  0.00    +0.000 C 
BRANCH  26  28
ATOM     27  C   UNL     1       1.629   9.309  17.917  0.00  0.00    +0.000 C 
ATOM     28  C   UNL     1       2.788   8.384  17.576  0.00  0.00    +0.000 C 
ENDBRANCH  26  28
ENDBRANCH  25  26
ENDBRANCH  24  25
ENDBRANCH  23  24
ENDBRANCH  22  23
ENDBRANCH  21  22
ENDBRANCH   1  21
TORSDOF 9
ENDMDL
MODEL 8
REMARK VINA RESULT:      -6.7      3.873      5.617
REMARK  Name = 
REMARK  11 active torsions:
REMARK  status: ('A' for Active; 'I' for Inactive)
REMARK    1  A    between atoms: C_1  and  C_2
REMARK    2  A    between atoms: C_2  and  C_3
REMARK    3  A    between atoms: C_3  and  C_4
REMARK    4  A    between atoms: C_4  and  C_5
REMARK    5  A    between atoms: C_5  and  C_6
REMARK    6  A    between atoms: C_6  and  C_7
REMARK    7  A    between atoms: C_7  and  C_8
REMARK    8  A    between atoms: C_8  and  N_9
REMARK    9  A    between atoms: N_15  and  C_16
REMARK   10  A    between atoms: C_19  and  O_20
REMARK   11  A    between atoms: O_20  and  C_21
REMARK                            x       y       z     vdW  Elec       q    Type
REMARK                         _______ _______ _______ _____ _____    ______ ____
ROOT
ATOM      1  N   UNL     1       5.313   5.991  18.181  0.00  0.00    +0.000 N 
ATOM      2  C   UNL     1       4.886   5.074  19.087  0.00  0.00    +0.000 C 
ATOM      3  N   UNL     1       5.396   3.897  19.234  0.00  0.00    +0.000 NA
ATOM      4  N   UNL     1       3.810   5.459  19.851  0.00  0.00    +0.000 N 
ATOM      5  C   UNL     1       2.732   6.249  19.545  0.00  0.00    +0.000 C 
ATOM      6  N   UNL     1       2.399   6.505  18.307  0.00  0.00    +0.000 NA
ATOM      7  N   UNL     1       2.017   6.767  20.598  0.00  0.00    +0.000 N 
ATOM      8  H   UNL     1       5.246   6.965  18.459  0.00  0.00    +0.000 HD
ATOM      9  H   UNL     1       6.174   3.796  18.571  0.00  0.00    +0.000 HD
ATOM     10  H   UNL     1       3.617   4.758  20.550  0.00  0.00    +0.000 HD
ATOM     11  H   UNL     1       3.035   5.972  17.703  0.00  0.00    +0.000 HD
ATOM     12  H   UNL     1       2.262   6.466  21.535  0.00  0.00    +0.000 HD
ENDROOT
BRANCH   7  13
ATOM     13  C   UNL     1       1.496   8.089  20.590  0.00  0.00    +0.000 A 
ATOM     14  C   UNL     1       1.060   8.694  21.775  0.00  0.00    +0.000 A 
ATOM     15  C   UNL     1       0.559  10.007  21.768  0.00  0.00    +0.000 A 
ATOM     16  C   UNL     1       0.522  10.754  20.589  0.00  0.00    +0.000 A 
ATOM     17  C   UNL     1       0.931  10.157  19.402  0.00  0.00    +0.000 A 
ATOM     18  C   UNL     1       1.405   8.839  19.407  0.00  0.00    +0.000 A 
BRANCH  16  19
ATOM     19  O   UNL     1       0.042  12.032  20.699  0.00  0.00    +0.000 OA
ATOM     20  C   UNL     1      -0.046  12.762  19.477  0.00  0.00    +0.000 C 
ENDBRANCH  16  19
ENDBRANCH   7  13
BRANCH   1  21
ATOM     21  C   UNL     1       6.109   5.693  17.008  0.00  0.00    +0.000 C 
BRANCH  21  22
ATOM     22  C   UNL     1       7.491   6.361  17.037  0.00  0.00    +0.000 C 
BRANCH  22  23
ATOM     23  C   UNL     1       7.329   7.838  17.429  0.00  0.00    +0.000 C 
BRANCH  23  24
ATOM     24  C   UNL     1       8.411   8.313  18.398  0.00  0.00    +0.000 C 
BRANCH  24  25
ATOM     25  C   UNL     1       8.656   9.822  18.278  0.00  0.00    +0.000 C 
BRANCH  25  26
ATOM     26  C   UNL     1       9.360  10.362  19.525  0.00  0.00    +0.000 C 
BRANCH  26  28
ATOM     27  C   UNL     1      10.530  11.616  17.683  0.00  0.00    +0.000 C 
ATOM     28  C   UNL     1      10.515  11.299  19.170  0.00  0.00    +0.000 C 
ENDBRANCH  26  28
ENDBRANCH  25  26
ENDBRANCH  24  25
ENDBRANCH  23  24
ENDBRANCH  22  23
ENDBRANCH  21  22
ENDBRANCH   1  21
TORSDOF 9
ENDMDL
MODEL 9
REMARK VINA RESULT:      -6.7      1.518      2.155
REMARK  Name = 
REMARK  11 active torsions:
REMARK  status: ('A' for Active; 'I' for Inactive)
REMARK    1  A    between atoms: C_1  and  C_2
REMARK    2  A    between atoms: C_2  and  C_3
REMARK    3  A    between atoms: C_3  and  C_4
REMARK    4  A    between atoms: C_4  and  C_5
REMARK    5  A    between atoms: C_5  and  C_6
REMARK    6  A    between atoms: C_6  and  C_7
REMARK    7  A    between atoms: C_7  and  C_8
REMARK    8  A    between atoms: C_8  and  N_9
REMARK    9  A    between atoms: N_15  and  C_16
REMARK   10  A    between atoms: C_19  and  O_20
REMARK   11  A    between atoms: O_20  and  C_21
REMARK                            x       y       z     vdW  Elec       q    Type
REMARK                         _______ _______ _______ _____ _____    ______ ____
ROOT
ATOM      1  N   UNL     1       5.982   5.523  19.007  0.00  0.00    +0.000 N 
ATOM      2  C   UNL     1       5.096   4.524  19.257  0.00  0.00    +0.000 C 
ATOM      3  N   UNL     1       5.377   3.266  19.198  0.00  0.00    +0.000 NA
ATOM      4  N   UNL     1       3.817   4.932  19.550  0.00  0.00    +0.000 N 
ATOM      5  C   UNL     1       3.092   6.003  19.093  0.00  0.00    +0.000 C 
ATOM      6  N   UNL     1       3.431   6.647  18.007  0.00  0.00    +0.000 NA
ATOM      7  N   UNL     1       1.993   6.375  19.831  0.00  0.00    +0.000 N 
ATOM      8  H   UNL     1       5.861   6.378  19.543  0.00  0.00    +0.000 HD
ATOM      9  H   UNL     1       6.370   3.166  18.955  0.00  0.00    +0.000 HD
ATOM     10  H   UNL     1       3.253   4.136  19.805  0.00  0.00    +0.000 HD
ATOM     11  H   UNL     1       4.238   6.161  17.603  0.00  0.00    +0.000 HD
ATOM     12  H   UNL     1       1.723   5.788  20.613  0.00  0.00    +0.000 HD
ENDROOT
BRANCH   7  13
ATOM     13  C   UNL     1       1.646   7.736  20.048  0.00  0.00    +0.000 A 
ATOM     14  C   UNL     1       1.410   8.216  21.342  0.00  0.00    +0.000 A 
ATOM     15  C   UNL     1       1.082   9.564  21.558  0.00  0.00    +0.000 A 
ATOM     16  C   UNL     1       1.024  10.468  20.495  0.00  0.00    +0.000 A 
ATOM     17  C   UNL     1       1.234   9.999  19.203  0.00  0.00    +0.000 A 
ATOM     18  C   UNL     1       1.534   8.648  18.988  0.00  0.00    +0.000 A 
BRANCH  16  19
ATOM     19  O   UNL     1       0.723  11.763  20.820  0.00  0.00    +0.000 OA
ATOM     20  C   UNL     1      -0.643  12.138  20.652  0.00  0.00    +0.000 C 
ENDBRANCH  16  19
ENDBRANCH   7  13
BRANCH   1  21
ATOM     21  C   UNL     1       7.226   5.371  18.280  0.00  0.00    +0.000 C 
BRANCH  21  22
ATOM     22  C   UNL     1       7.112   5.781  16.806  0.00  0.00    +0.000 C 
BRANCH  22  23
ATOM     23  C   UNL     1       6.845   4.532  15.952  0.00  0.00    +0.000 C 
BRANCH  23  24
ATOM     24  C   UNL     1       6.728   4.850  14.462  0.00  0.00    +0.000 C 
BRANCH  24  25
ATOM     25  C   UNL     1       5.846   3.829  13.733  0.00  0.00    +0.000 C 
BRANCH  25  26
ATOM     26  C   UNL     1       6.427   3.488  12.359  0.00  0.00    +0.000 C 
BRANCH  26  28
ATOM     27  C   UNL     1       6.427   1.306  11.105  0.00  0.00    +0.000 C 
ATOM     28  C   UNL     1       5.576   2.457  11.617  0.00  0.00    +0.000 C 
ENDBRANCH  26  28
ENDBRANCH  25  26
ENDBRANCH  24  25
ENDBRANCH  23  24
ENDBRANCH  22  23
ENDBRANCH  21  22
ENDBRANCH   1  21
TORSDOF 9
ENDMDL
