MODEL 1
REMARK VINA RESULT:      -7.5      0.000      0.000
REMARK  Name = 
REMARK  8 active torsions:
REMARK  status: ('A' for Active; 'I' for Inactive)
REMARK    1  A    between atoms: C_1  and  C_2
REMARK    2  A    between atoms: C_2  and  CA_3
REMARK    3  A    between atoms: CA_3  and  C_4
REMARK    4  A    between atoms: CA_3  and  N_6
REMARK    5  A    between atoms: C_4  and  O_5
REMARK    6  A    between atoms: C_9  and  O_10
REMARK    7  A    between atoms: O_10  and  C_11
REMARK    8  A    between atoms: C_11  and  C_12
REMARK                            x       y       z     vdW  Elec       q    Type
REMARK                         _______ _______ _______ _____ _____    ______ ____
ROOT
ATOM      1  N   UNL     1       6.621   3.653  12.951  0.00  0.00    +0.000 N 
ATOM      2  C   UNL     1       6.524   4.062  14.291  0.00  0.00    +0.000 A 
ATOM      3  N   UNL     1       5.723   3.365  15.128  0.00  0.00    +0.000 NA
ATOM      4  C   UNL     1       5.539   3.818  16.380  0.00  0.00    +0.000 A 
ATOM      5  C   UNL     1       6.190   4.958  16.761  0.00  0.00    +0.000 A 
ATOM      6  N   UNL     1       6.243   5.697  17.906  0.00  0.00    +0.000 N 
ATOM      7  C   UNL     1       7.102   6.736  17.671  0.00  0.00    +0.000 A 
ATOM      8  N   UNL     1       7.585   6.702  16.447  0.00  0.00    +0.000 NA
ATOM      9  C   UNL     1       7.019   5.595  15.868  0.00  0.00    +0.000 A 
ATOM     10  N   UNL     1       7.204   5.168  14.604  0.00  0.00    +0.000 NA
ATOM     11  H   UNL     1       6.877   4.499  12.448  0.00  0.00    +0.000 HD
ATOM     12  H   UNL     1       5.744   5.504  18.765  0.00  0.00    +0.000 HD
ENDROOT
BRANCH   1  13
ATOM     13  CA  UNL     1       5.425   2.976  12.427  0.00  0.00    +0.000 C 
BRANCH  13  15
ATOM     14  C   UNL     1       7.271   1.780  11.050  0.00  0.00    +0.000 C 
ATOM     15  C   UNL     1       5.816   1.809  11.492  0.00  0.00    +0.000 C 
ENDBRANCH  13  15
BRANCH  13  16
ATOM     16  C   UNL     1       4.525   3.967  11.643  0.00  0.00    +0.000 C 
BRANCH  16  17
ATOM     17  O   UNL     1       3.657   3.297  10.726  0.00  0.00    +0.000 OA
ATOM     18  H   UNL     1       3.276   2.526  11.175  0.00  0.00    +0.000 HD
ENDBRANCH  16  17
ENDBRANCH  13  16
ENDBRANCH   1  13
BRANCH   4  19
ATOM     19  O   UNL     1       4.674   3.198  17.250  0.00  0.00    +0.000 OA
BRANCH  19  20
ATOM     20  C   UNL     1       3.362   3.755  17.213  0.00  0.00    +0.000 C 
BRANCH  20  21
ATOM     21  C   UNL     1       2.377   2.699  17.752  0.00  0.00    +0.000 C 
ATOM     22  C   UNL     1       3.037   1.798  18.803  0.00  0.00    +0.000 C 
ATOM     23  C   UNL     1       3.353   2.546  20.098  0.00  0.00    +0.000 C 
ATOM     24  C   UNL     1       2.141   3.288  20.661  0.00  0.00    +0.000 C 
ATOM     25  C   UNL     1       1.394   4.121  19.620  0.00  0.00    +0.000 C 
ATOM     26  C   UNL     1       1.106   3.329  18.347  0.00  0.00    +0.000 C 
ENDBRANCH  20  21
ENDBRANCH  19  20
ENDBRANCH   4  19
TORSDOF 7
ENDMDL
MODEL 2
REMARK VINA RESULT:      -7.4      0.615      1.210
REMARK  Name = 
REMARK  8 active torsions:
REMARK  status: ('A' for Active; 'I' for Inactive)
REMARK    1  A    between atoms: C_1  and  C_2
REMARK    2  A    between atoms: C_2  and  CA_3
REMARK    3  A    between atoms: CA_3  and  C_4
REMARK    4  A    between atoms: CA_3  and  N_6
REMARK    5  A    between atoms: C_4  and  O_5
REMARK    6  A    between atoms: C_9  and  O_10
REMARK    7  A    between atoms: O_10  and  C_11
REMARK    8  A    between atoms: C_11  and  C_12
REMARK                            x       y       z     vdW  Elec       q    Type
REMARK                         _______ _______ _______ _____ _____    ______ ____
ROOT
ATOM      1  N   UNL     1       6.654   3.683  12.986  0.00  0.00    +0.000 N 
ATOM      2  C   UNL     1       6.568   4.089  14.328  0.00  0.00    +0.000 A 
ATOM      3  N   UNL     1       5.794   3.374  15.175  0.00  0.00    +0.000 NA
ATOM      4  C   UNL     1       5.618   3.821  16.430  0.00  0.00    +0.000 A 
ATOM      5  C   UNL     1       6.250   4.975  16.804  0.00  0.00    +0.000 A 
ATOM      6  N   UNL     1       6.303   5.713  17.949  0.00  0.00    +0.000 N 
ATOM      7  C   UNL     1       7.136   6.770  17.704  0.00  0.00    +0.000 A 
ATOM      8  N   UNL     1       7.602   6.748  16.472  0.00  0.00    +0.000 NA
ATOM      9  C   UNL     1       7.052   5.630  15.900  0.00  0.00    +0.000 A 
ATOM     10  N   UNL     1       7.228   5.208  14.632  0.00  0.00    +0.000 NA
ATOM     11  H   UNL     1       6.885   4.535  12.481  0.00  0.00    +0.000 HD
ATOM     12  H   UNL     1       5.821   5.508  18.815  0.00  0.00    +0.000 HD
ENDROOT
BRANCH   1  13
ATOM     13  CA  UNL     1       5.466   2.981  12.478  0.00  0.00    +0.000 C 
BRANCH  13  15
ATOM     14  C   UNL     1       7.305   1.830  11.054  0.00  0.00    +0.000 C 
ATOM     15  C   UNL     1       5.870   1.809  11.556  0.00  0.00    +0.000 C 
ENDBRANCH  13  15
BRANCH  13  16
ATOM     16  C   UNL     1       4.546   3.949  11.688  0.00  0.00    +0.000 C 
BRANCH  16  17
ATOM     17  O   UNL     1       3.643   3.250  10.827  0.00  0.00    +0.000 OA
ATOM     18  H   UNL     1       3.819   3.526   9.913  0.00  0.00    +0.000 HD
ENDBRANCH  16  17
ENDBRANCH  13  16
ENDBRANCH   1  13
BRANCH   4  19
ATOM     19  O   UNL     1       4.780   3.181  17.312  0.00  0.00    +0.000 OA
BRANCH  19  20
ATOM     20  C   UNL     1       3.402   3.389  17.011  0.00  0.00    +0.000 C 
BRANCH  20  21
ATOM     21  C   UNL     1       2.800   4.287  18.109  0.00  0.00    +0.000 C 
ATOM     22  C   UNL     1       1.280   4.104  18.216  0.00  0.00    +0.000 C 
ATOM     23  C   UNL     1       0.896   2.729  18.763  0.00  0.00    +0.000 C 
ATOM     24  C   UNL     1       1.606   2.395  20.074  0.00  0.00    +0.000 C 
ATOM     25  C   UNL     1       3.110   2.659  20.042  0.00  0.00    +0.000 C 
ATOM     26  C   UNL     1       3.441   4.043  19.486  0.00  0.00    +0.000 C 
ENDBRANCH  20  21
ENDBRANCH  19  20
ENDBRANCH   4  19
TORSDOF 7
ENDMDL
MODEL 3
REMARK VINA RESULT:      -7.4      1.827      2.131
REMARK  Name = 
REMARK  8 active torsions:
REMARK  status: ('A' for Active; 'I' for Inactive)
REMARK    1  A    between atoms: C_1  and  C_2
REMARK    2  A    between atoms: C_2  and  CA_3
REMARK    3  A    between atoms: CA_3  and  C_4
REMARK    4  A    between atoms: CA_3  and  N_6
REMARK    5  A    between atoms: C_4  and  O_5
REMARK    6  A    between atoms: C_9  and  O_10
REMARK    7  A    between atoms: O_10  and  C_11
REMARK    8  A    between atoms: C_11  and  C_12
REMARK                            x       y       z     vdW  Elec       q    Type
REMARK                         _______ _______ _______ _____ _____    ______ ____
ROOT
ATOM      1  N   UNL     1       7.264   3.837  14.244  0.00  0.00    +0.000 N 
ATOM      2  C   UNL     1       6.779   4.157  15.522  0.00  0.00    +0.000 A 
ATOM      3  N   UNL     1       5.443   4.276  15.700  0.00  0.00    +0.000 NA
ATOM      4  C   UNL     1       4.979   4.692  16.891  0.00  0.00    +0.000 A 
ATOM      5  C   UNL     1       5.882   4.958  17.883  0.00  0.00    +0.000 A 
ATOM      6  N   UNL     1       5.791   5.390  19.173  0.00  0.00    +0.000 N 
ATOM      7  C   UNL     1       7.067   5.445  19.666  0.00  0.00    +0.000 A 
ATOM      8  N   UNL     1       7.954   5.084  18.762  0.00  0.00    +0.000 NA
ATOM      9  C   UNL     1       7.224   4.780  17.642  0.00  0.00    +0.000 A 
ATOM     10  N   UNL     1       7.711   4.380  16.451  0.00  0.00    +0.000 NA
ATOM     11  H   UNL     1       8.207   4.218  14.231  0.00  0.00    +0.000 HD
ATOM     12  H   UNL     1       4.939   5.618  19.668  0.00  0.00    +0.000 HD
ENDROOT
BRANCH   1  13
ATOM     13  CA  UNL     1       6.414   4.288  13.132  0.00  0.00    +0.000 C 
BRANCH  13  15
ATOM     14  C   UNL     1       6.646   2.260  11.530  0.00  0.00    +0.000 C 
ATOM     15  C   UNL     1       5.741   3.087  12.429  0.00  0.00    +0.000 C 
ENDBRANCH  13  15
BRANCH  13  16
ATOM     16  C   UNL     1       7.242   5.082  12.087  0.00  0.00    +0.000 C 
BRANCH  16  17
ATOM     17  O   UNL     1       8.238   5.904  12.701  0.00  0.00    +0.000 OA
ATOM     18  H   UNL     1       7.857   6.784  12.849  0.00  0.00    +0.000 HD
ENDBRANCH  16  17
ENDBRANCH  13  16
ENDBRANCH   1  13
BRANCH   4  19
ATOM     19  O   UNL     1       3.639   4.909  17.106  0.00  0.00    +0.000 OA
BRANCH  19  20
ATOM     20  C   UNL     1       2.975   3.765  17.637  0.00  0.00    +0.000 C 
BRANCH  20  21
ATOM     21  C   UNL     1       1.656   4.233  18.285  0.00  0.00    +0.000 C 
ATOM     22  C   UNL     1       0.814   3.045  18.769  0.00  0.00    +0.000 C 
ATOM     23  C   UNL     1       1.449   2.325  19.958  0.00  0.00    +0.000 C 
ATOM     24  C   UNL     1       1.807   3.276  21.100  0.00  0.00    +0.000 C 
ATOM     25  C   UNL     1       2.561   4.524  20.646  0.00  0.00    +0.000 C 
ATOM     26  C   UNL     1       1.888   5.203  19.456  0.00  0.00    +0.000 C 
ENDBRANCH  20  21
ENDBRANCH  19  20
ENDBRANCH   4  19
TORSDOF 7
ENDMDL
MODEL 4
REMARK VINA RESULT:      -7.4      1.830      2.092
REMARK  Name = 
REMARK  8 active torsions:
REMARK  status: ('A' for Active; 'I' for Inactive)
REMARK    1  A    between atoms: C_1  and  C_2
REMARK    2  A    between atoms: C_2  and  CA_3
REMARK    3  A    between atoms: CA_3  and  C_4
REMARK    4  A    between atoms: CA_3  and  N_6
REMARK    5  A    between atoms: C_4  and  O_5
REMARK    6  A    between atoms: C_9  and  O_10
REMARK    7  A    between atoms: O_10  and  C_11
REMARK    8  A    between atoms: C_11  and  C_12
REMARK                            x       y       z     vdW  Elec       q    Type
REMARK                         _______ _______ _______ _____ _____    ______ ____
ROOT
ATOM      1  N   UNL     1       7.061   3.643  14.246  0.00  0.00    +0.000 N 
ATOM      2  C   UNL     1       6.669   4.125  15.506  0.00  0.00    +0.000 A 
ATOM      3  N   UNL     1       5.387   4.519  15.682  0.00  0.00    +0.000 NA
ATOM      4  C   UNL     1       5.035   5.085  16.848  0.00  0.00    +0.000 A 
ATOM      5  C   UNL     1       5.988   5.218  17.820  0.00  0.00    +0.000 A 
ATOM      6  N   UNL     1       6.005   5.729  19.085  0.00  0.00    +0.000 N 
ATOM      7  C   UNL     1       7.272   5.553  19.569  0.00  0.00    +0.000 A 
ATOM      8  N   UNL     1       8.056   4.972  18.684  0.00  0.00    +0.000 NA
ATOM      9  C   UNL     1       7.262   4.761  17.585  0.00  0.00    +0.000 A 
ATOM     10  N   UNL     1       7.641   4.206  16.418  0.00  0.00    +0.000 NA
ATOM     11  H   UNL     1       8.061   3.825  14.209  0.00  0.00    +0.000 HD
ATOM     12  H   UNL     1       5.223   6.151  19.569  0.00  0.00    +0.000 HD
ENDROOT
BRANCH   1  13
ATOM     13  CA  UNL     1       6.302   4.194  13.114  0.00  0.00    +0.000 C 
BRANCH  13  15
ATOM     14  C   UNL     1       4.353   3.370  11.612  0.00  0.00    +0.000 C 
ATOM     15  C   UNL     1       5.699   3.063  12.250  0.00  0.00    +0.000 C 
ENDBRANCH  13  15
BRANCH  13  16
ATOM     16  C   UNL     1       7.207   5.082  12.219  0.00  0.00    +0.000 C 
BRANCH  16  17
ATOM     17  O   UNL     1       8.232   5.736  12.970  0.00  0.00    +0.000 OA
ATOM     18  H   UNL     1       8.167   5.444  13.894  0.00  0.00    +0.000 HD
ENDBRANCH  16  17
ENDBRANCH  13  16
ENDBRANCH   1  13
BRANCH   4  19
ATOM     19  O   UNL     1       3.769   5.579  17.056  0.00  0.00    +0.000 OA
BRANCH  19  20
ATOM     20  C   UNL     1       3.175   5.086  18.255  0.00  0.00    +0.000 C 
BRANCH  20  21
ATOM     21  C   UNL     1       2.623   3.674  17.972  0.00  0.00    +0.000 C 
ATOM     22  C   UNL     1       3.457   2.593  18.672  0.00  0.00    +0.000 C 
ATOM     23  C   UNL     1       3.306   2.633  20.193  0.00  0.00    +0.000 C 
ATOM     24  C   UNL     1       1.846   2.609  20.641  0.00  0.00    +0.000 C 
ATOM     25  C   UNL     1       0.958   3.604  19.896  0.00  0.00    +0.000 C 
ATOM     26  C   UNL     1       1.148   3.526  18.383  0.00  0.00    +0.000 C 
ENDBRANCH  20  21
ENDBRANCH  19  20
ENDBRANCH   4  19
TORSDOF 7
ENDMDL
MODEL 5
REMARK VINA RESULT:      -7.2      1.808      5.111
REMARK  Name = 
REMARK  8 active torsions:
REMARK  status: ('A' for Active; 'I' for Inactive)
REMARK    1  A    between atoms: C_1  and  C_2
REMARK    2  A    between atoms: C_2  and  CA_3
REMARK    3  A    between atoms: CA_3  and  C_4
REMARK    4  A    between atoms: CA_3  and  N_6
REMARK    5  A    between atoms: C_4  and  O_5
REMARK    6  A    between atoms: C_9  and  O_10
REMARK    7  A    between atoms: O_10  and  C_11
REMARK    8  A    between atoms: C_11  and  C_12
REMARK                            x       y       z     vdW  Elec       q    Type
REMARK                         _______ _______ _______ _____ _____    ______ ____
ROOT
ATOM      1  N   UNL     1       7.666   6.981  16.669  0.00  0.00    +0.000 N 
ATOM      2  C   UNL     1       6.923   6.038  15.940  0.00  0.00    +0.000 A 
ATOM      3  N   UNL     1       5.800   5.526  16.494  0.00  0.00    +0.000 NA
ATOM      4  C   UNL     1       5.148   4.543  15.851  0.00  0.00    +0.000 A 
ATOM      5  C   UNL     1       5.638   4.116  14.648  0.00  0.00    +0.000 A 
ATOM      6  N   UNL     1       5.264   3.169  13.740  0.00  0.00    +0.000 N 
ATOM      7  C   UNL     1       6.160   3.231  12.708  0.00  0.00    +0.000 A 
ATOM      8  N   UNL     1       7.080   4.150  12.915  0.00  0.00    +0.000 NA
ATOM      9  C   UNL     1       6.765   4.708  14.128  0.00  0.00    +0.000 A 
ATOM     10  N   UNL     1       7.443   5.683  14.763  0.00  0.00    +0.000 NA
ATOM     11  H   UNL     1       8.611   6.890  16.305  0.00  0.00    +0.000 HD
ATOM     12  H   UNL     1       4.470   2.548  13.818  0.00  0.00    +0.000 HD
ENDROOT
BRANCH   1  13
ATOM     13  CA  UNL     1       7.564   6.848  18.130  0.00  0.00    +0.000 C 
BRANCH  13  15
ATOM     14  C   UNL     1       8.446   9.286  18.231  0.00  0.00    +0.000 C 
ATOM     15  C   UNL     1       8.450   7.894  18.843  0.00  0.00    +0.000 C 
ENDBRANCH  13  15
BRANCH  13  16
ATOM     16  C   UNL     1       7.993   5.429  18.590  0.00  0.00    +0.000 C 
BRANCH  16  17
ATOM     17  O   UNL     1       8.319   5.389  19.981  0.00  0.00    +0.000 OA
ATOM     18  H   UNL     1       7.849   6.114  20.424  0.00  0.00    +0.000 HD
ENDBRANCH  16  17
ENDBRANCH  13  16
ENDBRANCH   1  13
BRANCH   4  19
ATOM     19  O   UNL     1       4.048   3.928  16.401  0.00  0.00    +0.000 OA
BRANCH  19  20
ATOM     20  C   UNL     1       3.878   4.237  17.782  0.00  0.00    +0.000 C 
BRANCH  20  21
ATOM     21  C   UNL     1       2.558   5.017  17.941  0.00  0.00    +0.000 C 
ATOM     22  C   UNL     1       1.340   4.120  17.680  0.00  0.00    +0.000 C 
ATOM     23  C   UNL     1       1.151   3.062  18.767  0.00  0.00    +0.000 C 
ATOM     24  C   UNL     1       1.131   3.658  20.173  0.00  0.00    +0.000 C 
ATOM     25  C   UNL     1       2.274   4.636  20.442  0.00  0.00    +0.000 C 
ATOM     26  C   UNL     1       2.422   5.669  19.327  0.00  0.00    +0.000 C 
ENDBRANCH  20  21
ENDBRANCH  19  20
ENDBRANCH   4  19
TORSDOF 7
ENDMDL
MODEL 6
REMARK VINA RESULT:      -7.2      1.896      2.349
REMARK  Name = 
REMARK  8 active torsions:
REMARK  status: ('A' for Active; 'I' for Inactive)
REMARK    1  A    between atoms: C_1  and  C_2
REMARK    2  A    between atoms: C_2  and  CA_3
REMARK    3  A    between atoms: CA_3  and  C_4
REMARK    4  A    between atoms: CA_3  and  N_6
REMARK    5  A    between atoms: C_4  and  O_5
REMARK    6  A    between atoms: C_9  and  O_10
REMARK    7  A    between atoms: O_10  and  C_11
REMARK    8  A    between atoms: C_11  and  C_12
REMARK                            x       y       z     vdW  Elec       q    Type
REMARK                         _______ _______ _______ _____ _____    ______ ____
ROOT
ATOM      1  N   UNL     1       6.875   3.611  14.412  0.00  0.00    +0.000 N 
ATOM      2  C   UNL     1       6.591   4.113  15.692  0.00  0.00    +0.000 A 
ATOM      3  N   UNL     1       5.341   4.559  15.954  0.00  0.00    +0.000 NA
ATOM      4  C   UNL     1       5.093   5.143  17.138  0.00  0.00    +0.000 A 
ATOM      5  C   UNL     1       6.116   5.244  18.040  0.00  0.00    +0.000 A 
ATOM      6  N   UNL     1       6.242   5.760  19.296  0.00  0.00    +0.000 N 
ATOM      7  C   UNL     1       7.532   5.537  19.692  0.00  0.00    +0.000 A 
ATOM      8  N   UNL     1       8.228   4.921  18.759  0.00  0.00    +0.000 NA
ATOM      9  C   UNL     1       7.353   4.735  17.720  0.00  0.00    +0.000 A 
ATOM     10  N   UNL     1       7.627   4.161  16.533  0.00  0.00    +0.000 NA
ATOM     11  H   UNL     1       7.877   3.753  14.303  0.00  0.00    +0.000 HD
ATOM     12  H   UNL     1       5.512   6.215  19.830  0.00  0.00    +0.000 HD
ENDROOT
BRANCH   1  13
ATOM     13  CA  UNL     1       6.061   4.185  13.331  0.00  0.00    +0.000 C 
BRANCH  13  15
ATOM     14  C   UNL     1       4.510   3.433  11.391  0.00  0.00    +0.000 C 
ATOM     15  C   UNL     1       5.061   3.144  12.779  0.00  0.00    +0.000 C 
ENDBRANCH  13  15
BRANCH  13  16
ATOM     16  C   UNL     1       6.958   4.686  12.167  0.00  0.00    +0.000 C 
BRANCH  16  17
ATOM     17  O   UNL     1       7.945   5.620  12.612  0.00  0.00    +0.000 OA
ATOM     18  H   UNL     1       7.853   6.432  12.088  0.00  0.00    +0.000 HD
ENDBRANCH  16  17
ENDBRANCH  13  16
ENDBRANCH   1  13
BRANCH   4  19
ATOM     19  O   UNL     1       3.865   5.688  17.429  0.00  0.00    +0.000 OA
BRANCH  19  20
ATOM     20  C   UNL     1       2.860   4.699  17.636  0.00  0.00    +0.000 C 
BRANCH  20  21
ATOM     21  C   UNL     1       3.256   3.862  18.869  0.00  0.00    +0.000 C 
ATOM     22  C   UNL     1       2.727   4.487  20.167  0.00  0.00    +0.000 C 
ATOM     23  C   UNL     1       1.204   4.407  20.275  0.00  0.00    +0.000 C 
ATOM     24  C   UNL     1       0.671   2.991  20.063  0.00  0.00    +0.000 C 
ATOM     25  C   UNL     1       1.251   2.294  18.834  0.00  0.00    +0.000 C 
ATOM     26  C   UNL     1       2.773   2.405  18.772  0.00  0.00    +0.000 C 
ENDBRANCH  20  21
ENDBRANCH  19  20
ENDBRANCH   4  19
TORSDOF 7
ENDMDL
MODEL 7
REMARK VINA RESULT:      -7.1      1.932      2.346
REMARK  Name = 
REMARK  8 active torsions:
REMARK  status: ('A' for Active; 'I' for Inactive)
REMARK    1  A    between atoms: C_1  and  C_2
REMARK    2  A    between atoms: C_2  and  CA_3
REMARK    3  A    between atoms: CA_3  and  C_4
REMARK    4  A    between atoms: CA_3  and  N_6
REMARK    5  A    between atoms: C_4  and  O_5
REMARK    6  A    between atoms: C_9  and  O_10
REMARK    7  A    between atoms: O_10  and  C_11
REMARK    8  A    between atoms: C_11  and  C_12
REMARK                            x       y       z     vdW  Elec       q    Type
REMARK                         _______ _______ _______ _____ _____    ______ ____
ROOT
ATOM      1  N   UNL     1       7.043   3.755  14.396  0.00  0.00    +0.000 N 
ATOM      2  C   UNL     1       6.713   4.198  15.686  0.00  0.00    +0.000 A 
ATOM      3  N   UNL     1       5.448   4.610  15.929  0.00  0.00    +0.000 NA
ATOM      4  C   UNL     1       5.155   5.141  17.128  0.00  0.00    +0.000 A 
ATOM      5  C   UNL     1       6.149   5.222  18.064  0.00  0.00    +0.000 A 
ATOM      6  N   UNL     1       6.228   5.687  19.343  0.00  0.00    +0.000 N 
ATOM      7  C   UNL     1       7.511   5.471  19.767  0.00  0.00    +0.000 A 
ATOM      8  N   UNL     1       8.245   4.907  18.831  0.00  0.00    +0.000 NA
ATOM      9  C   UNL     1       7.404   4.749  17.760  0.00  0.00    +0.000 A 
ATOM     10  N   UNL     1       7.723   4.229  16.559  0.00  0.00    +0.000 NA
ATOM     11  H   UNL     1       8.045   3.919  14.323  0.00  0.00    +0.000 HD
ATOM     12  H   UNL     1       5.475   6.106  19.873  0.00  0.00    +0.000 HD
ENDROOT
BRANCH   1  13
ATOM     13  CA  UNL     1       6.250   4.359  13.315  0.00  0.00    +0.000 C 
BRANCH  13  15
ATOM     14  C   UNL     1       6.049   2.342  11.695  0.00  0.00    +0.000 C 
ATOM     15  C   UNL     1       5.345   3.306  12.638  0.00  0.00    +0.000 C 
ENDBRANCH  13  15
BRANCH  13  16
ATOM     16  C   UNL     1       7.171   4.997  12.241  0.00  0.00    +0.000 C 
BRANCH  16  17
ATOM     17  O   UNL     1       8.205   5.794  12.821  0.00  0.00    +0.000 OA
ATOM     18  H   UNL     1       7.880   6.706  12.897  0.00  0.00    +0.000 HD
ENDBRANCH  16  17
ENDBRANCH  13  16
ENDBRANCH   1  13
BRANCH   4  19
ATOM     19  O   UNL     1       3.908   5.650  17.405  0.00  0.00    +0.000 OA
BRANCH  19  20
ATOM     20  C   UNL     1       3.426   5.258  18.688  0.00  0.00    +0.000 C 
BRANCH  20  21
ATOM     21  C   UNL     1       1.930   4.913  18.554  0.00  0.00    +0.000 C 
ATOM     22  C   UNL     1       1.694   3.838  17.484  0.00  0.00    +0.000 C 
ATOM     23  C   UNL     1       2.242   2.473  17.898  0.00  0.00    +0.000 C 
ATOM     24  C   UNL     1       1.744   2.030  19.273  0.00  0.00    +0.000 C 
ATOM     25  C   UNL     1       1.868   3.108  20.348  0.00  0.00    +0.000 C 
ATOM     26  C   UNL     1       1.310   4.451  19.884  0.00  0.00    +0.000 C 
ENDBRANCH  20  21
ENDBRANCH  19  20
ENDBRANCH   4  19
TORSDOF 7
ENDMDL
MODEL 8
REMARK VINA RESULT:      -7.0      3.226      5.502
REMARK  Name = 
REMARK  8 active torsions:
REMARK  status: ('A' for Active; 'I' for Inactive)
REMARK    1  A    between atoms: C_1  and  C_2
REMARK    2  A    between atoms: C_2  and  CA_3
REMARK    3  A    between atoms: CA_3  and  C_4
REMARK    4  A    between atoms: CA_3  and  N_6
REMARK    5  A    between atoms: C_4  and  O_5
REMARK    6  A    between atoms: C_9  and  O_10
REMARK    7  A    between atoms: O_10  and  C_11
REMARK    8  A    between atoms: C_11  and  C_12
REMARK                            x       y       z     vdW  Elec       q    Type
REMARK                         _______ _______ _______ _____ _____    ______ ____
ROOT
ATOM      1  N   UNL     1       3.342   8.133  17.719  0.00  0.00    +0.000 N 
ATOM      2  C   UNL     1       4.088   6.972  17.460  0.00  0.00    +0.000 A 
ATOM      3  N   UNL     1       3.433   5.799  17.307  0.00  0.00    +0.000 NA
ATOM      4  C   UNL     1       4.146   4.668  17.172  0.00  0.00    +0.000 A 
ATOM      5  C   UNL     1       5.511   4.757  17.174  0.00  0.00    +0.000 A 
ATOM      6  N   UNL     1       6.531   3.858  17.069  0.00  0.00    +0.000 N 
ATOM      7  C   UNL     1       7.697   4.572  17.120  0.00  0.00    +0.000 A 
ATOM      8  N   UNL     1       7.474   5.862  17.259  0.00  0.00    +0.000 NA
ATOM      9  C   UNL     1       6.109   5.988  17.297  0.00  0.00    +0.000 A 
ATOM     10  N   UNL     1       5.413   7.131  17.450  0.00  0.00    +0.000 NA
ATOM     11  H   UNL     1       3.991   8.744  18.210  0.00  0.00    +0.000 HD
ATOM     12  H   UNL     1       6.436   2.856  16.967  0.00  0.00    +0.000 HD
ENDROOT
BRANCH   1  13
ATOM     13  CA  UNL     1       2.073   7.905  18.426  0.00  0.00    +0.000 C 
BRANCH  13  15
ATOM     14  C   UNL     1       1.968  10.469  18.042  0.00  0.00    +0.000 C 
ATOM     15  C   UNL     1       1.301   9.230  18.619  0.00  0.00    +0.000 C 
ENDBRANCH  13  15
BRANCH  13  16
ATOM     16  C   UNL     1       2.320   7.261  19.816  0.00  0.00    +0.000 C 
BRANCH  16  17
ATOM     17  O   UNL     1       1.814   8.068  20.881  0.00  0.00    +0.000 OA
ATOM     18  H   UNL     1       2.289   8.915  20.874  0.00  0.00    +0.000 HD
ENDBRANCH  16  17
ENDBRANCH  13  16
ENDBRANCH   1  13
BRANCH   4  19
ATOM     19  O   UNL     1       3.538   3.438  17.093  0.00  0.00    +0.000 OA
BRANCH  19  20
ATOM     20  C   UNL     1       2.156   3.483  17.441  0.00  0.00    +0.000 C 
BRANCH  20  21
ATOM     21  C   UNL     1       1.851   2.282  18.357  0.00  0.00    +0.000 C 
ATOM     22  C   UNL     1       3.063   1.914  19.224  0.00  0.00    +0.000 C 
ATOM     23  C   UNL     1       3.369   2.976  20.279  0.00  0.00    +0.000 C 
ATOM     24  C   UNL     1       2.149   3.337  21.125  0.00  0.00    +0.000 C 
ATOM     25  C   UNL     1       0.892   3.614  20.302  0.00  0.00    +0.000 C 
ATOM     26  C   UNL     1       0.632   2.526  19.263  0.00  0.00    +0.000 C 
ENDBRANCH  20  21
ENDBRANCH  19  20
ENDBRANCH   4  19
TORSDOF 7
ENDMDL
MODEL 9
REMARK VINA RESULT:      -7.0      1.630      5.004
REMARK  Name = 
REMARK  8 active torsions:
REMARK  status: ('A' for Active; 'I' for Inactive)
REMARK    1  A    between atoms: C_1  and  C_2
REMARK    2  A    between atoms: C_2  and  CA_3
REMARK    3  A    between atoms: CA_3  and  C_4
REMARK    4  A    between atoms: CA_3  and  N_6
REMARK    5  A    between atoms: C_4  and  O_5
REMARK    6  A    between atoms: C_9  and  O_10
REMARK    7  A    between atoms: O_10  and  C_11
REMARK    8  A    between atoms: C_11  and  C_12
REMARK                            x       y       z     vdW  Elec       q    Type
REMARK                         _______ _______ _______ _____ _____    ______ ____
ROOT
ATOM      1  N   UNL     1       7.640   6.876  16.582  0.00  0.00    +0.000 N 
ATOM      2  C   UNL     1       6.907   5.957  15.814  0.00  0.00    +0.000 A 
ATOM      3  N   UNL     1       5.761   5.452  16.323  0.00  0.00    +0.000 NA
ATOM      4  C   UNL     1       5.115   4.489  15.644  0.00  0.00    +0.000 A 
ATOM      5  C   UNL     1       5.638   4.075  14.450  0.00  0.00    +0.000 A 
ATOM      6  N   UNL     1       5.280   3.149  13.514  0.00  0.00    +0.000 N 
ATOM      7  C   UNL     1       6.209   3.215  12.512  0.00  0.00    +0.000 A 
ATOM      8  N   UNL     1       7.135   4.117  12.764  0.00  0.00    +0.000 NA
ATOM      9  C   UNL     1       6.788   4.659  13.975  0.00  0.00    +0.000 A 
ATOM     10  N   UNL     1       7.460   5.613  14.649  0.00  0.00    +0.000 NA
ATOM     11  H   UNL     1       8.595   6.778  16.247  0.00  0.00    +0.000 HD
ATOM     12  H   UNL     1       4.474   2.539  13.556  0.00  0.00    +0.000 HD
ENDROOT
BRANCH   1  13
ATOM     13  CA  UNL     1       7.490   6.721  18.036  0.00  0.00    +0.000 C 
BRANCH  13  15
ATOM     14  C   UNL     1       8.384   9.155  18.142  0.00  0.00    +0.000 C 
ATOM     15  C   UNL     1       8.320   7.782  18.794  0.00  0.00    +0.000 C 
ENDBRANCH  13  15
BRANCH  13  16
ATOM     16  C   UNL     1       7.943   5.309  18.494  0.00  0.00    +0.000 C 
BRANCH  16  17
ATOM     17  O   UNL     1       8.296   5.278  19.878  0.00  0.00    +0.000 OA
ATOM     18  H   UNL     1       7.484   5.157  20.397  0.00  0.00    +0.000 HD
ENDBRANCH  16  17
ENDBRANCH  13  16
ENDBRANCH   1  13
BRANCH   4  19
ATOM     19  O   UNL     1       3.990   3.881  16.148  0.00  0.00    +0.000 OA
BRANCH  19  20
ATOM     20  C   UNL     1       3.681   4.308  17.473  0.00  0.00    +0.000 C 
BRANCH  20  21
ATOM     21  C   UNL     1       3.615   3.061  18.376  0.00  0.00    +0.000 C 
ATOM     22  C   UNL     1       3.676   3.439  19.862  0.00  0.00    +0.000 C 
ATOM     23  C   UNL     1       2.417   4.168  20.331  0.00  0.00    +0.000 C 
ATOM     24  C   UNL     1       1.135   3.412  19.985  0.00  0.00    +0.000 C 
ATOM     25  C   UNL     1       1.079   2.929  18.537  0.00  0.00    +0.000 C 
ATOM     26  C   UNL     1       2.359   2.211  18.118  0.00  0.00    +0.000 C 
ENDBRANCH  20  21
ENDBRANCH  19  20
ENDBRANCH   4  19
TORSDOF 7
ENDMDL
