MODEL 1
REMARK VINA RESULT:      -8.1      0.000      0.000
REMARK  Name = 
REMARK  5 active torsions:
REMARK  status: ('A' for Active; 'I' for Inactive)
REMARK    1  A    between atoms: C_1  and  N_2
REMARK    2  A    between atoms: N_2  and  C_3
REMARK    3  A    between atoms: C_3  and  C_4
REMARK    4  A    between atoms: C_7  and  C_8
REMARK    5  A    between atoms: C_15  and  C_17
REMARK                            x       y       z     vdW  Elec       q    Type
REMARK                         _______ _______ _______ _____ _____    ______ ____
ROOT
ATOM      1  C   UNL     1       3.264   7.816  17.565  0.00  0.00    +0.000 C 
ATOM      2  N   UNL     1       3.950   6.550  17.330  0.00  0.00    +0.000 N 
ATOM      3  C   UNL     1       3.165   5.418  17.532  0.00  0.00    +0.000 C 
ATOM      4  O   UNL     1       1.968   5.559  17.823  0.00  0.00    +0.000 OA
ENDROOT
BRANCH   3   5
ATOM      5  C   UNL     1       3.723   3.988  17.244  0.00  0.00    +0.000 C 
ATOM      6  C   UNL     1       2.569   2.967  17.281  0.00  0.00    +0.000 C 
ATOM      7  C   UNL     1       2.109   2.831  18.715  0.00  0.00    +0.000 A 
ATOM      8  C   UNL     1       0.753   2.768  19.050  0.00  0.00    +0.000 A 
ATOM      9  C   UNL     1       0.374   2.762  20.392  0.00  0.00    +0.000 A 
ATOM     10  C   UNL     1       1.340   2.789  21.403  0.00  0.00    +0.000 A 
ATOM     11  C   UNL     1       2.695   2.813  21.077  0.00  0.00    +0.000 A 
ATOM     12  C   UNL     1       3.076   2.849  19.737  0.00  0.00    +0.000 A 
ATOM     13  C   UNL     1       4.511   2.992  19.380  0.00  0.00    +0.000 C 
ATOM     14  O   UNL     1       5.408   2.640  20.135  0.00  0.00    +0.000 OA
ATOM     15  N   UNL     1       4.779   3.531  18.144  0.00  0.00    +0.000 N 
ATOM     16  H   UNL     1       5.761   3.635  17.928  0.00  0.00    +0.000 HD
ENDBRANCH   3   5
BRANCH   2  17
ATOM     17  C   UNL     1       5.156   6.578  16.501  0.00  0.00    +0.000 C 
BRANCH  17  18
ATOM     18  C   UNL     1       6.367   6.980  17.292  0.00  0.00    +0.000 A 
ATOM     19  C   UNL     1       7.120   6.146  18.097  0.00  0.00    +0.000 A 
ATOM     20  S   UNL     1       8.410   7.005  18.804  0.00  0.00    +0.000 S 
ATOM     21  C   UNL     1       7.864   8.464  18.054  0.00  0.00    +0.000 A 
ATOM     22  N   UNL     1       6.792   8.306  17.294  0.00  0.00    +0.000 NA
BRANCH  21  23
ATOM     23  C   UNL     1       8.540   9.757  18.310  0.00  0.00    +0.000 A 
ATOM     24  C   UNL     1       9.468   9.950  19.351  0.00  0.00    +0.000 A 
ATOM     25  C   UNL     1      10.047  11.202  19.589  0.00  0.00    +0.000 A 
ATOM     26  C   UNL     1       9.711  12.287  18.787  0.00  0.00    +0.000 A 
ATOM     27  C   UNL     1       8.807  12.120  17.740  0.00  0.00    +0.000 A 
ATOM     28  C   UNL     1       8.230  10.867  17.505  0.00  0.00    +0.000 A 
ENDBRANCH  21  23
ENDBRANCH  17  18
ENDBRANCH   2  17
TORSDOF 4
ENDMDL
MODEL 2
REMARK VINA RESULT:      -7.8      4.915      7.413
REMARK  Name = 
REMARK  5 active torsions:
REMARK  status: ('A' for Active; 'I' for Inactive)
REMARK    1  A    between atoms: C_1  and  N_2
REMARK    2  A    between atoms: N_2  and  C_3
REMARK    3  A    between atoms: C_3  and  C_4
REMARK    4  A    between atoms: C_7  and  C_8
REMARK    5  A    between atoms: C_15  and  C_17
REMARK                            x       y       z     vdW  Elec       q    Type
REMARK                         _______ _______ _______ _____ _____    ______ ____
ROOT
ATOM      1  C   UNL     1       1.088   8.507  20.568  0.00  0.00    +0.000 C 
ATOM      2  N   UNL     1       1.997   8.196  19.470  0.00  0.00    +0.000 N 
ATOM      3  C   UNL     1       2.566   6.926  19.530  0.00  0.00    +0.000 C 
ATOM      4  O   UNL     1       2.227   6.155  20.439  0.00  0.00    +0.000 OA
ENDROOT
BRANCH   3   5
ATOM      5  C   UNL     1       3.498   6.405  18.389  0.00  0.00    +0.000 C 
ATOM      6  C   UNL     1       2.692   5.494  17.442  0.00  0.00    +0.000 C 
ATOM      7  C   UNL     1       2.374   4.214  18.182  0.00  0.00    +0.000 A 
ATOM      8  C   UNL     1       1.115   3.610  18.100  0.00  0.00    +0.000 A 
ATOM      9  C   UNL     1       0.832   2.498  18.892  0.00  0.00    +0.000 A 
ATOM     10  C   UNL     1       1.804   1.966  19.744  0.00  0.00    +0.000 A 
ATOM     11  C   UNL     1       3.074   2.539  19.804  0.00  0.00    +0.000 A 
ATOM     12  C   UNL     1       3.350   3.668  19.035  0.00  0.00    +0.000 A 
ATOM     13  C   UNL     1       4.661   4.356  19.177  0.00  0.00    +0.000 C 
ATOM     14  O   UNL     1       5.662   3.773  19.571  0.00  0.00    +0.000 OA
ATOM     15  N   UNL     1       4.690   5.685  18.828  0.00  0.00    +0.000 N 
ATOM     16  H   UNL     1       5.586   6.138  18.948  0.00  0.00    +0.000 HD
ENDBRANCH   3   5
BRANCH   2  17
ATOM     17  C   UNL     1       1.871   8.984  18.244  0.00  0.00    +0.000 C 
BRANCH  17  18
ATOM     18  C   UNL     1       0.943  10.151  18.423  0.00  0.00    +0.000 A 
ATOM     19  C   UNL     1       1.270  11.360  19.007  0.00  0.00    +0.000 A 
ATOM     20  S   UNL     1      -0.073  12.407  19.000  0.00  0.00    +0.000 S 
ATOM     21  C   UNL     1      -1.045  11.173  18.279  0.00  0.00    +0.000 A 
ATOM     22  N   UNL     1      -0.389  10.051  18.031  0.00  0.00    +0.000 NA
BRANCH  21  23
ATOM     23  C   UNL     1      -2.490  11.384  18.025  0.00  0.00    +0.000 A 
ATOM     24  C   UNL     1      -3.381  11.873  19.000  0.00  0.00    +0.000 A 
ATOM     25  C   UNL     1      -4.748  12.011  18.734  0.00  0.00    +0.000 A 
ATOM     26  C   UNL     1      -5.252  11.664  17.486  0.00  0.00    +0.000 A 
ATOM     27  C   UNL     1      -4.390  11.192  16.498  0.00  0.00    +0.000 A 
ATOM     28  C   UNL     1      -3.024  11.055  16.767  0.00  0.00    +0.000 A 
ENDBRANCH  21  23
ENDBRANCH  17  18
ENDBRANCH   2  17
TORSDOF 4
ENDMDL
MODEL 3
REMARK VINA RESULT:      -7.7      3.830      6.571
REMARK  Name = 
REMARK  5 active torsions:
REMARK  status: ('A' for Active; 'I' for Inactive)
REMARK    1  A    between atoms: C_1  and  N_2
REMARK    2  A    between atoms: N_2  and  C_3
REMARK    3  A    between atoms: C_3  and  C_4
REMARK    4  A    between atoms: C_7  and  C_8
REMARK    5  A    between atoms: C_15  and  C_17
REMARK                            x       y       z     vdW  Elec       q    Type
REMARK                         _______ _______ _______ _____ _____    ______ ____
ROOT
ATOM      1  C   UNL     1       2.046   4.292  18.638  0.00  0.00    +0.000 C 
ATOM      2  N   UNL     1       3.084   5.316  18.709  0.00  0.00    +0.000 N 
ATOM      3  C   UNL     1       4.370   4.825  18.918  0.00  0.00    +0.000 C 
ATOM      4  O   UNL     1       4.547   3.599  18.964  0.00  0.00    +0.000 OA
ENDROOT
BRANCH   3   5
ATOM      5  C   UNL     1       5.605   5.782  18.937  0.00  0.00    +0.000 C 
ATOM      6  C   UNL     1       5.576   6.684  17.687  0.00  0.00    +0.000 C 
ATOM      7  C   UNL     1       5.878   5.824  16.482  0.00  0.00    +0.000 A 
ATOM      8  C   UNL     1       5.170   5.962  15.283  0.00  0.00    +0.000 A 
ATOM      9  C   UNL     1       5.402   5.068  14.238  0.00  0.00    +0.000 A 
ATOM     10  C   UNL     1       6.356   4.055  14.369  0.00  0.00    +0.000 A 
ATOM     11  C   UNL     1       7.093   3.932  15.547  0.00  0.00    +0.000 A 
ATOM     12  C   UNL     1       6.842   4.806  16.603  0.00  0.00    +0.000 A 
ATOM     13  C   UNL     1       7.538   4.614  17.902  0.00  0.00    +0.000 C 
ATOM     14  O   UNL     1       8.617   4.042  17.984  0.00  0.00    +0.000 OA
ATOM     15  N   UNL     1       6.908   5.127  19.010  0.00  0.00    +0.000 N 
ATOM     16  H   UNL     1       7.390   4.971  19.886  0.00  0.00    +0.000 HD
ENDBRANCH   3   5
BRANCH   2  17
ATOM     17  C   UNL     1       2.787   6.621  18.117  0.00  0.00    +0.000 C 
BRANCH  17  18
ATOM     18  C   UNL     1       2.121   7.540  19.100  0.00  0.00    +0.000 A 
ATOM     19  C   UNL     1       1.906   7.272  20.439  0.00  0.00    +0.000 A 
ATOM     20  S   UNL     1       1.127   8.587  21.192  0.00  0.00    +0.000 S 
ATOM     21  C   UNL     1       1.054   9.423  19.680  0.00  0.00    +0.000 A 
ATOM     22  N   UNL     1       1.609   8.763  18.677  0.00  0.00    +0.000 NA
BRANCH  21  23
ATOM     23  C   UNL     1       0.376  10.735  19.562  0.00  0.00    +0.000 A 
ATOM     24  C   UNL     1      -0.712  10.967  18.697  0.00  0.00    +0.000 A 
ATOM     25  C   UNL     1      -1.292  12.235  18.579  0.00  0.00    +0.000 A 
ATOM     26  C   UNL     1      -0.797  13.298  19.325  0.00  0.00    +0.000 A 
ATOM     27  C   UNL     1       0.268  13.093  20.200  0.00  0.00    +0.000 A 
ATOM     28  C   UNL     1       0.846  11.824  20.316  0.00  0.00    +0.000 A 
ENDBRANCH  21  23
ENDBRANCH  17  18
ENDBRANCH   2  17
TORSDOF 4
ENDMDL
MODEL 4
REMARK VINA RESULT:      -7.7      5.008      7.988
REMARK  Name = 
REMARK  5 active torsions:
REMARK  status: ('A' for Active; 'I' for Inactive)
REMARK    1  A    between atoms: C_1  and  N_2
REMARK    2  A    between atoms: N_2  and  C_3
REMARK    3  A    between atoms: C_3  and  C_4
REMARK    4  A    between atoms: C_7  and  C_8
REMARK    5  A    between atoms: C_15  and  C_17
REMARK                            x       y       z     vdW  Elec       q    Type
REMARK                         _______ _______ _______ _____ _____    ______ ____
ROOT
ATOM      1  C   UNL     1       2.334   9.610  17.833  0.00  0.00    +0.000 C 
ATOM      2  N   UNL     1       2.026   8.434  18.639  0.00  0.00    +0.000 N 
ATOM      3  C   UNL     1       2.724   7.284  18.280  0.00  0.00    +0.000 C 
ATOM      4  O   UNL     1       3.573   7.351  17.378  0.00  0.00    +0.000 OA
ENDROOT
BRANCH   3   5
ATOM      5  C   UNL     1       2.571   5.960  19.095  0.00  0.00    +0.000 C 
ATOM      6  C   UNL     1       3.942   5.544  19.663  0.00  0.00    +0.000 C 
ATOM      7  C   UNL     1       4.810   5.092  18.511  0.00  0.00    +0.000 A 
ATOM      8  C   UNL     1       6.157   5.456  18.418  0.00  0.00    +0.000 A 
ATOM      9  C   UNL     1       6.886   5.116  17.278  0.00  0.00    +0.000 A 
ATOM     10  C   UNL     1       6.289   4.390  16.244  0.00  0.00    +0.000 A 
ATOM     11  C   UNL     1       4.957   3.990  16.345  0.00  0.00    +0.000 A 
ATOM     12  C   UNL     1       4.218   4.354  17.469  0.00  0.00    +0.000 A 
ATOM     13  C   UNL     1       2.768   4.034  17.537  0.00  0.00    +0.000 C 
ATOM     14  O   UNL     1       2.276   3.108  16.906  0.00  0.00    +0.000 OA
ATOM     15  N   UNL     1       2.008   4.830  18.360  0.00  0.00    +0.000 N 
ATOM     16  H   UNL     1       1.022   4.606  18.379  0.00  0.00    +0.000 HD
ENDBRANCH   3   5
BRANCH   2  17
ATOM     17  C   UNL     1       1.427   8.655  19.956  0.00  0.00    +0.000 C 
BRANCH  17  18
ATOM     18  C   UNL     1       0.448   9.794  19.940  0.00  0.00    +0.000 A 
ATOM     19  C   UNL     1       0.433  10.858  20.822  0.00  0.00    +0.000 A 
ATOM     20  S   UNL     1      -0.837  11.927  20.442  0.00  0.00    +0.000 S 
ATOM     21  C   UNL     1      -1.346  10.886  19.160  0.00  0.00    +0.000 A 
ATOM     22  N   UNL     1      -0.587   9.812  19.009  0.00  0.00    +0.000 NA
BRANCH  21  23
ATOM     23  C   UNL     1      -2.558  11.186  18.362  0.00  0.00    +0.000 A 
ATOM     24  C   UNL     1      -3.686  11.845  18.890  0.00  0.00    +0.000 A 
ATOM     25  C   UNL     1      -4.830  12.066  18.116  0.00  0.00    +0.000 A 
ATOM     26  C   UNL     1      -4.870  11.633  16.794  0.00  0.00    +0.000 A 
ATOM     27  C   UNL     1      -3.762  10.993  16.243  0.00  0.00    +0.000 A 
ATOM     28  C   UNL     1      -2.619  10.773  17.020  0.00  0.00    +0.000 A 
ENDBRANCH  21  23
ENDBRANCH  17  18
ENDBRANCH   2  17
TORSDOF 4
ENDMDL
MODEL 5
REMARK VINA RESULT:      -7.4      3.483      5.930
REMARK  Name = 
REMARK  5 active torsions:
REMARK  status: ('A' for Active; 'I' for Inactive)
REMARK    1  A    between atoms: C_1  and  N_2
REMARK    2  A    between atoms: N_2  and  C_3
REMARK    3  A    between atoms: C_3  and  C_4
REMARK    4  A    between atoms: C_7  and  C_8
REMARK    5  A    between atoms: C_15  and  C_17
REMARK                            x       y       z     vdW  Elec       q    Type
REMARK                         _______ _______ _______ _____ _____    ______ ____
ROOT
ATOM      1  C   UNL     1       4.640   6.743  17.544  0.00  0.00    +0.000 C 
ATOM      2  N   UNL     1       5.021   5.343  17.691  0.00  0.00    +0.000 N 
ATOM      3  C   UNL     1       3.961   4.442  17.630  0.00  0.00    +0.000 C 
ATOM      4  O   UNL     1       2.820   4.870  17.400  0.00  0.00    +0.000 OA
ENDROOT
BRANCH   3   5
ATOM      5  C   UNL     1       4.207   2.901  17.688  0.00  0.00    +0.000 C 
ATOM      6  C   UNL     1       2.853   2.165  17.730  0.00  0.00    +0.000 C 
ATOM      7  C   UNL     1       2.222   2.422  19.079  0.00  0.00    +0.000 A 
ATOM      8  C   UNL     1       0.858   2.705  19.211  0.00  0.00    +0.000 A 
ATOM      9  C   UNL     1       0.344   3.052  20.461  0.00  0.00    +0.000 A 
ATOM     10  C   UNL     1       1.175   3.090  21.584  0.00  0.00    +0.000 A 
ATOM     11  C   UNL     1       2.528   2.773  21.468  0.00  0.00    +0.000 A 
ATOM     12  C   UNL     1       3.050   2.455  20.216  0.00  0.00    +0.000 A 
ATOM     13  C   UNL     1       4.510   2.227  20.060  0.00  0.00    +0.000 C 
ATOM     14  O   UNL     1       5.215   1.864  20.992  0.00  0.00    +0.000 OA
ATOM     15  N   UNL     1       5.026   2.436  18.803  0.00  0.00    +0.000 N 
ATOM     16  H   UNL     1       6.024   2.292  18.722  0.00  0.00    +0.000 HD
ENDBRANCH   3   5
BRANCH   2  17
ATOM     17  C   UNL     1       6.416   4.990  17.423  0.00  0.00    +0.000 C 
BRANCH  17  18
ATOM     18  C   UNL     1       6.701   4.917  15.951  0.00  0.00    +0.000 A 
ATOM     19  C   UNL     1       7.618   5.691  15.266  0.00  0.00    +0.000 A 
ATOM     20  S   UNL     1       7.629   5.279  13.614  0.00  0.00    +0.000 S 
ATOM     21  C   UNL     1       6.363   4.133  13.879  0.00  0.00    +0.000 A 
ATOM     22  N   UNL     1       5.976   4.046  15.142  0.00  0.00    +0.000 NA
BRANCH  21  23
ATOM     23  C   UNL     1       5.764   3.377  12.754  0.00  0.00    +0.000 A 
ATOM     24  C   UNL     1       6.405   2.291  12.126  0.00  0.00    +0.000 A 
ATOM     25  C   UNL     1       5.826   1.635  11.034  0.00  0.00    +0.000 A 
ATOM     26  C   UNL     1       4.590   2.051  10.548  0.00  0.00    +0.000 A 
ATOM     27  C   UNL     1       3.928   3.112  11.161  0.00  0.00    +0.000 A 
ATOM     28  C   UNL     1       4.510   3.766  12.253  0.00  0.00    +0.000 A 
ENDBRANCH  21  23
ENDBRANCH  17  18
ENDBRANCH   2  17
TORSDOF 4
ENDMDL
MODEL 6
REMARK VINA RESULT:      -7.3      4.480      5.382
REMARK  Name = 
REMARK  5 active torsions:
REMARK  status: ('A' for Active; 'I' for Inactive)
REMARK    1  A    between atoms: C_1  and  N_2
REMARK    2  A    between atoms: N_2  and  C_3
REMARK    3  A    between atoms: C_3  and  C_4
REMARK    4  A    between atoms: C_7  and  C_8
REMARK    5  A    between atoms: C_15  and  C_17
REMARK                            x       y       z     vdW  Elec       q    Type
REMARK                         _______ _______ _______ _____ _____    ______ ____
ROOT
ATOM      1  C   UNL     1       1.167   9.029  20.668  0.00  0.00    +0.000 C 
ATOM      2  N   UNL     1       1.792   8.496  19.462  0.00  0.00    +0.000 N 
ATOM      3  C   UNL     1       2.248   7.185  19.575  0.00  0.00    +0.000 C 
ATOM      4  O   UNL     1       2.043   6.564  20.629  0.00  0.00    +0.000 OA
ENDROOT
BRANCH   3   5
ATOM      5  C   UNL     1       2.868   6.439  18.351  0.00  0.00    +0.000 C 
ATOM      6  C   UNL     1       1.965   5.251  17.961  0.00  0.00    +0.000 C 
ATOM      7  C   UNL     1       2.076   4.203  19.044  0.00  0.00    +0.000 A 
ATOM      8  C   UNL     1       0.956   3.515  19.520  0.00  0.00    +0.000 A 
ATOM      9  C   UNL     1       1.090   2.643  20.601  0.00  0.00    +0.000 A 
ATOM     10  C   UNL     1       2.339   2.430  21.191  0.00  0.00    +0.000 A 
ATOM     11  C   UNL     1       3.468   3.083  20.698  0.00  0.00    +0.000 A 
ATOM     12  C   UNL     1       3.332   3.977  19.638  0.00  0.00    +0.000 A 
ATOM     13  C   UNL     1       4.506   4.765  19.179  0.00  0.00    +0.000 C 
ATOM     14  O   UNL     1       5.655   4.380  19.352  0.00  0.00    +0.000 OA
ATOM     15  N   UNL     1       4.230   5.948  18.536  0.00  0.00    +0.000 N 
ATOM     16  H   UNL     1       5.043   6.476  18.248  0.00  0.00    +0.000 HD
ENDBRANCH   3   5
BRANCH   2  17
ATOM     17  C   UNL     1       1.478   9.151  18.192  0.00  0.00    +0.000 C 
BRANCH  17  18
ATOM     18  C   UNL     1       1.069  10.583  18.389  0.00  0.00    +0.000 A 
ATOM     19  C   UNL     1      -0.224  11.035  18.574  0.00  0.00    +0.000 A 
ATOM     20  S   UNL     1      -0.241  12.727  18.766  0.00  0.00    +0.000 S 
ATOM     21  C   UNL     1       1.470  12.783  18.527  0.00  0.00    +0.000 A 
ATOM     22  N   UNL     1       2.023  11.595  18.343  0.00  0.00    +0.000 NA
BRANCH  21  23
ATOM     23  C   UNL     1       2.198  14.073  18.490  0.00  0.00    +0.000 A 
ATOM     24  C   UNL     1       1.578  15.316  18.727  0.00  0.00    +0.000 A 
ATOM     25  C   UNL     1       2.292  16.515  18.634  0.00  0.00    +0.000 A 
ATOM     26  C   UNL     1       3.643  16.497  18.304  0.00  0.00    +0.000 A 
ATOM     27  C   UNL     1       4.284  15.280  18.080  0.00  0.00    +0.000 A 
ATOM     28  C   UNL     1       3.567  14.082  18.173  0.00  0.00    +0.000 A 
ENDBRANCH  21  23
ENDBRANCH  17  18
ENDBRANCH   2  17
TORSDOF 4
ENDMDL
MODEL 7
REMARK VINA RESULT:      -7.2      4.880      7.460
REMARK  Name = 
REMARK  5 active torsions:
REMARK  status: ('A' for Active; 'I' for Inactive)
REMARK    1  A    between atoms: C_1  and  N_2
REMARK    2  A    between atoms: N_2  and  C_3
REMARK    3  A    between atoms: C_3  and  C_4
REMARK    4  A    between atoms: C_7  and  C_8
REMARK    5  A    between atoms: C_15  and  C_17
REMARK                            x       y       z     vdW  Elec       q    Type
REMARK                         _______ _______ _______ _____ _____    ______ ____
ROOT
ATOM      1  C   UNL     1       0.942   8.178  21.515  0.00  0.00    +0.000 C 
ATOM      2  N   UNL     1       1.880   8.111  20.400  0.00  0.00    +0.000 N 
ATOM      3  C   UNL     1       2.216   6.820  20.000  0.00  0.00    +0.000 C 
ATOM      4  O   UNL     1       1.668   5.856  20.555  0.00  0.00    +0.000 OA
ENDROOT
BRANCH   3   5
ATOM      5  C   UNL     1       3.144   6.573  18.768  0.00  0.00    +0.000 C 
ATOM      6  C   UNL     1       2.394   5.727  17.720  0.00  0.00    +0.000 C 
ATOM      7  C   UNL     1       2.241   4.328  18.270  0.00  0.00    +0.000 A 
ATOM      8  C   UNL     1       1.048   3.610  18.136  0.00  0.00    +0.000 A 
ATOM      9  C   UNL     1       0.915   2.371  18.762  0.00  0.00    +0.000 A 
ATOM     10  C   UNL     1       1.973   1.829  19.496  0.00  0.00    +0.000 A 
ATOM     11  C   UNL     1       3.179   2.520  19.604  0.00  0.00    +0.000 A 
ATOM     12  C   UNL     1       3.305   3.772  19.005  0.00  0.00    +0.000 A 
ATOM     13  C   UNL     1       4.543   4.568  19.209  0.00  0.00    +0.000 C 
ATOM     14  O   UNL     1       5.615   4.045  19.483  0.00  0.00    +0.000 OA
ATOM     15  N   UNL     1       4.421   5.929  19.061  0.00  0.00    +0.000 N 
ATOM     16  H   UNL     1       5.271   6.454  19.221  0.00  0.00    +0.000 HD
ENDBRANCH   3   5
BRANCH   2  17
ATOM     17  C   UNL     1       2.001   9.294  19.547  0.00  0.00    +0.000 C 
BRANCH  17  18
ATOM     18  C   UNL     1       0.729  10.091  19.513  0.00  0.00    +0.000 A 
ATOM     19  C   UNL     1       0.286  10.949  20.502  0.00  0.00    +0.000 A 
ATOM     20  S   UNL     1      -1.198  11.655  20.058  0.00  0.00    +0.000 S 
ATOM     21  C   UNL     1      -1.212  10.732  18.596  0.00  0.00    +0.000 A 
ATOM     22  N   UNL     1      -0.148   9.962  18.440  0.00  0.00    +0.000 NA
BRANCH  21  23
ATOM     23  C   UNL     1      -2.358  10.797  17.658  0.00  0.00    +0.000 A 
ATOM     24  C   UNL     1      -2.354  10.182  16.391  0.00  0.00    +0.000 A 
ATOM     25  C   UNL     1      -3.438  10.309  15.516  0.00  0.00    +0.000 A 
ATOM     26  C   UNL     1      -4.552  11.053  15.891  0.00  0.00    +0.000 A 
ATOM     27  C   UNL     1      -4.588  11.658  17.145  0.00  0.00    +0.000 A 
ATOM     28  C   UNL     1      -3.502  11.530  18.018  0.00  0.00    +0.000 A 
ENDBRANCH  21  23
ENDBRANCH  17  18
ENDBRANCH   2  17
TORSDOF 4
ENDMDL
MODEL 8
REMARK VINA RESULT:      -7.2      4.967      7.402
REMARK  Name = 
REMARK  5 active torsions:
REMARK  status: ('A' for Active; 'I' for Inactive)
REMARK    1  A    between atoms: C_1  and  N_2
REMARK    2  A    between atoms: N_2  and  C_3
REMARK    3  A    between atoms: C_3  and  C_4
REMARK    4  A    between atoms: C_7  and  C_8
REMARK    5  A    between atoms: C_15  and  C_17
REMARK                            x       y       z     vdW  Elec       q    Type
REMARK                         _______ _______ _______ _____ _____    ______ ____
ROOT
ATOM      1  C   UNL     1       1.267   8.393  20.483  0.00  0.00    +0.000 C 
ATOM      2  N   UNL     1       2.060   8.124  19.289  0.00  0.00    +0.000 N 
ATOM      3  C   UNL     1       2.785   6.937  19.328  0.00  0.00    +0.000 C 
ATOM      4  O   UNL     1       2.663   6.188  20.309  0.00  0.00    +0.000 OA
ENDROOT
BRANCH   3   5
ATOM      5  C   UNL     1       3.621   6.460  18.097  0.00  0.00    +0.000 C 
ATOM      6  C   UNL     1       2.747   5.563  17.198  0.00  0.00    +0.000 C 
ATOM      7  C   UNL     1       2.510   4.260  17.926  0.00  0.00    +0.000 A 
ATOM      8  C   UNL     1       1.256   3.640  17.935  0.00  0.00    +0.000 A 
ATOM      9  C   UNL     1       1.055   2.503  18.717  0.00  0.00    +0.000 A 
ATOM     10  C   UNL     1       2.103   1.962  19.467  0.00  0.00    +0.000 A 
ATOM     11  C   UNL     1       3.367   2.552  19.434  0.00  0.00    +0.000 A 
ATOM     12  C   UNL     1       3.562   3.705  18.677  0.00  0.00    +0.000 A 
ATOM     13  C   UNL     1       4.872   4.407  18.725  0.00  0.00    +0.000 C 
ATOM     14  O   UNL     1       5.910   3.828  19.015  0.00  0.00    +0.000 OA
ATOM     15  N   UNL     1       4.855   5.745  18.412  0.00  0.00    +0.000 N 
ATOM     16  H   UNL     1       5.752   6.208  18.467  0.00  0.00    +0.000 HD
ENDBRANCH   3   5
BRANCH   2  17
ATOM     17  C   UNL     1       1.681   8.816  18.056  0.00  0.00    +0.000 C 
BRANCH  17  18
ATOM     18  C   UNL     1       0.903  10.070  18.336  0.00  0.00    +0.000 A 
ATOM     19  C   UNL     1       1.444  11.307  18.633  0.00  0.00    +0.000 A 
ATOM     20  S   UNL     1       0.209  12.455  18.872  0.00  0.00    +0.000 S 
ATOM     21  C   UNL     1      -0.989  11.232  18.634  0.00  0.00    +0.000 A 
ATOM     22  N   UNL     1      -0.488  10.038  18.361  0.00  0.00    +0.000 NA
BRANCH  21  23
ATOM     23  C   UNL     1      -2.433  11.533  18.780  0.00  0.00    +0.000 A 
ATOM     24  C   UNL     1      -3.412  11.077  17.876  0.00  0.00    +0.000 A 
ATOM     25  C   UNL     1      -4.759  11.425  18.024  0.00  0.00    +0.000 A 
ATOM     26  C   UNL     1      -5.156  12.236  19.082  0.00  0.00    +0.000 A 
ATOM     27  C   UNL     1      -4.210  12.688  19.999  0.00  0.00    +0.000 A 
ATOM     28  C   UNL     1      -2.863  12.338  19.849  0.00  0.00    +0.000 A 
ENDBRANCH  21  23
ENDBRANCH  17  18
ENDBRANCH   2  17
TORSDOF 4
ENDMDL
MODEL 9
REMARK VINA RESULT:      -7.1      5.490      7.438
REMARK  Name = 
REMARK  5 active torsions:
REMARK  status: ('A' for Active; 'I' for Inactive)
REMARK    1  A    between atoms: C_1  and  N_2
REMARK    2  A    between atoms: N_2  and  C_3
REMARK    3  A    between atoms: C_3  and  C_4
REMARK    4  A    between atoms: C_7  and  C_8
REMARK    5  A    between atoms: C_15  and  C_17
REMARK                            x       y       z     vdW  Elec       q    Type
REMARK                         _______ _______ _______ _____ _____    ______ ____
ROOT
ATOM      1  C   UNL     1       0.750   8.180  21.392  0.00  0.00    +0.000 C 
ATOM      2  N   UNL     1       1.585   8.130  20.197  0.00  0.00    +0.000 N 
ATOM      3  C   UNL     1       2.249   6.921  20.002  0.00  0.00    +0.000 C 
ATOM      4  O   UNL     1       2.042   5.986  20.790  0.00  0.00    +0.000 OA
ENDROOT
BRANCH   3   5
ATOM      5  C   UNL     1       3.118   6.675  18.728  0.00  0.00    +0.000 C 
ATOM      6  C   UNL     1       2.326   5.819  17.721  0.00  0.00    +0.000 C 
ATOM      7  C   UNL     1       2.210   4.421  18.284  0.00  0.00    +0.000 A 
ATOM      8  C   UNL     1       1.017   3.694  18.209  0.00  0.00    +0.000 A 
ATOM      9  C   UNL     1       0.924   2.457  18.846  0.00  0.00    +0.000 A 
ATOM     10  C   UNL     1       2.020   1.926  19.532  0.00  0.00    +0.000 A 
ATOM     11  C   UNL     1       3.224   2.627  19.579  0.00  0.00    +0.000 A 
ATOM     12  C   UNL     1       3.312   3.876  18.969  0.00  0.00    +0.000 A 
ATOM     13  C   UNL     1       4.552   4.683  19.110  0.00  0.00    +0.000 C 
ATOM     14  O   UNL     1       5.640   4.169  19.334  0.00  0.00    +0.000 OA
ATOM     15  N   UNL     1       4.413   6.042  18.962  0.00  0.00    +0.000 N 
ATOM     16  H   UNL     1       5.266   6.573  19.078  0.00  0.00    +0.000 HD
ENDBRANCH   3   5
BRANCH   2  17
ATOM     17  C   UNL     1       1.302   9.094  19.133  0.00  0.00    +0.000 C 
BRANCH  17  18
ATOM     18  C   UNL     1       0.821  10.406  19.683  0.00  0.00    +0.000 A 
ATOM     19  C   UNL     1       1.533  11.591  19.683  0.00  0.00    +0.000 A 
ATOM     20  S   UNL     1       0.616  12.837  20.395  0.00  0.00    +0.000 S 
ATOM     21  C   UNL     1      -0.661  11.721  20.729  0.00  0.00    +0.000 A 
ATOM     22  N   UNL     1      -0.422  10.491  20.303  0.00  0.00    +0.000 NA
BRANCH  21  23
ATOM     23  C   UNL     1      -1.873  12.141  21.471  0.00  0.00    +0.000 A 
ATOM     24  C   UNL     1      -2.026  11.967  22.860  0.00  0.00    +0.000 A 
ATOM     25  C   UNL     1      -3.207  12.334  23.515  0.00  0.00    +0.000 A 
ATOM     26  C   UNL     1      -4.261  12.884  22.793  0.00  0.00    +0.000 A 
ATOM     27  C   UNL     1      -4.130  13.080  21.420  0.00  0.00    +0.000 A 
ATOM     28  C   UNL     1      -2.947  12.713  20.768  0.00  0.00    +0.000 A 
ENDBRANCH  21  23
ENDBRANCH  17  18
ENDBRANCH   2  17
TORSDOF 4
ENDMDL
