MODEL 1
REMARK VINA RESULT:      -8.0      0.000      0.000
REMARK  Name = 
REMARK  8 active torsions:
REMARK  status: ('A' for Active; 'I' for Inactive)
REMARK    1  A    between atoms: C_1  and  C_2
REMARK    2  A    between atoms: C_2  and  C_3
REMARK    3  A    between atoms: C_6  and  C_7
REMARK    4  A    between atoms: N_11  and  C_12
REMARK    5  A    between atoms: C_12  and  C_13
REMARK    6  A    between atoms: C_12  and  C_17
REMARK    7  A    between atoms: C_13  and  C_14
REMARK    8  A    between atoms: C_14  and  O_16
REMARK                            x       y       z     vdW  Elec       q    Type
REMARK                         _______ _______ _______ _____ _____    ______ ____
ROOT
ATOM      1  C   UNL     1       7.260   4.456  15.836  0.00  0.00    +0.000 C 
ATOM      2  C   UNL     1       6.365   5.030  16.651  0.00  0.00    +0.000 C 
ATOM      3  S   UNL     1       4.821   5.690  16.286  0.00  0.00    +0.000 S 
ATOM      4  C   UNL     1       4.572   6.044  17.975  0.00  0.00    +0.000 C 
ATOM      5  N   UNL     1       3.389   6.640  18.276  0.00  0.00    +0.000 N 
ATOM      6  N   UNL     1       5.519   5.700  18.779  0.00  0.00    +0.000 NA
ATOM      7  C   UNL     1       6.606   5.153  18.121  0.00  0.00    +0.000 C 
ATOM      8  O   UNL     1       7.647   4.811  18.660  0.00  0.00    +0.000 OA
ATOM      9  H   UNL     1       2.730   6.675  17.497  0.00  0.00    +0.000 HD
ENDROOT
BRANCH   1  13
ATOM     10  C   UNL     1       6.310   3.561  12.492  0.00  0.00    +0.000 A 
ATOM     11  C   UNL     1       7.154   4.596  12.173  0.00  0.00    +0.000 A 
ATOM     12  C   UNL     1       7.641   5.096  13.407  0.00  0.00    +0.000 A 
ATOM     13  C   UNL     1       7.089   4.330  14.428  0.00  0.00    +0.000 A 
ATOM     14  O   UNL     1       6.269   3.396  13.837  0.00  0.00    +0.000 OA
BRANCH  10  16
ATOM     15  C   UNL     1       4.120   3.271  11.343  0.00  0.00    +0.000 C 
ATOM     16  C   UNL     1       5.457   2.642  11.697  0.00  0.00    +0.000 C 
ENDBRANCH  10  16
ENDBRANCH   1  13
BRANCH   5  17
ATOM     17  C   UNL     1       2.735   6.513  19.572  0.00  0.00    +0.000 C 
BRANCH  17  18
ATOM     18  C   UNL     1       1.849   7.714  19.898  0.00  0.00    +0.000 A 
ATOM     19  C   UNL     1       1.182   7.757  21.138  0.00  0.00    +0.000 A 
ATOM     20  C   UNL     1       0.288   8.785  21.442  0.00  0.00    +0.000 A 
ATOM     21  C   UNL     1       0.063   9.805  20.523  0.00  0.00    +0.000 A 
ATOM     22  C   UNL     1       0.747   9.808  19.311  0.00  0.00    +0.000 A 
ATOM     23  C   UNL     1       1.635   8.774  19.002  0.00  0.00    +0.000 A 
ENDBRANCH  17  18
BRANCH  17  24
ATOM     24  C   UNL     1       1.942   5.193  19.639  0.00  0.00    +0.000 C 
BRANCH  24  25
ATOM     25  C   UNL     1       2.581   4.188  20.571  0.00  0.00    +0.000 C 
ATOM     26  O   UNL     1       2.157   3.915  21.684  0.00  0.00    +0.000 OA
BRANCH  25  27
ATOM     27  O   UNL     1       3.644   3.551  20.031  0.00  0.00    +0.000 OA
ATOM     28  H   UNL     1       3.632   2.578  20.110  0.00  0.00    +0.000 HD
ENDBRANCH  25  27
ENDBRANCH  24  25
ENDBRANCH  17  24
ENDBRANCH   5  17
TORSDOF 7
ENDMDL
MODEL 2
REMARK VINA RESULT:      -7.8      3.420      8.962
REMARK  Name = 
REMARK  8 active torsions:
REMARK  status: ('A' for Active; 'I' for Inactive)
REMARK    1  A    between atoms: C_1  and  C_2
REMARK    2  A    between atoms: C_2  and  C_3
REMARK    3  A    between atoms: C_6  and  C_7
REMARK    4  A    between atoms: N_11  and  C_12
REMARK    5  A    between atoms: C_12  and  C_13
REMARK    6  A    between atoms: C_12  and  C_17
REMARK    7  A    between atoms: C_13  and  C_14
REMARK    8  A    between atoms: C_14  and  O_16
REMARK                            x       y       z     vdW  Elec       q    Type
REMARK                         _______ _______ _______ _____ _____    ______ ____
ROOT
ATOM      1  C   UNL     1       0.536  10.161  19.718  0.00  0.00    +0.000 C 
ATOM      2  C   UNL     1       1.250   9.033  19.609  0.00  0.00    +0.000 C 
ATOM      3  S   UNL     1       1.493   7.778  20.756  0.00  0.00    +0.000 S 
ATOM      4  C   UNL     1       2.435   6.891  19.589  0.00  0.00    +0.000 C 
ATOM      5  N   UNL     1       2.929   5.702  20.021  0.00  0.00    +0.000 N 
ATOM      6  N   UNL     1       2.567   7.432  18.427  0.00  0.00    +0.000 NA
ATOM      7  C   UNL     1       1.966   8.676  18.345  0.00  0.00    +0.000 C 
ATOM      8  O   UNL     1       2.009   9.410  17.370  0.00  0.00    +0.000 OA
ATOM      9  H   UNL     1       2.567   5.406  20.930  0.00  0.00    +0.000 HD
ENDROOT
BRANCH   1  13
ATOM     10  C   UNL     1      -1.644  11.582  22.191  0.00  0.00    +0.000 A 
ATOM     11  C   UNL     1      -0.894  10.800  23.035  0.00  0.00    +0.000 A 
ATOM     12  C   UNL     1       0.051  10.136  22.212  0.00  0.00    +0.000 A 
ATOM     13  C   UNL     1      -0.149  10.558  20.902  0.00  0.00    +0.000 A 
ATOM     14  O   UNL     1      -1.202  11.443  20.917  0.00  0.00    +0.000 OA
BRANCH  10  16
ATOM     15  C   UNL     1      -3.346  12.426  23.800  0.00  0.00    +0.000 C 
ATOM     16  C   UNL     1      -2.801  12.492  22.384  0.00  0.00    +0.000 C 
ENDBRANCH  10  16
ENDBRANCH   1  13
BRANCH   5  17
ATOM     17  C   UNL     1       3.225   4.585  19.134  0.00  0.00    +0.000 C 
BRANCH  17  18
ATOM     18  C   UNL     1       4.634   4.661  18.549  0.00  0.00    +0.000 A 
ATOM     19  C   UNL     1       5.676   5.182  19.338  0.00  0.00    +0.000 A 
ATOM     20  C   UNL     1       6.958   5.361  18.816  0.00  0.00    +0.000 A 
ATOM     21  C   UNL     1       7.230   4.996  17.501  0.00  0.00    +0.000 A 
ATOM     22  C   UNL     1       6.226   4.436  16.717  0.00  0.00    +0.000 A 
ATOM     23  C   UNL     1       4.941   4.265  17.237  0.00  0.00    +0.000 A 
ENDBRANCH  17  18
BRANCH  17  24
ATOM     24  C   UNL     1       2.988   3.249  19.865  0.00  0.00    +0.000 C 
BRANCH  24  25
ATOM     25  C   UNL     1       1.956   3.372  20.963  0.00  0.00    +0.000 C 
ATOM     26  O   UNL     1       2.213   3.337  22.158  0.00  0.00    +0.000 OA
BRANCH  25  27
ATOM     27  O   UNL     1       0.704   3.599  20.504  0.00  0.00    +0.000 OA
ATOM     28  H   UNL     1       0.130   2.812  20.450  0.00  0.00    +0.000 HD
ENDBRANCH  25  27
ENDBRANCH  24  25
ENDBRANCH  17  24
ENDBRANCH   5  17
TORSDOF 7
ENDMDL
MODEL 3
REMARK VINA RESULT:      -7.8      0.149      1.138
REMARK  Name = 
REMARK  8 active torsions:
REMARK  status: ('A' for Active; 'I' for Inactive)
REMARK    1  A    between atoms: C_1  and  C_2
REMARK    2  A    between atoms: C_2  and  C_3
REMARK    3  A    between atoms: C_6  and  C_7
REMARK    4  A    between atoms: N_11  and  C_12
REMARK    5  A    between atoms: C_12  and  C_13
REMARK    6  A    between atoms: C_12  and  C_17
REMARK    7  A    between atoms: C_13  and  C_14
REMARK    8  A    between atoms: C_14  and  O_16
REMARK                            x       y       z     vdW  Elec       q    Type
REMARK                         _______ _______ _______ _____ _____    ______ ____
ROOT
ATOM      1  C   UNL     1       7.304   4.486  15.817  0.00  0.00    +0.000 C 
ATOM      2  C   UNL     1       6.400   5.035  16.639  0.00  0.00    +0.000 C 
ATOM      3  S   UNL     1       4.840   5.662  16.286  0.00  0.00    +0.000 S 
ATOM      4  C   UNL     1       4.591   5.998  17.978  0.00  0.00    +0.000 C 
ATOM      5  N   UNL     1       3.396   6.565  18.289  0.00  0.00    +0.000 N 
ATOM      6  N   UNL     1       5.548   5.670  18.775  0.00  0.00    +0.000 NA
ATOM      7  C   UNL     1       6.645   5.152  18.109  0.00  0.00    +0.000 C 
ATOM      8  O   UNL     1       7.696   4.830  18.641  0.00  0.00    +0.000 OA
ATOM      9  H   UNL     1       2.733   6.592  17.512  0.00  0.00    +0.000 HD
ENDROOT
BRANCH   1  13
ATOM     10  C   UNL     1       6.341   3.610  12.471  0.00  0.00    +0.000 A 
ATOM     11  C   UNL     1       7.193   4.639  12.154  0.00  0.00    +0.000 A 
ATOM     12  C   UNL     1       7.686   5.130  13.389  0.00  0.00    +0.000 A 
ATOM     13  C   UNL     1       7.129   4.366  14.409  0.00  0.00    +0.000 A 
ATOM     14  O   UNL     1       6.300   3.441  13.816  0.00  0.00    +0.000 OA
BRANCH  10  16
ATOM     15  C   UNL     1       4.130   3.325  11.363  0.00  0.00    +0.000 C 
ATOM     16  C   UNL     1       5.479   2.701  11.674  0.00  0.00    +0.000 C 
ENDBRANCH  10  16
ENDBRANCH   1  13
BRANCH   5  17
ATOM     17  C   UNL     1       2.750   6.415  19.586  0.00  0.00    +0.000 C 
BRANCH  17  18
ATOM     18  C   UNL     1       1.879   7.616  19.947  0.00  0.00    +0.000 A 
ATOM     19  C   UNL     1       1.710   8.648  19.004  0.00  0.00    +0.000 A 
ATOM     20  C   UNL     1       1.003   9.809  19.322  0.00  0.00    +0.000 A 
ATOM     21  C   UNL     1       0.428   9.950  20.581  0.00  0.00    +0.000 A 
ATOM     22  C   UNL     1       0.543   8.923  21.513  0.00  0.00    +0.000 A 
ATOM     23  C   UNL     1       1.258   7.764  21.198  0.00  0.00    +0.000 A 
ENDBRANCH  17  18
BRANCH  17  24
ATOM     24  C   UNL     1       1.946   5.101  19.629  0.00  0.00    +0.000 C 
BRANCH  24  25
ATOM     25  C   UNL     1       2.637   4.033  20.448  0.00  0.00    +0.000 C 
ATOM     26  O   UNL     1       3.504   3.288  20.018  0.00  0.00    +0.000 OA
BRANCH  25  27
ATOM     27  O   UNL     1       2.255   4.018  21.746  0.00  0.00    +0.000 OA
ATOM     28  H   UNL     1       2.153   4.895  22.161  0.00  0.00    +0.000 HD
ENDBRANCH  25  27
ENDBRANCH  24  25
ENDBRANCH  17  24
ENDBRANCH   5  17
TORSDOF 7
ENDMDL
MODEL 4
REMARK VINA RESULT:      -7.8      1.028      1.182
REMARK  Name = 
REMARK  8 active torsions:
REMARK  status: ('A' for Active; 'I' for Inactive)
REMARK    1  A    between atoms: C_1  and  C_2
REMARK    2  A    between atoms: C_2  and  C_3
REMARK    3  A    between atoms: C_6  and  C_7
REMARK    4  A    between atoms: N_11  and  C_12
REMARK    5  A    between atoms: C_12  and  C_13
REMARK    6  A    between atoms: C_12  and  C_17
REMARK    7  A    between atoms: C_13  and  C_14
REMARK    8  A    between atoms: C_14  and  O_16
REMARK                            x       y       z     vdW  Elec       q    Type
REMARK                         _______ _______ _______ _____ _____    ______ ____
ROOT
ATOM      1  C   UNL     1       7.439   5.060  15.410  0.00  0.00    +0.000 C 
ATOM      2  C   UNL     1       6.466   5.469  16.236  0.00  0.00    +0.000 C 
ATOM      3  S   UNL     1       4.772   5.564  15.967  0.00  0.00    +0.000 S 
ATOM      4  C   UNL     1       4.541   6.106  17.607  0.00  0.00    +0.000 C 
ATOM      5  N   UNL     1       3.254   6.362  17.960  0.00  0.00    +0.000 N 
ATOM      6  N   UNL     1       5.600   6.202  18.335  0.00  0.00    +0.000 NA
ATOM      7  C   UNL     1       6.757   5.904  17.637  0.00  0.00    +0.000 C 
ATOM      8  O   UNL     1       7.887   5.985  18.092  0.00  0.00    +0.000 OA
ATOM      9  H   UNL     1       2.565   6.066  17.265  0.00  0.00    +0.000 HD
ENDROOT
BRANCH   1  13
ATOM     10  C   UNL     1       6.338   3.552  12.344  0.00  0.00    +0.000 A 
ATOM     11  C   UNL     1       7.240   4.434  11.802  0.00  0.00    +0.000 A 
ATOM     12  C   UNL     1       7.793   5.146  12.896  0.00  0.00    +0.000 A 
ATOM     13  C   UNL     1       7.220   4.653  14.064  0.00  0.00    +0.000 A 
ATOM     14  O   UNL     1       6.324   3.677  13.694  0.00  0.00    +0.000 OA
BRANCH  10  16
ATOM     15  C   UNL     1       4.131   3.191  11.250  0.00  0.00    +0.000 C 
ATOM     16  C   UNL     1       5.405   2.549  11.773  0.00  0.00    +0.000 C 
ENDBRANCH  10  16
ENDBRANCH   1  13
BRANCH   5  17
ATOM     17  C   UNL     1       2.762   6.265  19.327  0.00  0.00    +0.000 C 
BRANCH  17  18
ATOM     18  C   UNL     1       1.960   7.495  19.748  0.00  0.00    +0.000 A 
ATOM     19  C   UNL     1       1.362   7.520  21.022  0.00  0.00    +0.000 A 
ATOM     20  C   UNL     1       0.541   8.579  21.415  0.00  0.00    +0.000 A 
ATOM     21  C   UNL     1       0.323   9.646  20.550  0.00  0.00    +0.000 A 
ATOM     22  C   UNL     1       0.941   9.665  19.304  0.00  0.00    +0.000 A 
ATOM     23  C   UNL     1       1.756   8.601  18.907  0.00  0.00    +0.000 A 
ENDBRANCH  17  18
BRANCH  17  24
ATOM     24  C   UNL     1       1.946   4.970  19.508  0.00  0.00    +0.000 C 
BRANCH  24  25
ATOM     25  C   UNL     1       1.902   4.140  18.245  0.00  0.00    +0.000 C 
ATOM     26  O   UNL     1       1.138   4.342  17.313  0.00  0.00    +0.000 OA
BRANCH  25  27
ATOM     27  O   UNL     1       2.850   3.175  18.201  0.00  0.00    +0.000 OA
ATOM     28  H   UNL     1       2.533   2.270  18.382  0.00  0.00    +0.000 HD
ENDBRANCH  25  27
ENDBRANCH  24  25
ENDBRANCH  17  24
ENDBRANCH   5  17
TORSDOF 7
ENDMDL
MODEL 5
REMARK VINA RESULT:      -7.8      0.908      1.468
REMARK  Name = 
REMARK  8 active torsions:
REMARK  status: ('A' for Active; 'I' for Inactive)
REMARK    1  A    between atoms: C_1  and  C_2
REMARK    2  A    between atoms: C_2  and  C_3
REMARK    3  A    between atoms: C_6  and  C_7
REMARK    4  A    between atoms: N_11  and  C_12
REMARK    5  A    between atoms: C_12  and  C_13
REMARK    6  A    between atoms: C_12  and  C_17
REMARK    7  A    between atoms: C_13  and  C_14
REMARK    8  A    between atoms: C_14  and  O_16
REMARK                            x       y       z     vdW  Elec       q    Type
REMARK                         _______ _______ _______ _____ _____    ______ ____
ROOT
ATOM      1  C   UNL     1       7.349   4.552  15.747  0.00  0.00    +0.000 C 
ATOM      2  C   UNL     1       6.429   5.058  16.578  0.00  0.00    +0.000 C 
ATOM      3  S   UNL     1       4.823   5.572  16.248  0.00  0.00    +0.000 S 
ATOM      4  C   UNL     1       4.588   5.929  17.938  0.00  0.00    +0.000 C 
ATOM      5  N   UNL     1       3.365   6.422  18.264  0.00  0.00    +0.000 N 
ATOM      6  N   UNL     1       5.583   5.683  18.720  0.00  0.00    +0.000 NA
ATOM      7  C   UNL     1       6.697   5.225  18.040  0.00  0.00    +0.000 C 
ATOM      8  O   UNL     1       7.778   4.985  18.554  0.00  0.00    +0.000 OA
ATOM      9  H   UNL     1       2.685   6.386  17.503  0.00  0.00    +0.000 HD
ENDROOT
BRANCH   1  13
ATOM     10  C   UNL     1       6.328   3.579  12.446  0.00  0.00    +0.000 A 
ATOM     11  C   UNL     1       7.186   4.589  12.083  0.00  0.00    +0.000 A 
ATOM     12  C   UNL     1       7.702   5.114  13.295  0.00  0.00    +0.000 A 
ATOM     13  C   UNL     1       7.153   4.388  14.347  0.00  0.00    +0.000 A 
ATOM     14  O   UNL     1       6.306   3.454  13.796  0.00  0.00    +0.000 OA
BRANCH  10  16
ATOM     15  C   UNL     1       4.100   3.284  11.375  0.00  0.00    +0.000 C 
ATOM     16  C   UNL     1       5.446   2.654  11.691  0.00  0.00    +0.000 C 
ENDBRANCH  10  16
ENDBRANCH   1  13
BRANCH   5  17
ATOM     17  C   UNL     1       2.759   6.259  19.579  0.00  0.00    +0.000 C 
BRANCH  17  18
ATOM     18  C   UNL     1       1.887   7.449  19.972  0.00  0.00    +0.000 A 
ATOM     19  C   UNL     1       1.737   8.517  19.066  0.00  0.00    +0.000 A 
ATOM     20  C   UNL     1       1.029   9.668  19.418  0.00  0.00    +0.000 A 
ATOM     21  C   UNL     1       0.437   9.764  20.672  0.00  0.00    +0.000 A 
ATOM     22  C   UNL     1       0.534   8.702  21.566  0.00  0.00    +0.000 A 
ATOM     23  C   UNL     1       1.249   7.553  21.219  0.00  0.00    +0.000 A 
ENDBRANCH  17  18
BRANCH  17  24
ATOM     24  C   UNL     1       1.969   4.936  19.638  0.00  0.00    +0.000 C 
BRANCH  24  25
ATOM     25  C   UNL     1       2.098   4.134  18.364  0.00  0.00    +0.000 C 
ATOM     26  O   UNL     1       2.871   3.199  18.213  0.00  0.00    +0.000 OA
BRANCH  25  27
ATOM     27  O   UNL     1       1.217   4.500  17.404  0.00  0.00    +0.000 OA
ATOM     28  H   UNL     1       1.597   4.621  16.514  0.00  0.00    +0.000 HD
ENDBRANCH  25  27
ENDBRANCH  24  25
ENDBRANCH  17  24
ENDBRANCH   5  17
TORSDOF 7
ENDMDL
MODEL 6
REMARK VINA RESULT:      -7.7      3.282      8.986
REMARK  Name = 
REMARK  8 active torsions:
REMARK  status: ('A' for Active; 'I' for Inactive)
REMARK    1  A    between atoms: C_1  and  C_2
REMARK    2  A    between atoms: C_2  and  C_3
REMARK    3  A    between atoms: C_6  and  C_7
REMARK    4  A    between atoms: N_11  and  C_12
REMARK    5  A    between atoms: C_12  and  C_13
REMARK    6  A    between atoms: C_12  and  C_17
REMARK    7  A    between atoms: C_13  and  C_14
REMARK    8  A    between atoms: C_14  and  O_16
REMARK                            x       y       z     vdW  Elec       q    Type
REMARK                         _______ _______ _______ _____ _____    ______ ____
ROOT
ATOM      1  C   UNL     1       0.741  10.024  19.891  0.00  0.00    +0.000 C 
ATOM      2  C   UNL     1       1.361   8.872  19.605  0.00  0.00    +0.000 C 
ATOM      3  S   UNL     1       1.537   7.458  20.566  0.00  0.00    +0.000 S 
ATOM      4  C   UNL     1       2.373   6.670  19.255  0.00  0.00    +0.000 C 
ATOM      5  N   UNL     1       2.785   5.400  19.507  0.00  0.00    +0.000 N 
ATOM      6  N   UNL     1       2.514   7.353  18.171  0.00  0.00    +0.000 NA
ATOM      7  C   UNL     1       2.010   8.637  18.279  0.00  0.00    +0.000 C 
ATOM      8  O   UNL     1       2.083   9.490  17.409  0.00  0.00    +0.000 OA
ATOM      9  H   UNL     1       2.426   5.012  20.381  0.00  0.00    +0.000 HD
ENDROOT
BRANCH   1  13
ATOM     10  C   UNL     1      -1.010  11.430  22.693  0.00  0.00    +0.000 A 
ATOM     11  C   UNL     1      -0.722  10.208  23.249  0.00  0.00    +0.000 A 
ATOM     12  C   UNL     1      -0.012   9.486  22.257  0.00  0.00    +0.000 A 
ATOM     13  C   UNL     1       0.123  10.307  21.142  0.00  0.00    +0.000 A 
ATOM     14  O   UNL     1      -0.506  11.495  21.435  0.00  0.00    +0.000 OA
BRANCH  10  16
ATOM     15  C   UNL     1      -3.172  12.300  23.568  0.00  0.00    +0.000 C 
ATOM     16  C   UNL     1      -1.746  12.630  23.162  0.00  0.00    +0.000 C 
ENDBRANCH  10  16
ENDBRANCH   1  13
BRANCH   5  17
ATOM     17  C   UNL     1       2.966   4.395  18.468  0.00  0.00    +0.000 C 
BRANCH  17  18
ATOM     18  C   UNL     1       4.386   4.386  17.906  0.00  0.00    +0.000 A 
ATOM     19  C   UNL     1       5.459   4.739  18.747  0.00  0.00    +0.000 A 
ATOM     20  C   UNL     1       6.761   4.839  18.255  0.00  0.00    +0.000 A 
ATOM     21  C   UNL     1       7.021   4.562  16.917  0.00  0.00    +0.000 A 
ATOM     22  C   UNL     1       5.984   4.166  16.078  0.00  0.00    +0.000 A 
ATOM     23  C   UNL     1       4.679   4.074  16.568  0.00  0.00    +0.000 A 
ENDBRANCH  17  18
BRANCH  17  24
ATOM     24  C   UNL     1       2.560   3.006  18.998  0.00  0.00    +0.000 C 
BRANCH  24  25
ATOM     25  C   UNL     1       1.066   2.884  19.200  0.00  0.00    +0.000 C 
ATOM     26  O   UNL     1       0.322   2.247  18.471  0.00  0.00    +0.000 OA
BRANCH  25  27
ATOM     27  O   UNL     1       0.622   3.495  20.323  0.00  0.00    +0.000 OA
ATOM     28  H   UNL     1       0.218   2.906  20.987  0.00  0.00    +0.000 HD
ENDBRANCH  25  27
ENDBRANCH  24  25
ENDBRANCH  17  24
ENDBRANCH   5  17
TORSDOF 7
ENDMDL
MODEL 7
REMARK VINA RESULT:      -7.7      3.248      9.026
REMARK  Name = 
REMARK  8 active torsions:
REMARK  status: ('A' for Active; 'I' for Inactive)
REMARK    1  A    between atoms: C_1  and  C_2
REMARK    2  A    between atoms: C_2  and  C_3
REMARK    3  A    between atoms: C_6  and  C_7
REMARK    4  A    between atoms: N_11  and  C_12
REMARK    5  A    between atoms: C_12  and  C_13
REMARK    6  A    between atoms: C_12  and  C_17
REMARK    7  A    between atoms: C_13  and  C_14
REMARK    8  A    between atoms: C_14  and  O_16
REMARK                            x       y       z     vdW  Elec       q    Type
REMARK                         _______ _______ _______ _____ _____    ______ ____
ROOT
ATOM      1  C   UNL     1       0.595   9.979  19.854  0.00  0.00    +0.000 C 
ATOM      2  C   UNL     1       1.340   8.884  19.654  0.00  0.00    +0.000 C 
ATOM      3  S   UNL     1       1.694   7.592  20.730  0.00  0.00    +0.000 S 
ATOM      4  C   UNL     1       2.595   6.791  19.472  0.00  0.00    +0.000 C 
ATOM      5  N   UNL     1       3.155   5.604  19.823  0.00  0.00    +0.000 N 
ATOM      6  N   UNL     1       2.638   7.384  18.329  0.00  0.00    +0.000 NA
ATOM      7  C   UNL     1       1.991   8.607  18.337  0.00  0.00    +0.000 C 
ATOM      8  O   UNL     1       1.950   9.381  17.394  0.00  0.00    +0.000 OA
ATOM      9  H   UNL     1       2.858   5.257  20.737  0.00  0.00    +0.000 HD
ENDROOT
BRANCH   1  13
ATOM     10  C   UNL     1      -1.158  11.480  22.604  0.00  0.00    +0.000 A 
ATOM     11  C   UNL     1      -0.906  10.263  23.188  0.00  0.00    +0.000 A 
ATOM     12  C   UNL     1      -0.201   9.505  22.220  0.00  0.00    +0.000 A 
ATOM     13  C   UNL     1      -0.032  10.301  21.091  0.00  0.00    +0.000 A 
ATOM     14  O   UNL     1      -0.636  11.509  21.353  0.00  0.00    +0.000 OA
BRANCH  10  16
ATOM     15  C   UNL     1      -3.261  12.399  23.569  0.00  0.00    +0.000 C 
ATOM     16  C   UNL     1      -1.870  12.707  23.041  0.00  0.00    +0.000 C 
ENDBRANCH  10  16
ENDBRANCH   1  13
BRANCH   5  17
ATOM     17  C   UNL     1       3.436   4.536  18.872  0.00  0.00    +0.000 C 
BRANCH  17  18
ATOM     18  C   UNL     1       4.831   4.651  18.261  0.00  0.00    +0.000 A 
ATOM     19  C   UNL     1       5.034   4.230  16.933  0.00  0.00    +0.000 A 
ATOM     20  C   UNL     1       6.309   4.225  16.363  0.00  0.00    +0.000 A 
ATOM     21  C   UNL     1       7.402   4.665  17.102  0.00  0.00    +0.000 A 
ATOM     22  C   UNL     1       7.218   5.128  18.401  0.00  0.00    +0.000 A 
ATOM     23  C   UNL     1       5.944   5.126  18.974  0.00  0.00    +0.000 A 
ENDBRANCH  17  18
BRANCH  17  24
ATOM     24  C   UNL     1       3.222   3.163  19.537  0.00  0.00    +0.000 C 
BRANCH  24  25
ATOM     25  C   UNL     1       1.767   2.753  19.550  0.00  0.00    +0.000 C 
ATOM     26  O   UNL     1       0.881   3.371  20.122  0.00  0.00    +0.000 OA
BRANCH  25  27
ATOM     27  O   UNL     1       1.508   1.658  18.799  0.00  0.00    +0.000 OA
ATOM     28  H   UNL     1       0.822   1.773  18.115  0.00  0.00    +0.000 HD
ENDBRANCH  25  27
ENDBRANCH  24  25
ENDBRANCH  17  24
ENDBRANCH   5  17
TORSDOF 7
ENDMDL
MODEL 8
REMARK VINA RESULT:      -7.6      2.800      8.772
REMARK  Name = 
REMARK  8 active torsions:
REMARK  status: ('A' for Active; 'I' for Inactive)
REMARK    1  A    between atoms: C_1  and  C_2
REMARK    2  A    between atoms: C_2  and  C_3
REMARK    3  A    between atoms: C_6  and  C_7
REMARK    4  A    between atoms: N_11  and  C_12
REMARK    5  A    between atoms: C_12  and  C_13
REMARK    6  A    between atoms: C_12  and  C_17
REMARK    7  A    between atoms: C_13  and  C_14
REMARK    8  A    between atoms: C_14  and  O_16
REMARK                            x       y       z     vdW  Elec       q    Type
REMARK                         _______ _______ _______ _____ _____    ______ ____
ROOT
ATOM      1  C   UNL     1       0.979   9.607  19.780  0.00  0.00    +0.000 C 
ATOM      2  C   UNL     1       1.655   8.507  19.425  0.00  0.00    +0.000 C 
ATOM      3  S   UNL     1       1.951   7.070  20.321  0.00  0.00    +0.000 S 
ATOM      4  C   UNL     1       2.783   6.386  18.951  0.00  0.00    +0.000 C 
ATOM      5  N   UNL     1       3.278   5.135  19.136  0.00  0.00    +0.000 N 
ATOM      6  N   UNL     1       2.841   7.116  17.891  0.00  0.00    +0.000 NA
ATOM      7  C   UNL     1       2.266   8.363  18.069  0.00  0.00    +0.000 C 
ATOM      8  O   UNL     1       2.255   9.251  17.232  0.00  0.00    +0.000 OA
ATOM      9  H   UNL     1       2.977   4.692  20.006  0.00  0.00    +0.000 HD
ENDROOT
BRANCH   1  13
ATOM     10  C   UNL     1      -0.777  10.777  22.684  0.00  0.00    +0.000 A 
ATOM     11  C   UNL     1      -0.340   9.583  23.202  0.00  0.00    +0.000 A 
ATOM     12  C   UNL     1       0.395   8.955  22.165  0.00  0.00    +0.000 A 
ATOM     13  C   UNL     1       0.393   9.803  21.062  0.00  0.00    +0.000 A 
ATOM     14  O   UNL     1      -0.341  10.915  21.407  0.00  0.00    +0.000 OA
BRANCH  10  16
ATOM     15  C   UNL     1      -2.608  12.388  22.180  0.00  0.00    +0.000 C 
ATOM     16  C   UNL     1      -1.611  11.887  23.210  0.00  0.00    +0.000 C 
ENDBRANCH  10  16
ENDBRANCH   1  13
BRANCH   5  17
ATOM     17  C   UNL     1       3.480   4.183  18.052  0.00  0.00    +0.000 C 
BRANCH  17  18
ATOM     18  C   UNL     1       4.831   4.360  17.362  0.00  0.00    +0.000 A 
ATOM     19  C   UNL     1       4.924   4.150  15.973  0.00  0.00    +0.000 A 
ATOM     20  C   UNL     1       6.154   4.206  15.315  0.00  0.00    +0.000 A 
ATOM     21  C   UNL     1       7.311   4.500  16.028  0.00  0.00    +0.000 A 
ATOM     22  C   UNL     1       7.236   4.757  17.393  0.00  0.00    +0.000 A 
ATOM     23  C   UNL     1       6.007   4.693  18.054  0.00  0.00    +0.000 A 
ENDBRANCH  17  18
BRANCH  17  24
ATOM     24  C   UNL     1       3.295   2.742  18.569  0.00  0.00    +0.000 C 
BRANCH  24  25
ATOM     25  C   UNL     1       3.786   2.576  19.989  0.00  0.00    +0.000 C 
ATOM     26  O   UNL     1       3.128   2.845  20.983  0.00  0.00    +0.000 OA
BRANCH  25  27
ATOM     27  O   UNL     1       5.019   2.025  20.073  0.00  0.00    +0.000 OA
ATOM     28  H   UNL     1       5.222   1.352  19.396  0.00  0.00    +0.000 HD
ENDBRANCH  25  27
ENDBRANCH  24  25
ENDBRANCH  17  24
ENDBRANCH   5  17
TORSDOF 7
ENDMDL
MODEL 9
REMARK VINA RESULT:      -7.4      1.728      8.275
REMARK  Name = 
REMARK  8 active torsions:
REMARK  status: ('A' for Active; 'I' for Inactive)
REMARK    1  A    between atoms: C_1  and  C_2
REMARK    2  A    between atoms: C_2  and  C_3
REMARK    3  A    between atoms: C_6  and  C_7
REMARK    4  A    between atoms: N_11  and  C_12
REMARK    5  A    between atoms: C_12  and  C_13
REMARK    6  A    between atoms: C_12  and  C_17
REMARK    7  A    between atoms: C_13  and  C_14
REMARK    8  A    between atoms: C_14  and  O_16
REMARK                            x       y       z     vdW  Elec       q    Type
REMARK                         _______ _______ _______ _____ _____    ______ ____
ROOT
ATOM      1  C   UNL     1       1.959   6.274  20.306  0.00  0.00    +0.000 C 
ATOM      2  C   UNL     1       2.722   5.811  19.307  0.00  0.00    +0.000 C 
ATOM      3  S   UNL     1       3.482   6.666  18.024  0.00  0.00    +0.000 S 
ATOM      4  C   UNL     1       4.193   5.180  17.454  0.00  0.00    +0.000 C 
ATOM      5  N   UNL     1       4.966   5.294  16.343  0.00  0.00    +0.000 N 
ATOM      6  N   UNL     1       3.933   4.120  18.138  0.00  0.00    +0.000 NA
ATOM      7  C   UNL     1       3.069   4.361  19.191  0.00  0.00    +0.000 C 
ATOM      8  O   UNL     1       2.627   3.505  19.941  0.00  0.00    +0.000 OA
ATOM      9  H   UNL     1       5.153   6.259  16.063  0.00  0.00    +0.000 HD
ENDROOT
BRANCH   1  13
ATOM     10  C   UNL     1       1.069   9.726  19.878  0.00  0.00    +0.000 A 
ATOM     11  C   UNL     1       0.922   9.665  21.242  0.00  0.00    +0.000 A 
ATOM     12  C   UNL     1       1.238   8.332  21.609  0.00  0.00    +0.000 A 
ATOM     13  C   UNL     1       1.585   7.640  20.454  0.00  0.00    +0.000 A 
ATOM     14  O   UNL     1       1.467   8.520  19.402  0.00  0.00    +0.000 OA
BRANCH  10  16
ATOM     15  C   UNL     1      -0.602  11.083  18.628  0.00  0.00    +0.000 C 
ATOM     16  C   UNL     1       0.870  10.792  18.865  0.00  0.00    +0.000 C 
ENDBRANCH  10  16
ENDBRANCH   1  13
BRANCH   5  17
ATOM     17  C   UNL     1       6.062   4.387  16.031  0.00  0.00    +0.000 C 
BRANCH  17  18
ATOM     18  C   UNL     1       6.388   4.354  14.539  0.00  0.00    +0.000 A 
ATOM     19  C   UNL     1       5.670   3.480  13.701  0.00  0.00    +0.000 A 
ATOM     20  C   UNL     1       5.996   3.345  12.350  0.00  0.00    +0.000 A 
ATOM     21  C   UNL     1       7.029   4.100  11.805  0.00  0.00    +0.000 A 
ATOM     22  C   UNL     1       7.722   5.004  12.605  0.00  0.00    +0.000 A 
ATOM     23  C   UNL     1       7.402   5.133  13.959  0.00  0.00    +0.000 A 
ENDBRANCH  17  18
BRANCH  17  24
ATOM     24  C   UNL     1       7.303   4.746  16.872  0.00  0.00    +0.000 C 
BRANCH  24  25
ATOM     25  C   UNL     1       7.233   6.151  17.426  0.00  0.00    +0.000 C 
ATOM     26  O   UNL     1       7.223   7.163  16.741  0.00  0.00    +0.000 OA
BRANCH  25  27
ATOM     27  O   UNL     1       7.110   6.195  18.773  0.00  0.00    +0.000 OA
ATOM     28  H   UNL     1       7.230   7.075  19.175  0.00  0.00    +0.000 HD
ENDBRANCH  25  27
ENDBRANCH  24  25
ENDBRANCH  17  24
ENDBRANCH   5  17
TORSDOF 7
ENDMDL
