MODEL 1
REMARK VINA RESULT:      -6.6      0.000      0.000
REMARK  Name = 
REMARK  12 active torsions:
REMARK  status: ('A' for Active; 'I' for Inactive)
REMARK    1  A    between atoms: C_1  and  C_2
REMARK    2  A    between atoms: C_2  and  O_3
REMARK    3  A    between atoms: O_3  and  C_4
REMARK    4  A    between atoms: C_9  and  C_10
REMARK    5  A    between atoms: C_10  and  C_11
REMARK    6  A    between atoms: C_11  and  C_12
REMARK    7  A    between atoms: C_12  and  O_13
REMARK    8  A    between atoms: C_12  and  C_14
REMARK    9  A    between atoms: C_12  and  C_18
REMARK   10  A    between atoms: C_14  and  C_15
REMARK   11  A    between atoms: C_15  and  O_17
REMARK   12  A    between atoms: C_18  and  O_20
REMARK                            x       y       z     vdW  Elec       q    Type
REMARK                         _______ _______ _______ _____ _____    ______ ____
ROOT
ATOM      1  C   UNL     1       6.718   5.309  17.378  0.00  0.00    +0.000 C 
ENDROOT
BRANCH   1   2
ATOM      2  O   UNL     1       7.797   4.343  17.244  0.00  0.00    +0.000 OA
ATOM      3  H   UNL     1       7.450   3.461  17.472  0.00  0.00    +0.000 HD
ENDBRANCH   1   2
BRANCH   1   4
ATOM      4  C   UNL     1       7.433   6.628  17.735  0.00  0.00    +0.000 C 
ATOM      5  O   UNL     1       7.504   7.613  17.026  0.00  0.00    +0.000 OA
BRANCH   4   6
ATOM      6  O   UNL     1       8.114   6.510  18.907  0.00  0.00    +0.000 OA
ATOM      7  H   UNL     1       8.464   7.407  19.136  0.00  0.00    +0.000 HD
ENDBRANCH   4   6
ENDBRANCH   1   4
BRANCH   1   8
ATOM      8  C   UNL     1       5.748   4.894  18.507  0.00  0.00    +0.000 C 
BRANCH   8   9
ATOM      9  C   UNL     1       4.266   4.919  18.097  0.00  0.00    +0.000 C 
BRANCH   9  15
ATOM     10  C   UNL     1       2.701   6.217  19.634  0.00  0.00    +0.000 A 
ATOM     11  N   UNL     1       1.946   7.285  19.984  0.00  0.00    +0.000 NA
ATOM     12  C   UNL     1       1.941   8.335  19.142  0.00  0.00    +0.000 A 
ATOM     13  C   UNL     1       2.655   8.370  17.960  0.00  0.00    +0.000 A 
ATOM     14  C   UNL     1       3.444   7.269  17.630  0.00  0.00    +0.000 A 
ATOM     15  C   UNL     1       3.498   6.160  18.485  0.00  0.00    +0.000 A 
BRANCH  10  16
ATOM     16  O   UNL     1       2.678   5.112  20.463  0.00  0.00    +0.000 OA
BRANCH  16  18
ATOM     17  C   UNL     1       1.481   3.049  20.681  0.00  0.00    +0.000 C 
ATOM     18  C   UNL     1       1.362   4.558  20.576  0.00  0.00    +0.000 C 
ENDBRANCH  16  18
ENDBRANCH  10  16
ENDBRANCH   9  15
ENDBRANCH   8   9
ENDBRANCH   1   8
BRANCH   1  19
ATOM     19  C   UNL     1       6.108   5.479  15.987  0.00  0.00    +0.000 C 
BRANCH  19  20
ATOM     20  C   UNL     1       6.907   4.824  14.895  0.00  0.00    +0.000 C 
ATOM     21  O   UNL     1       7.859   5.369  14.357  0.00  0.00    +0.000 OA
BRANCH  20  22
ATOM     22  O   UNL     1       6.479   3.598  14.541  0.00  0.00    +0.000 OA
ATOM     23  H   UNL     1       6.486   3.385  13.585  0.00  0.00    +0.000 HD
ENDBRANCH  20  22
ENDBRANCH  19  20
ENDBRANCH   1  19
TORSDOF 11
ENDMDL
MODEL 2
REMARK VINA RESULT:      -6.6      2.801      6.394
REMARK  Name = 
REMARK  12 active torsions:
REMARK  status: ('A' for Active; 'I' for Inactive)
REMARK    1  A    between atoms: C_1  and  C_2
REMARK    2  A    between atoms: C_2  and  O_3
REMARK    3  A    between atoms: O_3  and  C_4
REMARK    4  A    between atoms: C_9  and  C_10
REMARK    5  A    between atoms: C_10  and  C_11
REMARK    6  A    between atoms: C_11  and  C_12
REMARK    7  A    between atoms: C_12  and  O_13
REMARK    8  A    between atoms: C_12  and  C_14
REMARK    9  A    between atoms: C_12  and  C_18
REMARK   10  A    between atoms: C_14  and  C_15
REMARK   11  A    between atoms: C_15  and  O_17
REMARK   12  A    between atoms: C_18  and  O_20
REMARK                            x       y       z     vdW  Elec       q    Type
REMARK                         _______ _______ _______ _____ _____    ______ ____
ROOT
ATOM      1  C   UNL     1       3.535   3.080  19.332  0.00  0.00    +0.000 C 
ENDROOT
BRANCH   1   2
ATOM      2  O   UNL     1       3.971   2.184  20.392  0.00  0.00    +0.000 OA
ATOM      3  H   UNL     1       4.703   1.639  20.051  0.00  0.00    +0.000 HD
ENDBRANCH   1   2
BRANCH   1   4
ATOM      4  C   UNL     1       3.249   2.144  18.139  0.00  0.00    +0.000 C 
ATOM      5  O   UNL     1       2.259   2.174  17.434  0.00  0.00    +0.000 OA
BRANCH   4   6
ATOM      6  O   UNL     1       4.189   1.164  18.054  0.00  0.00    +0.000 OA
ATOM      7  H   UNL     1       4.753   1.226  18.864  0.00  0.00    +0.000 HD
ENDBRANCH   4   6
ENDBRANCH   1   4
BRANCH   1   8
ATOM      8  C   UNL     1       4.648   4.089  18.975  0.00  0.00    +0.000 C 
BRANCH   8   9
ATOM      9  C   UNL     1       4.349   4.931  17.722  0.00  0.00    +0.000 C 
BRANCH   9  15
ATOM     10  C   UNL     1       6.352   5.833  16.432  0.00  0.00    +0.000 A 
ATOM     11  N   UNL     1       7.248   5.833  15.417  0.00  0.00    +0.000 NA
ATOM     12  C   UNL     1       7.151   4.840  14.512  0.00  0.00    +0.000 A 
ATOM     13  C   UNL     1       6.197   3.843  14.573  0.00  0.00    +0.000 A 
ATOM     14  C   UNL     1       5.300   3.849  15.639  0.00  0.00    +0.000 A 
ATOM     15  C   UNL     1       5.374   4.850  16.616  0.00  0.00    +0.000 A 
BRANCH  10  16
ATOM     16  O   UNL     1       6.408   6.873  17.340  0.00  0.00    +0.000 OA
BRANCH  16  18
ATOM     17  C   UNL     1       8.161   8.386  17.950  0.00  0.00    +0.000 C 
ATOM     18  C   UNL     1       7.683   6.946  17.988  0.00  0.00    +0.000 C 
ENDBRANCH  16  18
ENDBRANCH  10  16
ENDBRANCH   9  15
ENDBRANCH   8   9
ENDBRANCH   1   8
BRANCH   1  19
ATOM     19  C   UNL     1       2.199   3.672  19.781  0.00  0.00    +0.000 C 
BRANCH  19  20
ATOM     20  C   UNL     1       2.210   4.173  21.199  0.00  0.00    +0.000 C 
ATOM     21  O   UNL     1       2.126   3.426  22.162  0.00  0.00    +0.000 OA
BRANCH  20  22
ATOM     22  O   UNL     1       2.298   5.510  21.323  0.00  0.00    +0.000 OA
ATOM     23  H   UNL     1       2.515   5.859  22.213  0.00  0.00    +0.000 HD
ENDBRANCH  20  22
ENDBRANCH  19  20
ENDBRANCH   1  19
TORSDOF 11
ENDMDL
MODEL 3
REMARK VINA RESULT:      -6.6      2.865      6.457
REMARK  Name = 
REMARK  12 active torsions:
REMARK  status: ('A' for Active; 'I' for Inactive)
REMARK    1  A    between atoms: C_1  and  C_2
REMARK    2  A    between atoms: C_2  and  O_3
REMARK    3  A    between atoms: O_3  and  C_4
REMARK    4  A    between atoms: C_9  and  C_10
REMARK    5  A    between atoms: C_10  and  C_11
REMARK    6  A    between atoms: C_11  and  C_12
REMARK    7  A    between atoms: C_12  and  O_13
REMARK    8  A    between atoms: C_12  and  C_14
REMARK    9  A    between atoms: C_12  and  C_18
REMARK   10  A    between atoms: C_14  and  C_15
REMARK   11  A    between atoms: C_15  and  O_17
REMARK   12  A    between atoms: C_18  and  O_20
REMARK                            x       y       z     vdW  Elec       q    Type
REMARK                         _______ _______ _______ _____ _____    ______ ____
ROOT
ATOM      1  C   UNL     1       3.492   3.041  19.469  0.00  0.00    +0.000 C 
ENDROOT
BRANCH   1   2
ATOM      2  O   UNL     1       3.677   2.274  20.691  0.00  0.00    +0.000 OA
ATOM      3  H   UNL     1       4.518   2.548  21.101  0.00  0.00    +0.000 HD
ENDBRANCH   1   2
BRANCH   1   4
ATOM      4  C   UNL     1       3.312   1.970  18.374  0.00  0.00    +0.000 C 
ATOM      5  O   UNL     1       2.462   1.977  17.504  0.00  0.00    +0.000 OA
BRANCH   4   6
ATOM      6  O   UNL     1       4.146   0.915  18.583  0.00  0.00    +0.000 OA
ATOM      7  H   UNL     1       5.034   1.166  18.226  0.00  0.00    +0.000 HD
ENDBRANCH   4   6
ENDBRANCH   1   4
BRANCH   1   8
ATOM      8  C   UNL     1       4.732   3.913  19.176  0.00  0.00    +0.000 C 
BRANCH   8   9
ATOM      9  C   UNL     1       4.516   4.954  18.064  0.00  0.00    +0.000 C 
BRANCH   9  15
ATOM     10  C   UNL     1       6.383   5.872  16.594  0.00  0.00    +0.000 A 
ATOM     11  N   UNL     1       7.201   5.863  15.515  0.00  0.00    +0.000 NA
ATOM     12  C   UNL     1       7.075   4.832  14.658  0.00  0.00    +0.000 A 
ATOM     13  C   UNL     1       6.167   3.806  14.828  0.00  0.00    +0.000 A 
ATOM     14  C   UNL     1       5.351   3.823  15.958  0.00  0.00    +0.000 A 
ATOM     15  C   UNL     1       5.459   4.865  16.888  0.00  0.00    +0.000 A 
BRANCH  10  16
ATOM     16  O   UNL     1       6.466   6.950  17.456  0.00  0.00    +0.000 OA
BRANCH  16  18
ATOM     17  C   UNL     1       8.013   8.730  17.874  0.00  0.00    +0.000 C 
ATOM     18  C   UNL     1       7.819   7.225  17.835  0.00  0.00    +0.000 C 
ENDBRANCH  16  18
ENDBRANCH  10  16
ENDBRANCH   9  15
ENDBRANCH   8   9
ENDBRANCH   1   8
BRANCH   1  19
ATOM     19  C   UNL     1       2.161   3.779  19.612  0.00  0.00    +0.000 C 
BRANCH  19  20
ATOM     20  C   UNL     1       1.106   2.982  20.329  0.00  0.00    +0.000 C 
ATOM     21  O   UNL     1       1.150   2.761  21.530  0.00  0.00    +0.000 OA
BRANCH  20  22
ATOM     22  O   UNL     1       0.120   2.514  19.540  0.00  0.00    +0.000 OA
ATOM     23  H   UNL     1      -0.646   3.107  19.390  0.00  0.00    +0.000 HD
ENDBRANCH  20  22
ENDBRANCH  19  20
ENDBRANCH   1  19
TORSDOF 11
ENDMDL
MODEL 4
REMARK VINA RESULT:      -6.5      1.421      3.038
REMARK  Name = 
REMARK  12 active torsions:
REMARK  status: ('A' for Active; 'I' for Inactive)
REMARK    1  A    between atoms: C_1  and  C_2
REMARK    2  A    between atoms: C_2  and  O_3
REMARK    3  A    between atoms: O_3  and  C_4
REMARK    4  A    between atoms: C_9  and  C_10
REMARK    5  A    between atoms: C_10  and  C_11
REMARK    6  A    between atoms: C_11  and  C_12
REMARK    7  A    between atoms: C_12  and  O_13
REMARK    8  A    between atoms: C_12  and  C_14
REMARK    9  A    between atoms: C_12  and  C_18
REMARK   10  A    between atoms: C_14  and  C_15
REMARK   11  A    between atoms: C_15  and  O_17
REMARK   12  A    between atoms: C_18  and  O_20
REMARK                            x       y       z     vdW  Elec       q    Type
REMARK                         _______ _______ _______ _____ _____    ______ ____
ROOT
ATOM      1  C   UNL     1       6.831   5.293  18.268  0.00  0.00    +0.000 C 
ENDROOT
BRANCH   1   2
ATOM      2  O   UNL     1       7.548   4.076  17.922  0.00  0.00    +0.000 OA
ATOM      3  H   UNL     1       8.321   3.996  18.511  0.00  0.00    +0.000 HD
ENDBRANCH   1   2
BRANCH   1   4
ATOM      4  C   UNL     1       7.882   6.158  18.994  0.00  0.00    +0.000 C 
ATOM      5  O   UNL     1       8.296   7.238  18.619  0.00  0.00    +0.000 OA
BRANCH   4   6
ATOM      6  O   UNL     1       8.411   5.491  20.055  0.00  0.00    +0.000 OA
ATOM      7  H   UNL     1       7.852   4.690  20.208  0.00  0.00    +0.000 HD
ENDBRANCH   4   6
ENDBRANCH   1   4
BRANCH   1   8
ATOM      8  C   UNL     1       5.643   4.983  19.204  0.00  0.00    +0.000 C 
BRANCH   8   9
ATOM      9  C   UNL     1       4.755   3.823  18.722  0.00  0.00    +0.000 C 
BRANCH   9  15
ATOM     10  C   UNL     1       2.332   4.379  19.283  0.00  0.00    +0.000 A 
ATOM     11  N   UNL     1       1.190   4.263  19.999  0.00  0.00    +0.000 NA
ATOM     12  C   UNL     1       1.186   3.370  21.008  0.00  0.00    +0.000 A 
ATOM     13  C   UNL     1       2.274   2.586  21.337  0.00  0.00    +0.000 A 
ATOM     14  C   UNL     1       3.433   2.705  20.571  0.00  0.00    +0.000 A 
ATOM     15  C   UNL     1       3.478   3.606  19.499  0.00  0.00    +0.000 A 
BRANCH  10  16
ATOM     16  O   UNL     1       2.368   5.326  18.276  0.00  0.00    +0.000 OA
BRANCH  16  18
ATOM     17  C   UNL     1       3.184   7.529  17.813  0.00  0.00    +0.000 C 
ATOM     18  C   UNL     1       2.430   6.657  18.800  0.00  0.00    +0.000 C 
ENDBRANCH  16  18
ENDBRANCH  10  16
ENDBRANCH   9  15
ENDBRANCH   8   9
ENDBRANCH   1   8
BRANCH   1  19
ATOM     19  C   UNL     1       6.494   5.991  16.950  0.00  0.00    +0.000 C 
BRANCH  19  20
ATOM     20  C   UNL     1       6.795   5.159  15.735  0.00  0.00    +0.000 C 
ATOM     21  O   UNL     1       7.760   5.367  15.015  0.00  0.00    +0.000 OA
BRANCH  20  22
ATOM     22  O   UNL     1       5.906   4.178  15.489  0.00  0.00    +0.000 OA
ATOM     23  H   UNL     1       4.986   4.327  15.793  0.00  0.00    +0.000 HD
ENDBRANCH  20  22
ENDBRANCH  19  20
ENDBRANCH   1  19
TORSDOF 11
ENDMDL
MODEL 5
REMARK VINA RESULT:      -6.5      1.223      2.656
REMARK  Name = 
REMARK  12 active torsions:
REMARK  status: ('A' for Active; 'I' for Inactive)
REMARK    1  A    between atoms: C_1  and  C_2
REMARK    2  A    between atoms: C_2  and  O_3
REMARK    3  A    between atoms: O_3  and  C_4
REMARK    4  A    between atoms: C_9  and  C_10
REMARK    5  A    between atoms: C_10  and  C_11
REMARK    6  A    between atoms: C_11  and  C_12
REMARK    7  A    between atoms: C_12  and  O_13
REMARK    8  A    between atoms: C_12  and  C_14
REMARK    9  A    between atoms: C_12  and  C_18
REMARK   10  A    between atoms: C_14  and  C_15
REMARK   11  A    between atoms: C_15  and  O_17
REMARK   12  A    between atoms: C_18  and  O_20
REMARK                            x       y       z     vdW  Elec       q    Type
REMARK                         _______ _______ _______ _____ _____    ______ ____
ROOT
ATOM      1  C   UNL     1       6.528   5.108  16.896  0.00  0.00    +0.000 C 
ENDROOT
BRANCH   1   2
ATOM      2  O   UNL     1       7.627   4.167  16.755  0.00  0.00    +0.000 OA
ATOM      3  H   UNL     1       7.256   3.284  16.575  0.00  0.00    +0.000 HD
ENDBRANCH   1   2
BRANCH   1   4
ATOM      4  C   UNL     1       7.172   6.350  17.545  0.00  0.00    +0.000 C 
ATOM      5  O   UNL     1       7.320   7.434  17.014  0.00  0.00    +0.000 OA
BRANCH   4   6
ATOM      6  O   UNL     1       7.699   6.045  18.762  0.00  0.00    +0.000 OA
ATOM      7  H   UNL     1       8.616   5.708  18.609  0.00  0.00    +0.000 HD
ENDBRANCH   4   6
ENDBRANCH   1   4
BRANCH   1   8
ATOM      8  C   UNL     1       5.424   4.529  17.809  0.00  0.00    +0.000 C 
BRANCH   8   9
ATOM      9  C   UNL     1       3.998   4.725  17.265  0.00  0.00    +0.000 C 
BRANCH   9  15
ATOM     10  C   UNL     1       2.510   5.054  19.307  0.00  0.00    +0.000 A 
ATOM     11  N   UNL     1       1.559   4.679  20.195  0.00  0.00    +0.000 NA
ATOM     12  C   UNL     1       0.970   3.484  19.997  0.00  0.00    +0.000 A 
ATOM     13  C   UNL     1       1.289   2.642  18.950  0.00  0.00    +0.000 A 
ATOM     14  C   UNL     1       2.254   3.057  18.034  0.00  0.00    +0.000 A 
ATOM     15  C   UNL     1       2.880   4.302  18.188  0.00  0.00    +0.000 A 
BRANCH  10  16
ATOM     16  O   UNL     1       3.157   6.255  19.526  0.00  0.00    +0.000 OA
BRANCH  16  18
ATOM     17  C   UNL     1       2.432   8.016  18.075  0.00  0.00    +0.000 C 
ATOM     18  C   UNL     1       2.261   7.367  19.436  0.00  0.00    +0.000 C 
ENDBRANCH  16  18
ENDBRANCH  10  16
ENDBRANCH   9  15
ENDBRANCH   8   9
ENDBRANCH   1   8
BRANCH   1  19
ATOM     19  C   UNL     1       6.102   5.499  15.480  0.00  0.00    +0.000 C 
BRANCH  19  20
ATOM     20  C   UNL     1       6.913   4.832  14.403  0.00  0.00    +0.000 C 
ATOM     21  O   UNL     1       7.877   5.367  13.877  0.00  0.00    +0.000 OA
BRANCH  20  22
ATOM     22  O   UNL     1       6.480   3.608  14.050  0.00  0.00    +0.000 OA
ATOM     23  H   UNL     1       5.884   3.149  14.678  0.00  0.00    +0.000 HD
ENDBRANCH  20  22
ENDBRANCH  19  20
ENDBRANCH   1  19
TORSDOF 11
ENDMDL
MODEL 6
REMARK VINA RESULT:      -6.5      2.704      5.919
REMARK  Name = 
REMARK  12 active torsions:
REMARK  status: ('A' for Active; 'I' for Inactive)
REMARK    1  A    between atoms: C_1  and  C_2
REMARK    2  A    between atoms: C_2  and  O_3
REMARK    3  A    between atoms: O_3  and  C_4
REMARK    4  A    between atoms: C_9  and  C_10
REMARK    5  A    between atoms: C_10  and  C_11
REMARK    6  A    between atoms: C_11  and  C_12
REMARK    7  A    between atoms: C_12  and  O_13
REMARK    8  A    between atoms: C_12  and  C_14
REMARK    9  A    between atoms: C_12  and  C_18
REMARK   10  A    between atoms: C_14  and  C_15
REMARK   11  A    between atoms: C_15  and  O_17
REMARK   12  A    between atoms: C_18  and  O_20
REMARK                            x       y       z     vdW  Elec       q    Type
REMARK                         _______ _______ _______ _____ _____    ______ ____
ROOT
ATOM      1  C   UNL     1       3.483   4.048  19.218  0.00  0.00    +0.000 C 
ENDROOT
BRANCH   1   2
ATOM      2  O   UNL     1       2.713   4.019  20.452  0.00  0.00    +0.000 OA
ATOM      3  H   UNL     1       3.305   3.748  21.177  0.00  0.00    +0.000 HD
ENDBRANCH   1   2
BRANCH   1   4
ATOM      4  C   UNL     1       4.674   3.108  19.494  0.00  0.00    +0.000 C 
ATOM      5  O   UNL     1       4.617   2.035  20.064  0.00  0.00    +0.000 OA
BRANCH   4   6
ATOM      6  O   UNL     1       5.849   3.697  19.143  0.00  0.00    +0.000 OA
ATOM      7  H   UNL     1       5.648   4.635  18.902  0.00  0.00    +0.000 HD
ENDBRANCH   4   6
ENDBRANCH   1   4
BRANCH   1   8
ATOM      8  C   UNL     1       3.979   5.478  18.915  0.00  0.00    +0.000 C 
BRANCH   8   9
ATOM      9  C   UNL     1       3.895   5.866  17.428  0.00  0.00    +0.000 C 
BRANCH   9  15
ATOM     10  C   UNL     1       6.262   6.152  16.530  0.00  0.00    +0.000 A 
ATOM     11  N   UNL     1       7.308   5.839  15.728  0.00  0.00    +0.000 NA
ATOM     12  C   UNL     1       7.150   4.795  14.893  0.00  0.00    +0.000 A 
ATOM     13  C   UNL     1       5.992   4.046  14.818  0.00  0.00    +0.000 A 
ATOM     14  C   UNL     1       4.937   4.370  15.670  0.00  0.00    +0.000 A 
ATOM     15  C   UNL     1       5.061   5.436  16.570  0.00  0.00    +0.000 A 
BRANCH  10  16
ATOM     16  O   UNL     1       6.392   7.251  17.358  0.00  0.00    +0.000 OA
BRANCH  16  18
ATOM     17  C   UNL     1       8.042   8.914  17.855  0.00  0.00    +0.000 C 
ATOM     18  C   UNL     1       7.741   7.427  17.802  0.00  0.00    +0.000 C 
ENDBRANCH  16  18
ENDBRANCH  10  16
ENDBRANCH   9  15
ENDBRANCH   8   9
ENDBRANCH   1   8
BRANCH   1  19
ATOM     19  C   UNL     1       2.615   3.387  18.146  0.00  0.00    +0.000 C 
BRANCH  19  20
ATOM     20  C   UNL     1       1.499   2.551  18.707  0.00  0.00    +0.000 C 
ATOM     21  O   UNL     1       0.386   3.003  18.931  0.00  0.00    +0.000 OA
BRANCH  20  22
ATOM     22  O   UNL     1       1.826   1.271  18.962  0.00  0.00    +0.000 OA
ATOM     23  H   UNL     1       2.778   1.074  19.090  0.00  0.00    +0.000 HD
ENDBRANCH  20  22
ENDBRANCH  19  20
ENDBRANCH   1  19
TORSDOF 11
ENDMDL
MODEL 7
REMARK VINA RESULT:      -6.5      1.577      3.808
REMARK  Name = 
REMARK  12 active torsions:
REMARK  status: ('A' for Active; 'I' for Inactive)
REMARK    1  A    between atoms: C_1  and  C_2
REMARK    2  A    between atoms: C_2  and  O_3
REMARK    3  A    between atoms: O_3  and  C_4
REMARK    4  A    between atoms: C_9  and  C_10
REMARK    5  A    between atoms: C_10  and  C_11
REMARK    6  A    between atoms: C_11  and  C_12
REMARK    7  A    between atoms: C_12  and  O_13
REMARK    8  A    between atoms: C_12  and  C_14
REMARK    9  A    between atoms: C_12  and  C_18
REMARK   10  A    between atoms: C_14  and  C_15
REMARK   11  A    between atoms: C_15  and  O_17
REMARK   12  A    between atoms: C_18  and  O_20
REMARK                            x       y       z     vdW  Elec       q    Type
REMARK                         _______ _______ _______ _____ _____    ______ ____
ROOT
ATOM      1  C   UNL     1       6.351   4.867  16.246  0.00  0.00    +0.000 C 
ENDROOT
BRANCH   1   2
ATOM      2  O   UNL     1       6.020   6.283  16.288  0.00  0.00    +0.000 OA
ATOM      3  H   UNL     1       6.802   6.772  16.602  0.00  0.00    +0.000 HD
ENDBRANCH   1   2
BRANCH   1   4
ATOM      4  C   UNL     1       7.007   4.673  14.863  0.00  0.00    +0.000 C 
ATOM      5  O   UNL     1       7.813   5.422  14.346  0.00  0.00    +0.000 OA
BRANCH   4   6
ATOM      6  O   UNL     1       6.459   3.612  14.210  0.00  0.00    +0.000 OA
ATOM      7  H   UNL     1       7.160   3.234  13.623  0.00  0.00    +0.000 HD
ENDBRANCH   4   6
ENDBRANCH   1   4
BRANCH   1   8
ATOM      8  C   UNL     1       5.078   4.002  16.369  0.00  0.00    +0.000 C 
BRANCH   8   9
ATOM      9  C   UNL     1       3.877   4.743  16.981  0.00  0.00    +0.000 C 
BRANCH   9  15
ATOM     10  C   UNL     1       3.002   4.570  19.368  0.00  0.00    +0.000 A 
ATOM     11  N   UNL     1       2.419   3.929  20.409  0.00  0.00    +0.000 NA
ATOM     12  C   UNL     1       2.003   2.666  20.197  0.00  0.00    +0.000 A 
ATOM     13  C   UNL     1       2.143   2.009  18.990  0.00  0.00    +0.000 A 
ATOM     14  C   UNL     1       2.724   2.695  17.925  0.00  0.00    +0.000 A 
ATOM     15  C   UNL     1       3.154   4.018  18.092  0.00  0.00    +0.000 A 
BRANCH  10  16
ATOM     16  O   UNL     1       3.478   5.848  19.585  0.00  0.00    +0.000 OA
BRANCH  16  18
ATOM     17  C   UNL     1       2.434   7.721  18.519  0.00  0.00    +0.000 C 
ATOM     18  C   UNL     1       2.415   6.797  19.723  0.00  0.00    +0.000 C 
ENDBRANCH  16  18
ENDBRANCH  10  16
ENDBRANCH   9  15
ENDBRANCH   8   9
ENDBRANCH   1   8
BRANCH   1  19
ATOM     19  C   UNL     1       7.432   4.639  17.303  0.00  0.00    +0.000 C 
BRANCH  19  20
ATOM     20  C   UNL     1       7.320   5.560  18.486  0.00  0.00    +0.000 C 
ATOM     21  O   UNL     1       7.921   6.622  18.555  0.00  0.00    +0.000 OA
BRANCH  20  22
ATOM     22  O   UNL     1       6.521   5.114  19.473  0.00  0.00    +0.000 OA
ATOM     23  H   UNL     1       6.936   4.974  20.350  0.00  0.00    +0.000 HD
ENDBRANCH  20  22
ENDBRANCH  19  20
ENDBRANCH   1  19
TORSDOF 11
ENDMDL
MODEL 8
REMARK VINA RESULT:      -6.5      1.289      3.087
REMARK  Name = 
REMARK  12 active torsions:
REMARK  status: ('A' for Active; 'I' for Inactive)
REMARK    1  A    between atoms: C_1  and  C_2
REMARK    2  A    between atoms: C_2  and  O_3
REMARK    3  A    between atoms: O_3  and  C_4
REMARK    4  A    between atoms: C_9  and  C_10
REMARK    5  A    between atoms: C_10  and  C_11
REMARK    6  A    between atoms: C_11  and  C_12
REMARK    7  A    between atoms: C_12  and  O_13
REMARK    8  A    between atoms: C_12  and  C_14
REMARK    9  A    between atoms: C_12  and  C_18
REMARK   10  A    between atoms: C_14  and  C_15
REMARK   11  A    between atoms: C_15  and  O_17
REMARK   12  A    between atoms: C_18  and  O_20
REMARK                            x       y       z     vdW  Elec       q    Type
REMARK                         _______ _______ _______ _____ _____    ______ ____
ROOT
ATOM      1  C   UNL     1       6.639   4.996  17.168  0.00  0.00    +0.000 C 
ENDROOT
BRANCH   1   2
ATOM      2  O   UNL     1       7.714   4.065  16.863  0.00  0.00    +0.000 OA
ATOM      3  H   UNL     1       8.485   4.576  16.554  0.00  0.00    +0.000 HD
ENDBRANCH   1   2
BRANCH   1   4
ATOM      4  C   UNL     1       7.365   6.266  17.659  0.00  0.00    +0.000 C 
ATOM      5  O   UNL     1       7.911   6.401  18.737  0.00  0.00    +0.000 OA
BRANCH   4   6
ATOM      6  O   UNL     1       7.197   7.292  16.781  0.00  0.00    +0.000 OA
ATOM      7  H   UNL     1       7.930   7.937  16.939  0.00  0.00    +0.000 HD
ENDBRANCH   4   6
ENDBRANCH   1   4
BRANCH   1   8
ATOM      8  C   UNL     1       5.723   4.432  18.276  0.00  0.00    +0.000 C 
BRANCH   8   9
ATOM      9  C   UNL     1       4.474   3.707  17.744  0.00  0.00    +0.000 C 
BRANCH   9  15
ATOM     10  C   UNL     1       2.294   4.464  18.823  0.00  0.00    +0.000 A 
ATOM     11  N   UNL     1       1.294   4.390  19.734  0.00  0.00    +0.000 NA
ATOM     12  C   UNL     1       1.349   3.382  20.625  0.00  0.00    +0.000 A 
ATOM     13  C   UNL     1       2.360   2.441  20.651  0.00  0.00    +0.000 A 
ATOM     14  C   UNL     1       3.367   2.523  19.690  0.00  0.00    +0.000 A 
ATOM     15  C   UNL     1       3.341   3.542  18.729  0.00  0.00    +0.000 A 
BRANCH  10  16
ATOM     16  O   UNL     1       2.277   5.522  17.934  0.00  0.00    +0.000 OA
BRANCH  16  18
ATOM     17  C   UNL     1       3.448   7.584  17.598  0.00  0.00    +0.000 C 
ATOM     18  C   UNL     1       2.625   6.757  18.569  0.00  0.00    +0.000 C 
ENDBRANCH  16  18
ENDBRANCH  10  16
ENDBRANCH   9  15
ENDBRANCH   8   9
ENDBRANCH   1   8
BRANCH   1  19
ATOM     19  C   UNL     1       5.966   5.337  15.838  0.00  0.00    +0.000 C 
BRANCH  19  20
ATOM     20  C   UNL     1       6.711   4.821  14.638  0.00  0.00    +0.000 C 
ATOM     21  O   UNL     1       6.402   3.787  14.065  0.00  0.00    +0.000 OA
BRANCH  20  22
ATOM     22  O   UNL     1       7.757   5.577  14.256  0.00  0.00    +0.000 OA
ATOM     23  H   UNL     1       8.112   6.208  14.916  0.00  0.00    +0.000 HD
ENDBRANCH  20  22
ENDBRANCH  19  20
ENDBRANCH   1  19
TORSDOF 11
ENDMDL
MODEL 9
REMARK VINA RESULT:      -6.4      1.466      3.556
REMARK  Name = 
REMARK  12 active torsions:
REMARK  status: ('A' for Active; 'I' for Inactive)
REMARK    1  A    between atoms: C_1  and  C_2
REMARK    2  A    between atoms: C_2  and  O_3
REMARK    3  A    between atoms: O_3  and  C_4
REMARK    4  A    between atoms: C_9  and  C_10
REMARK    5  A    between atoms: C_10  and  C_11
REMARK    6  A    between atoms: C_11  and  C_12
REMARK    7  A    between atoms: C_12  and  O_13
REMARK    8  A    between atoms: C_12  and  C_14
REMARK    9  A    between atoms: C_12  and  C_18
REMARK   10  A    between atoms: C_14  and  C_15
REMARK   11  A    between atoms: C_15  and  O_17
REMARK   12  A    between atoms: C_18  and  O_20
REMARK                            x       y       z     vdW  Elec       q    Type
REMARK                         _______ _______ _______ _____ _____    ______ ____
ROOT
ATOM      1  C   UNL     1       5.935   5.573  16.121  0.00  0.00    +0.000 C 
ENDROOT
BRANCH   1   2
ATOM      2  O   UNL     1       5.410   6.753  15.453  0.00  0.00    +0.000 OA
ATOM      3  H   UNL     1       5.586   7.529  16.016  0.00  0.00    +0.000 HD
ENDBRANCH   1   2
BRANCH   1   4
ATOM      4  C   UNL     1       6.595   4.759  14.990  0.00  0.00    +0.000 C 
ATOM      5  O   UNL     1       6.190   3.703  14.544  0.00  0.00    +0.000 OA
BRANCH   4   6
ATOM      6  O   UNL     1       7.792   5.300  14.636  0.00  0.00    +0.000 OA
ATOM      7  H   UNL     1       7.843   5.281  13.648  0.00  0.00    +0.000 HD
ENDBRANCH   4   6
ENDBRANCH   1   4
BRANCH   1   8
ATOM      8  C   UNL     1       4.797   4.763  16.779  0.00  0.00    +0.000 C 
BRANCH   8   9
ATOM      9  C   UNL     1       3.686   5.633  17.394  0.00  0.00    +0.000 C 
BRANCH   9  15
ATOM     10  C   UNL     1       2.275   5.328  19.494  0.00  0.00    +0.000 A 
ATOM     11  N   UNL     1       1.405   4.665  20.292  0.00  0.00    +0.000 NA
ATOM     12  C   UNL     1       0.919   3.497  19.833  0.00  0.00    +0.000 A 
ATOM     13  C   UNL     1       1.261   2.956  18.608  0.00  0.00    +0.000 A 
ATOM     14  C   UNL     1       2.139   3.667  17.792  0.00  0.00    +0.000 A 
ATOM     15  C   UNL     1       2.657   4.897  18.219  0.00  0.00    +0.000 A 
BRANCH  10  16
ATOM     16  O   UNL     1       2.821   6.504  19.973  0.00  0.00    +0.000 OA
BRANCH  16  18
ATOM     17  C   UNL     1       1.890   8.454  18.942  0.00  0.00    +0.000 C 
ATOM     18  C   UNL     1       1.829   7.523  20.139  0.00  0.00    +0.000 C 
ENDBRANCH  16  18
ENDBRANCH  10  16
ENDBRANCH   9  15
ENDBRANCH   8   9
ENDBRANCH   1   8
BRANCH   1  19
ATOM     19  C   UNL     1       7.050   6.056  17.050  0.00  0.00    +0.000 C 
BRANCH  19  20
ATOM     20  C   UNL     1       7.455   5.040  18.081  0.00  0.00    +0.000 C 
ATOM     21  O   UNL     1       7.120   5.121  19.253  0.00  0.00    +0.000 OA
BRANCH  20  22
ATOM     22  O   UNL     1       8.235   4.046  17.617  0.00  0.00    +0.000 OA
ATOM     23  H   UNL     1       7.822   3.415  16.990  0.00  0.00    +0.000 HD
ENDBRANCH  20  22
ENDBRANCH  19  20
ENDBRANCH   1  19
TORSDOF 11
ENDMDL
