MODEL 1
REMARK VINA RESULT:      -8.6      0.000      0.000
REMARK  Name = 
REMARK  5 active torsions:
REMARK  status: ('A' for Active; 'I' for Inactive)
REMARK    1  A    between atoms: C_1  and  O_2
REMARK    2  A    between atoms: O_2  and  C_3
REMARK    3  A    between atoms: C_6  and  C_7
REMARK    4  A    between atoms: C_9  and  C_10
REMARK    5  A    between atoms: N_15  and  C_16
REMARK                            x       y       z     vdW  Elec       q    Type
REMARK                         _______ _______ _______ _____ _____    ______ ____
ROOT
ATOM      1  C   UNL     1       3.741   4.526  18.635  0.00  0.00    +0.000 A 
ATOM      2  C   UNL     1       3.257   3.281  19.008  0.00  0.00    +0.000 A 
ATOM      3  C   UNL     1       2.416   3.494  20.126  0.00  0.00    +0.000 A 
ATOM      4  N   UNL     1       2.428   4.791  20.475  0.00  0.00    +0.000 NA
ATOM      5  N   UNL     1       3.047   5.425  19.442  0.00  0.00    +0.000 N 
ENDROOT
BRANCH   5   6
ATOM      6  C   UNL     1       2.751   6.805  19.239  0.00  0.00    +0.000 A 
ATOM      7  C   UNL     1       2.784   7.361  17.938  0.00  0.00    +0.000 A 
ATOM      8  C   UNL     1       2.178   8.587  17.678  0.00  0.00    +0.000 A 
ATOM      9  C   UNL     1       1.556   9.216  18.737  0.00  0.00    +0.000 A 
ATOM     10  C   UNL     1       1.603   8.742  20.055  0.00  0.00    +0.000 A 
ATOM     11  C   UNL     1       2.211   7.530  20.318  0.00  0.00    +0.000 A 
ATOM     12  C   UNL     1       0.745   9.529  21.009  0.00  0.00    +0.000 C 
ATOM     13  C   UNL     1      -0.508   9.800  20.185  0.00  0.00    +0.000 C 
ATOM     14  S   UNL     1       0.134  10.249  18.550  0.00  0.00    +0.000 S 
ATOM     15  O   UNL     1      -0.706   9.670  17.522  0.00  0.00    +0.000 OA
ATOM     16  O   UNL     1       0.567  11.624  18.550  0.00  0.00    +0.000 OA
ENDBRANCH   5   6
BRANCH   1  20
ATOM     17  C   UNL     1       6.716   5.388  15.665  0.00  0.00    +0.000 A 
ATOM     18  C   UNL     1       6.887   5.812  16.987  0.00  0.00    +0.000 A 
ATOM     19  C   UNL     1       5.914   5.539  17.955  0.00  0.00    +0.000 A 
ATOM     20  C   UNL     1       4.732   4.878  17.608  0.00  0.00    +0.000 A 
ATOM     21  C   UNL     1       4.533   4.544  16.260  0.00  0.00    +0.000 A 
ATOM     22  C   UNL     1       5.526   4.773  15.299  0.00  0.00    +0.000 A 
BRANCH  17  24
ATOM     23  C   UNL     1       7.649   5.130  13.510  0.00  0.00    +0.000 C 
ATOM     24  O   UNL     1       7.743   5.693  14.817  0.00  0.00    +0.000 OA
ENDBRANCH  17  24
ENDBRANCH   1  20
BRANCH   3  25
ATOM     25  C   UNL     1       1.616   2.465  20.877  0.00  0.00    +0.000 C 
ATOM     26  F   UNL     1       1.433   1.334  20.141  0.00  0.00    +0.000 F 
ATOM     27  F   UNL     1       2.208   2.078  22.036  0.00  0.00    +0.000 F 
ATOM     28  F   UNL     1       0.371   2.913  21.195  0.00  0.00    +0.000 F 
ENDBRANCH   3  25
TORSDOF 4
ENDMDL
MODEL 2
REMARK VINA RESULT:      -8.4      2.172      6.378
REMARK  Name = 
REMARK  5 active torsions:
REMARK  status: ('A' for Active; 'I' for Inactive)
REMARK    1  A    between atoms: C_1  and  O_2
REMARK    2  A    between atoms: O_2  and  C_3
REMARK    3  A    between atoms: C_6  and  C_7
REMARK    4  A    between atoms: C_9  and  C_10
REMARK    5  A    between atoms: N_15  and  C_16
REMARK                            x       y       z     vdW  Elec       q    Type
REMARK                         _______ _______ _______ _____ _____    ______ ____
ROOT
ATOM      1  C   UNL     1       2.072   6.129  19.886  0.00  0.00    +0.000 A 
ATOM      2  C   UNL     1       1.650   5.290  20.907  0.00  0.00    +0.000 A 
ATOM      3  C   UNL     1       2.047   3.982  20.544  0.00  0.00    +0.000 A 
ATOM      4  N   UNL     1       2.625   3.992  19.331  0.00  0.00    +0.000 NA
ATOM      5  N   UNL     1       2.830   5.309  19.053  0.00  0.00    +0.000 N 
ENDROOT
BRANCH   5   6
ATOM      6  C   UNL     1       3.873   5.638  18.138  0.00  0.00    +0.000 A 
ATOM      7  C   UNL     1       5.078   6.214  18.603  0.00  0.00    +0.000 A 
ATOM      8  C   UNL     1       6.214   6.223  17.798  0.00  0.00    +0.000 A 
ATOM      9  C   UNL     1       6.100   5.650  16.548  0.00  0.00    +0.000 A 
ATOM     10  C   UNL     1       4.893   5.172  16.022  0.00  0.00    +0.000 A 
ATOM     11  C   UNL     1       3.762   5.169  16.815  0.00  0.00    +0.000 A 
ATOM     12  C   UNL     1       5.047   4.478  14.696  0.00  0.00    +0.000 C 
ATOM     13  C   UNL     1       6.335   3.684  14.881  0.00  0.00    +0.000 C 
ATOM     14  S   UNL     1       7.443   4.843  15.728  0.00  0.00    +0.000 S 
ATOM     15  O   UNL     1       8.215   4.135  16.727  0.00  0.00    +0.000 OA
ATOM     16  O   UNL     1       8.015   5.764  14.777  0.00  0.00    +0.000 OA
ENDBRANCH   5   6
BRANCH   1  20
ATOM     17  C   UNL     1       1.203  10.287  19.274  0.00  0.00    +0.000 A 
ATOM     18  C   UNL     1       1.786   9.525  18.257  0.00  0.00    +0.000 A 
ATOM     19  C   UNL     1       2.079   8.171  18.457  0.00  0.00    +0.000 A 
ATOM     20  C   UNL     1       1.834   7.567  19.694  0.00  0.00    +0.000 A 
ATOM     21  C   UNL     1       1.337   8.367  20.733  0.00  0.00    +0.000 A 
ATOM     22  C   UNL     1       0.999   9.709  20.521  0.00  0.00    +0.000 A 
BRANCH  17  24
ATOM     23  C   UNL     1       2.059  12.339  18.475  0.00  0.00    +0.000 C 
ATOM     24  O   UNL     1       0.944  11.589  18.953  0.00  0.00    +0.000 OA
ENDBRANCH  17  24
ENDBRANCH   1  20
BRANCH   3  25
ATOM     25  C   UNL     1       1.862   2.717  21.337  0.00  0.00    +0.000 C 
ATOM     26  F   UNL     1       3.014   2.339  21.959  0.00  0.00    +0.000 F 
ATOM     27  F   UNL     1       0.922   2.837  22.309  0.00  0.00    +0.000 F 
ATOM     28  F   UNL     1       1.495   1.667  20.554  0.00  0.00    +0.000 F 
ENDBRANCH   3  25
TORSDOF 4
ENDMDL
MODEL 3
REMARK VINA RESULT:      -8.2      0.477      1.077
REMARK  Name = 
REMARK  5 active torsions:
REMARK  status: ('A' for Active; 'I' for Inactive)
REMARK    1  A    between atoms: C_1  and  O_2
REMARK    2  A    between atoms: O_2  and  C_3
REMARK    3  A    between atoms: C_6  and  C_7
REMARK    4  A    between atoms: C_9  and  C_10
REMARK    5  A    between atoms: N_15  and  C_16
REMARK                            x       y       z     vdW  Elec       q    Type
REMARK                         _______ _______ _______ _____ _____    ______ ____
ROOT
ATOM      1  C   UNL     1       3.605   4.571  18.935  0.00  0.00    +0.000 A 
ATOM      2  C   UNL     1       3.075   3.351  19.329  0.00  0.00    +0.000 A 
ATOM      3  C   UNL     1       2.154   3.628  20.367  0.00  0.00    +0.000 A 
ATOM      4  N   UNL     1       2.158   4.940  20.653  0.00  0.00    +0.000 NA
ATOM      5  N   UNL     1       2.864   5.517  19.642  0.00  0.00    +0.000 N 
ENDROOT
BRANCH   5   6
ATOM      6  C   UNL     1       2.606   6.888  19.351  0.00  0.00    +0.000 A 
ATOM      7  C   UNL     1       2.637   7.355  18.015  0.00  0.00    +0.000 A 
ATOM      8  C   UNL     1       2.063   8.578  17.680  0.00  0.00    +0.000 A 
ATOM      9  C   UNL     1       1.474   9.294  18.703  0.00  0.00    +0.000 A 
ATOM     10  C   UNL     1       1.525   8.908  20.048  0.00  0.00    +0.000 A 
ATOM     11  C   UNL     1       2.101   7.698  20.385  0.00  0.00    +0.000 A 
ATOM     12  C   UNL     1       0.703   9.782  20.957  0.00  0.00    +0.000 C 
ATOM     13  C   UNL     1      -0.553  10.034  20.132  0.00  0.00    +0.000 C 
ATOM     14  S   UNL     1       0.080  10.354  18.463  0.00  0.00    +0.000 S 
ATOM     15  O   UNL     1      -0.790   9.734  17.486  0.00  0.00    +0.000 OA
ATOM     16  O   UNL     1       0.552  11.713  18.366  0.00  0.00    +0.000 OA
ENDBRANCH   5   6
BRANCH   1  20
ATOM     17  C   UNL     1       6.643   5.570  16.074  0.00  0.00    +0.000 A 
ATOM     18  C   UNL     1       5.600   4.706  15.730  0.00  0.00    +0.000 A 
ATOM     19  C   UNL     1       4.612   4.371  16.664  0.00  0.00    +0.000 A 
ATOM     20  C   UNL     1       4.677   4.861  17.973  0.00  0.00    +0.000 A 
ATOM     21  C   UNL     1       5.781   5.650  18.328  0.00  0.00    +0.000 A 
ATOM     22  C   UNL     1       6.743   6.025  17.383  0.00  0.00    +0.000 A 
BRANCH  17  24
ATOM     23  C   UNL     1       7.346   5.099  13.868  0.00  0.00    +0.000 C 
ATOM     24  O   UNL     1       7.532   5.840  15.072  0.00  0.00    +0.000 OA
ENDBRANCH  17  24
ENDBRANCH   1  20
BRANCH   3  25
ATOM     25  C   UNL     1       1.282   2.646  21.101  0.00  0.00    +0.000 C 
ATOM     26  F   UNL     1       0.047   2.547  20.535  0.00  0.00    +0.000 F 
ATOM     27  F   UNL     1       1.799   1.391  21.118  0.00  0.00    +0.000 F 
ATOM     28  F   UNL     1       1.076   3.010  22.396  0.00  0.00    +0.000 F 
ENDBRANCH   3  25
TORSDOF 4
ENDMDL
MODEL 4
REMARK VINA RESULT:      -8.2      1.602      2.126
REMARK  Name = 
REMARK  5 active torsions:
REMARK  status: ('A' for Active; 'I' for Inactive)
REMARK    1  A    between atoms: C_1  and  O_2
REMARK    2  A    between atoms: O_2  and  C_3
REMARK    3  A    between atoms: C_6  and  C_7
REMARK    4  A    between atoms: C_9  and  C_10
REMARK    5  A    between atoms: N_15  and  C_16
REMARK                            x       y       z     vdW  Elec       q    Type
REMARK                         _______ _______ _______ _____ _____    ______ ____
ROOT
ATOM      1  C   UNL     1       3.669   5.161  18.818  0.00  0.00    +0.000 A 
ATOM      2  C   UNL     1       3.233   3.849  18.711  0.00  0.00    +0.000 A 
ATOM      3  C   UNL     1       2.012   3.769  19.422  0.00  0.00    +0.000 A 
ATOM      4  N   UNL     1       1.734   4.949  19.999  0.00  0.00    +0.000 NA
ATOM      5  N   UNL     1       2.617   5.826  19.446  0.00  0.00    +0.000 N 
ENDROOT
BRANCH   5   6
ATOM      6  C   UNL     1       2.257   7.205  19.425  0.00  0.00    +0.000 A 
ATOM      7  C   UNL     1       2.073   7.878  18.194  0.00  0.00    +0.000 A 
ATOM      8  C   UNL     1       1.401   9.096  18.147  0.00  0.00    +0.000 A 
ATOM      9  C   UNL     1       0.933   9.599  19.344  0.00  0.00    +0.000 A 
ATOM     10  C   UNL     1       1.195   9.010  20.587  0.00  0.00    +0.000 A 
ATOM     11  C   UNL     1       1.870   7.805  20.638  0.00  0.00    +0.000 A 
ATOM     12  C   UNL     1       0.473   9.670  21.731  0.00  0.00    +0.000 C 
ATOM     13  C   UNL     1      -0.899   9.962  21.136  0.00  0.00    +0.000 C 
ATOM     14  S   UNL     1      -0.529  10.585  19.473  0.00  0.00    +0.000 S 
ATOM     15  O   UNL     1      -1.501  10.067  18.533  0.00  0.00    +0.000 OA
ATOM     16  O   UNL     1      -0.139  11.971  19.541  0.00  0.00    +0.000 OA
ENDBRANCH   5   6
BRANCH   1  20
ATOM     17  C   UNL     1       7.304   7.090  17.602  0.00  0.00    +0.000 A 
ATOM     18  C   UNL     1       6.122   7.281  16.880  0.00  0.00    +0.000 A 
ATOM     19  C   UNL     1       4.937   6.646  17.270  0.00  0.00    +0.000 A 
ATOM     20  C   UNL     1       4.925   5.773  18.362  0.00  0.00    +0.000 A 
ATOM     21  C   UNL     1       6.138   5.519  19.018  0.00  0.00    +0.000 A 
ATOM     22  C   UNL     1       7.314   6.189  18.660  0.00  0.00    +0.000 A 
BRANCH  17  24
ATOM     23  C   UNL     1       8.530   9.110  17.636  0.00  0.00    +0.000 C 
ATOM     24  O   UNL     1       8.389   7.780  17.139  0.00  0.00    +0.000 OA
ENDBRANCH  17  24
ENDBRANCH   1  20
BRANCH   3  25
ATOM     25  C   UNL     1       1.117   2.569  19.570  0.00  0.00    +0.000 C 
ATOM     26  F   UNL     1       0.573   2.497  20.816  0.00  0.00    +0.000 F 
ATOM     27  F   UNL     1       0.078   2.575  18.696  0.00  0.00    +0.000 F 
ATOM     28  F   UNL     1       1.789   1.400  19.384  0.00  0.00    +0.000 F 
ENDBRANCH   3  25
TORSDOF 4
ENDMDL
MODEL 5
REMARK VINA RESULT:      -8.0      0.788      1.166
REMARK  Name = 
REMARK  5 active torsions:
REMARK  status: ('A' for Active; 'I' for Inactive)
REMARK    1  A    between atoms: C_1  and  O_2
REMARK    2  A    between atoms: O_2  and  C_3
REMARK    3  A    between atoms: C_6  and  C_7
REMARK    4  A    between atoms: C_9  and  C_10
REMARK    5  A    between atoms: N_15  and  C_16
REMARK                            x       y       z     vdW  Elec       q    Type
REMARK                         _______ _______ _______ _____ _____    ______ ____
ROOT
ATOM      1  C   UNL     1       3.570   4.313  17.815  0.00  0.00    +0.000 A 
ATOM      2  C   UNL     1       2.946   3.080  17.938  0.00  0.00    +0.000 A 
ATOM      3  C   UNL     1       2.046   3.190  19.025  0.00  0.00    +0.000 A 
ATOM      4  N   UNL     1       2.151   4.403  19.592  0.00  0.00    +0.000 NA
ATOM      5  N   UNL     1       2.902   5.133  18.723  0.00  0.00    +0.000 N 
ENDROOT
BRANCH   5   6
ATOM      6  C   UNL     1       2.752   6.550  18.744  0.00  0.00    +0.000 A 
ATOM      7  C   UNL     1       2.796   7.293  17.541  0.00  0.00    +0.000 A 
ATOM      8  C   UNL     1       2.318   8.600  17.499  0.00  0.00    +0.000 A 
ATOM      9  C   UNL     1       1.809   9.118  18.673  0.00  0.00    +0.000 A 
ATOM     10  C   UNL     1       1.853   8.445  19.900  0.00  0.00    +0.000 A 
ATOM     11  C   UNL     1       2.334   7.151  19.947  0.00  0.00    +0.000 A 
ATOM     12  C   UNL     1       1.122   9.159  21.005  0.00  0.00    +0.000 C 
ATOM     13  C   UNL     1      -0.124   9.680  20.299  0.00  0.00    +0.000 C 
ATOM     14  S   UNL     1       0.501  10.308  18.717  0.00  0.00    +0.000 S 
ATOM     15  O   UNL     1      -0.434   9.983  17.661  0.00  0.00    +0.000 OA
ATOM     16  O   UNL     1       1.082  11.615  18.900  0.00  0.00    +0.000 OA
ENDBRANCH   5   6
BRANCH   1  20
ATOM     17  C   UNL     1       6.851   5.356  15.252  0.00  0.00    +0.000 A 
ATOM     18  C   UNL     1       6.840   5.756  16.592  0.00  0.00    +0.000 A 
ATOM     19  C   UNL     1       5.767   5.424  17.428  0.00  0.00    +0.000 A 
ATOM     20  C   UNL     1       4.664   4.725  16.925  0.00  0.00    +0.000 A 
ATOM     21  C   UNL     1       4.647   4.414  15.558  0.00  0.00    +0.000 A 
ATOM     22  C   UNL     1       5.740   4.703  14.731  0.00  0.00    +0.000 A 
BRANCH  17  24
ATOM     23  C   UNL     1       7.953   5.361  13.162  0.00  0.00    +0.000 C 
ATOM     24  O   UNL     1       7.961   5.718  14.543  0.00  0.00    +0.000 OA
ENDBRANCH  17  24
ENDBRANCH   1  20
BRANCH   3  25
ATOM     25  C   UNL     1       1.099   2.140  19.537  0.00  0.00    +0.000 C 
ATOM     26  F   UNL     1       0.654   2.432  20.791  0.00  0.00    +0.000 F 
ATOM     27  F   UNL     1      -0.005   1.999  18.760  0.00  0.00    +0.000 F 
ATOM     28  F   UNL     1       1.687   0.915  19.622  0.00  0.00    +0.000 F 
ENDBRANCH   3  25
TORSDOF 4
ENDMDL
MODEL 6
REMARK VINA RESULT:      -7.9      5.058      8.079
REMARK  Name = 
REMARK  5 active torsions:
REMARK  status: ('A' for Active; 'I' for Inactive)
REMARK    1  A    between atoms: C_1  and  O_2
REMARK    2  A    between atoms: O_2  and  C_3
REMARK    3  A    between atoms: C_6  and  C_7
REMARK    4  A    between atoms: C_9  and  C_10
REMARK    5  A    between atoms: N_15  and  C_16
REMARK                            x       y       z     vdW  Elec       q    Type
REMARK                         _______ _______ _______ _____ _____    ______ ____
ROOT
ATOM      1  C   UNL     1       0.172  11.818  18.763  0.00  0.00    +0.000 A 
ATOM      2  C   UNL     1      -1.148  12.201  18.583  0.00  0.00    +0.000 A 
ATOM      3  C   UNL     1      -1.845  11.052  18.139  0.00  0.00    +0.000 A 
ATOM      4  N   UNL     1      -0.994  10.024  17.985  0.00  0.00    +0.000 NA
ATOM      5  N   UNL     1       0.162  10.437  18.572  0.00  0.00    +0.000 N 
ENDROOT
BRANCH   5   6
ATOM      6  C   UNL     1       1.056   9.436  19.053  0.00  0.00    +0.000 A 
ATOM      7  C   UNL     1       0.945   8.955  20.379  0.00  0.00    +0.000 A 
ATOM      8  C   UNL     1       1.562   7.764  20.753  0.00  0.00    +0.000 A 
ATOM      9  C   UNL     1       2.273   7.094  19.777  0.00  0.00    +0.000 A 
ATOM     10  C   UNL     1       2.488   7.601  18.490  0.00  0.00    +0.000 A 
ATOM     11  C   UNL     1       1.884   8.787  18.118  0.00  0.00    +0.000 A 
ATOM     12  C   UNL     1       3.181   6.633  17.569  0.00  0.00    +0.000 C 
ATOM     13  C   UNL     1       2.522   5.305  17.923  0.00  0.00    +0.000 C 
ATOM     14  S   UNL     1       2.431   5.333  19.734  0.00  0.00    +0.000 S 
ATOM     15  O   UNL     1       1.173   4.761  20.166  0.00  0.00    +0.000 OA
ATOM     16  O   UNL     1       3.709   4.977  20.298  0.00  0.00    +0.000 OA
ENDBRANCH   5   6
BRANCH   1  20
ATOM     17  C   UNL     1       3.492  14.344  19.770  0.00  0.00    +0.000 A 
ATOM     18  C   UNL     1       3.234  14.006  18.438  0.00  0.00    +0.000 A 
ATOM     19  C   UNL     1       2.157  13.175  18.108  0.00  0.00    +0.000 A 
ATOM     20  C   UNL     1       1.346  12.631  19.109  0.00  0.00    +0.000 A 
ATOM     21  C   UNL     1       1.675  12.903  20.445  0.00  0.00    +0.000 A 
ATOM     22  C   UNL     1       2.722  13.772  20.775  0.00  0.00    +0.000 A 
BRANCH  17  24
ATOM     23  C   UNL     1       5.423  15.343  18.846  0.00  0.00    +0.000 C 
ATOM     24  O   UNL     1       4.555  15.179  19.966  0.00  0.00    +0.000 OA
ENDBRANCH  17  24
ENDBRANCH   1  20
BRANCH   3  25
ATOM     25  C   UNL     1      -3.315  10.932  17.843  0.00  0.00    +0.000 C 
ATOM     26  F   UNL     1      -3.709   9.631  17.764  0.00  0.00    +0.000 F 
ATOM     27  F   UNL     1      -4.094  11.512  18.793  0.00  0.00    +0.000 F 
ATOM     28  F   UNL     1      -3.648  11.500  16.653  0.00  0.00    +0.000 F 
ENDBRANCH   3  25
TORSDOF 4
ENDMDL
MODEL 7
REMARK VINA RESULT:      -7.8      5.041      8.152
REMARK  Name = 
REMARK  5 active torsions:
REMARK  status: ('A' for Active; 'I' for Inactive)
REMARK    1  A    between atoms: C_1  and  O_2
REMARK    2  A    between atoms: O_2  and  C_3
REMARK    3  A    between atoms: C_6  and  C_7
REMARK    4  A    between atoms: C_9  and  C_10
REMARK    5  A    between atoms: N_15  and  C_16
REMARK                            x       y       z     vdW  Elec       q    Type
REMARK                         _______ _______ _______ _____ _____    ______ ____
ROOT
ATOM      1  C   UNL     1       0.048  11.883  18.720  0.00  0.00    +0.000 A 
ATOM      2  C   UNL     1      -1.280  12.229  18.521  0.00  0.00    +0.000 A 
ATOM      3  C   UNL     1      -1.934  11.066  18.051  0.00  0.00    +0.000 A 
ATOM      4  N   UNL     1      -1.050  10.066  17.899  0.00  0.00    +0.000 NA
ATOM      5  N   UNL     1       0.083  10.505  18.512  0.00  0.00    +0.000 N 
ENDROOT
BRANCH   5   6
ATOM      6  C   UNL     1       0.997   9.524  18.996  0.00  0.00    +0.000 A 
ATOM      7  C   UNL     1       0.932   9.086  20.339  0.00  0.00    +0.000 A 
ATOM      8  C   UNL     1       1.568   7.911  20.731  0.00  0.00    +0.000 A 
ATOM      9  C   UNL     1       2.251   7.213  19.756  0.00  0.00    +0.000 A 
ATOM     10  C   UNL     1       2.422   7.680  18.446  0.00  0.00    +0.000 A 
ATOM     11  C   UNL     1       1.799   8.849  18.056  0.00  0.00    +0.000 A 
ATOM     12  C   UNL     1       3.091   6.686  17.535  0.00  0.00    +0.000 C 
ATOM     13  C   UNL     1       2.451   5.367  17.953  0.00  0.00    +0.000 C 
ATOM     14  S   UNL     1       2.418   5.453  19.764  0.00  0.00    +0.000 S 
ATOM     15  O   UNL     1       1.179   4.889  20.254  0.00  0.00    +0.000 OA
ATOM     16  O   UNL     1       3.716   5.122  20.297  0.00  0.00    +0.000 OA
ENDBRANCH   5   6
BRANCH   1  20
ATOM     17  C   UNL     1       3.490  14.192  19.832  0.00  0.00    +0.000 A 
ATOM     18  C   UNL     1       2.599  13.731  20.806  0.00  0.00    +0.000 A 
ATOM     19  C   UNL     1       1.470  12.985  20.445  0.00  0.00    +0.000 A 
ATOM     20  C   UNL     1       1.190  12.726  19.099  0.00  0.00    +0.000 A 
ATOM     21  C   UNL     1       2.042  13.276  18.130  0.00  0.00    +0.000 A 
ATOM     22  C   UNL     1       3.197  13.981  18.490  0.00  0.00    +0.000 A 
BRANCH  17  24
ATOM     23  C   UNL     1       5.003  14.527  21.616  0.00  0.00    +0.000 C 
ATOM     24  O   UNL     1       4.565  14.888  20.307  0.00  0.00    +0.000 OA
ENDBRANCH  17  24
ENDBRANCH   1  20
BRANCH   3  25
ATOM     25  C   UNL     1      -3.395  10.906  17.726  0.00  0.00    +0.000 C 
ATOM     26  F   UNL     1      -4.188  11.399  18.718  0.00  0.00    +0.000 F 
ATOM     27  F   UNL     1      -3.757  11.552  16.588  0.00  0.00    +0.000 F 
ATOM     28  F   UNL     1      -3.748   9.601  17.574  0.00  0.00    +0.000 F 
ENDBRANCH   3  25
TORSDOF 4
ENDMDL
MODEL 8
REMARK VINA RESULT:      -7.6      4.965      6.421
REMARK  Name = 
REMARK  5 active torsions:
REMARK  status: ('A' for Active; 'I' for Inactive)
REMARK    1  A    between atoms: C_1  and  O_2
REMARK    2  A    between atoms: O_2  and  C_3
REMARK    3  A    between atoms: C_6  and  C_7
REMARK    4  A    between atoms: C_9  and  C_10
REMARK    5  A    between atoms: N_15  and  C_16
REMARK                            x       y       z     vdW  Elec       q    Type
REMARK                         _______ _______ _______ _____ _____    ______ ____
ROOT
ATOM      1  C   UNL     1       6.550   5.491  16.035  0.00  0.00    +0.000 A 
ATOM      2  C   UNL     1       6.802   5.309  14.683  0.00  0.00    +0.000 A 
ATOM      3  C   UNL     1       6.065   4.169  14.286  0.00  0.00    +0.000 A 
ATOM      4  N   UNL     1       5.441   3.627  15.344  0.00  0.00    +0.000 NA
ATOM      5  N   UNL     1       5.562   4.555  16.334  0.00  0.00    +0.000 N 
ENDROOT
BRANCH   5   6
ATOM      6  C   UNL     1       4.588   4.545  17.374  0.00  0.00    +0.000 A 
ATOM      7  C   UNL     1       3.352   5.213  17.204  0.00  0.00    +0.000 A 
ATOM      8  C   UNL     1       2.276   4.935  18.043  0.00  0.00    +0.000 A 
ATOM      9  C   UNL     1       2.479   3.989  19.028  0.00  0.00    +0.000 A 
ATOM     10  C   UNL     1       3.721   3.394  19.287  0.00  0.00    +0.000 A 
ATOM     11  C   UNL     1       4.792   3.675  18.462  0.00  0.00    +0.000 A 
ATOM     12  C   UNL     1       3.662   2.304  20.323  0.00  0.00    +0.000 C 
ATOM     13  C   UNL     1       2.364   1.584  19.977  0.00  0.00    +0.000 C 
ATOM     14  S   UNL     1       1.199   2.929  19.629  0.00  0.00    +0.000 S 
ATOM     15  O   UNL     1       0.357   2.565  18.509  0.00  0.00    +0.000 OA
ATOM     16  O   UNL     1       0.696   3.478  20.864  0.00  0.00    +0.000 OA
ENDBRANCH   5   6
BRANCH   1  20
ATOM     17  C   UNL     1       8.419   8.297  18.691  0.00  0.00    +0.000 A 
ATOM     18  C   UNL     1       8.391   6.934  19.001  0.00  0.00    +0.000 A 
ATOM     19  C   UNL     1       7.775   6.018  18.141  0.00  0.00    +0.000 A 
ATOM     20  C   UNL     1       7.135   6.456  16.977  0.00  0.00    +0.000 A 
ATOM     21  C   UNL     1       7.090   7.835  16.728  0.00  0.00    +0.000 A 
ATOM     22  C   UNL     1       7.747   8.748  17.561  0.00  0.00    +0.000 A 
BRANCH  17  24
ATOM     23  C   UNL     1       9.362  10.413  19.154  0.00  0.00    +0.000 C 
ATOM     24  O   UNL     1       9.068   9.089  19.595  0.00  0.00    +0.000 OA
ENDBRANCH  17  24
ENDBRANCH   1  20
BRANCH   3  25
ATOM     25  C   UNL     1       5.967   3.580  12.905  0.00  0.00    +0.000 C 
ATOM     26  F   UNL     1       6.814   4.195  12.033  0.00  0.00    +0.000 F 
ATOM     27  F   UNL     1       6.274   2.258  12.872  0.00  0.00    +0.000 F 
ATOM     28  F   UNL     1       4.720   3.713  12.376  0.00  0.00    +0.000 F 
ENDBRANCH   3  25
TORSDOF 4
ENDMDL
MODEL 9
REMARK VINA RESULT:      -7.5      4.978      6.443
REMARK  Name = 
REMARK  5 active torsions:
REMARK  status: ('A' for Active; 'I' for Inactive)
REMARK    1  A    between atoms: C_1  and  O_2
REMARK    2  A    between atoms: O_2  and  C_3
REMARK    3  A    between atoms: C_6  and  C_7
REMARK    4  A    between atoms: C_9  and  C_10
REMARK    5  A    between atoms: N_15  and  C_16
REMARK                            x       y       z     vdW  Elec       q    Type
REMARK                         _______ _______ _______ _____ _____    ______ ____
ROOT
ATOM      1  C   UNL     1       6.589   5.298  15.900  0.00  0.00    +0.000 A 
ATOM      2  C   UNL     1       6.813   5.131  14.542  0.00  0.00    +0.000 A 
ATOM      3  C   UNL     1       5.990   4.057  14.126  0.00  0.00    +0.000 A 
ATOM      4  N   UNL     1       5.338   3.537  15.180  0.00  0.00    +0.000 NA
ATOM      5  N   UNL     1       5.538   4.429  16.189  0.00  0.00    +0.000 N 
ENDROOT
BRANCH   5   6
ATOM      6  C   UNL     1       4.577   4.466  17.241  0.00  0.00    +0.000 A 
ATOM      7  C   UNL     1       3.357   5.162  17.072  0.00  0.00    +0.000 A 
ATOM      8  C   UNL     1       2.284   4.928  17.929  0.00  0.00    +0.000 A 
ATOM      9  C   UNL     1       2.476   3.998  18.931  0.00  0.00    +0.000 A 
ATOM     10  C   UNL     1       3.704   3.377  19.187  0.00  0.00    +0.000 A 
ATOM     11  C   UNL     1       4.773   3.614  18.344  0.00  0.00    +0.000 A 
ATOM     12  C   UNL     1       3.631   2.310  20.246  0.00  0.00    +0.000 C 
ATOM     13  C   UNL     1       2.311   1.616  19.930  0.00  0.00    +0.000 C 
ATOM     14  S   UNL     1       1.176   2.983  19.569  0.00  0.00    +0.000 S 
ATOM     15  O   UNL     1       0.312   2.619  18.466  0.00  0.00    +0.000 OA
ATOM     16  O   UNL     1       0.703   3.570  20.798  0.00  0.00    +0.000 OA
ENDBRANCH   5   6
BRANCH   1  20
ATOM     17  C   UNL     1       8.362   7.951  18.769  0.00  0.00    +0.000 A 
ATOM     18  C   UNL     1       7.991   8.417  17.504  0.00  0.00    +0.000 A 
ATOM     19  C   UNL     1       7.420   7.552  16.564  0.00  0.00    +0.000 A 
ATOM     20  C   UNL     1       7.253   6.194  16.857  0.00  0.00    +0.000 A 
ATOM     21  C   UNL     1       7.718   5.724  18.093  0.00  0.00    +0.000 A 
ATOM     22  C   UNL     1       8.245   6.596  19.053  0.00  0.00    +0.000 A 
BRANCH  17  24
ATOM     23  C   UNL     1       9.126  10.173  19.024  0.00  0.00    +0.000 C 
ATOM     24  O   UNL     1       8.887   8.894  19.608  0.00  0.00    +0.000 OA
ENDBRANCH  17  24
ENDBRANCH   1  20
BRANCH   3  25
ATOM     25  C   UNL     1       5.834   3.511  12.733  0.00  0.00    +0.000 C 
ATOM     26  F   UNL     1       4.573   3.703  12.255  0.00  0.00    +0.000 F 
ATOM     27  F   UNL     1       6.676   4.092  11.841  0.00  0.00    +0.000 F 
ATOM     28  F   UNL     1       6.057   2.169  12.679  0.00  0.00    +0.000 F 
ENDBRANCH   3  25
TORSDOF 4
ENDMDL
