MODEL 1
REMARK VINA RESULT:      -8.0      0.000      0.000
REMARK  Name = 
REMARK  9 active torsions:
REMARK  status: ('A' for Active; 'I' for Inactive)
REMARK    1  A    between atoms: C_1  and  C_2
REMARK    2  A    between atoms: C_2  and  C_3
REMARK    3  A    between atoms: C_2  and  C_4
REMARK    4  A    between atoms: N_7  and  C_8
REMARK    5  A    between atoms: C_11  and  S_12
REMARK    6  A    between atoms: S_12  and  N_13
REMARK    7  A    between atoms: C_19  and  C_20
REMARK    8  A    between atoms: C_20  and  C_21
REMARK    9  A    between atoms: C_20  and  C_22
REMARK                            x       y       z     vdW  Elec       q    Type
REMARK                         _______ _______ _______ _____ _____    ______ ____
ROOT
ATOM      1  C   UNL     1       2.614   4.327  18.496  0.00  0.00    +0.000 C 
ATOM      2  C   UNL     1       2.301   5.610  18.276  0.00  0.00    +0.000 C 
ATOM      3  C   UNL     1       3.243   6.581  17.662  0.00  0.00    +0.000 C 
ATOM      4  N   UNL     1       3.217   7.874  17.768  0.00  0.00    +0.000 NA
ATOM      5  C   UNL     1       4.336   5.964  16.875  0.00  0.00    +0.000 C 
ATOM      6  C   UNL     1       4.620   4.654  16.925  0.00  0.00    +0.000 C 
ATOM      7  C   UNL     1       3.838   3.769  17.845  0.00  0.00    +0.000 C 
ATOM      8  O   UNL     1       4.163   2.600  18.030  0.00  0.00    +0.000 OA
ENDROOT
BRANCH   4   9
ATOM      9  C   UNL     1       2.273   8.565  18.555  0.00  0.00    +0.000 A 
ATOM     10  C   UNL     1       1.534   9.659  18.080  0.00  0.00    +0.000 A 
ATOM     11  C   UNL     1       0.688  10.382  18.922  0.00  0.00    +0.000 A 
ATOM     12  C   UNL     1       0.469   9.928  20.218  0.00  0.00    +0.000 A 
ATOM     13  C   UNL     1       1.106   8.778  20.690  0.00  0.00    +0.000 A 
ATOM     14  C   UNL     1       2.012   8.106  19.852  0.00  0.00    +0.000 A 
BRANCH  12  15
ATOM     15  S   UNL     1      -0.622  10.847  21.253  0.00  0.00    +0.000 S 
ATOM     16  O   UNL     1      -1.650  11.469  20.447  0.00  0.00    +0.000 OA
ATOM     17  O   UNL     1      -0.919  10.079  22.436  0.00  0.00    +0.000 OA
BRANCH  15  18
ATOM     18  N   UNL     1       0.380  12.104  21.756  0.00  0.00    +0.000 NA
ATOM     19  H   UNL     1       1.348  11.909  21.494  0.00  0.00    +0.000 HD
ATOM     20  H   UNL     1       0.025  12.996  21.412  0.00  0.00    +0.000 HD
ENDBRANCH  15  18
ENDBRANCH  12  15
ENDBRANCH   4   9
BRANCH   1  22
ATOM     21  C   UNL     1       1.169   4.115  20.621  0.00  0.00    +0.000 C 
ATOM     22  C   UNL     1       1.838   3.403  19.429  0.00  0.00    +0.000 C 
ATOM     23  C   UNL     1       0.816   2.539  18.682  0.00  0.00    +0.000 C 
ENDBRANCH   1  22
BRANCH   6  24
ATOM     24  C   UNL     1       5.723   3.981  16.121  0.00  0.00    +0.000 C 
ATOM     25  C   UNL     1       5.512   4.238  14.626  0.00  0.00    +0.000 C 
ATOM     26  C   UNL     1       7.140   4.391  16.535  0.00  0.00    +0.000 C 
ENDBRANCH   6  24
TORSDOF 5
ENDMDL
MODEL 2
REMARK VINA RESULT:      -7.3      0.762      1.340
REMARK  Name = 
REMARK  9 active torsions:
REMARK  status: ('A' for Active; 'I' for Inactive)
REMARK    1  A    between atoms: C_1  and  C_2
REMARK    2  A    between atoms: C_2  and  C_3
REMARK    3  A    between atoms: C_2  and  C_4
REMARK    4  A    between atoms: N_7  and  C_8
REMARK    5  A    between atoms: C_11  and  S_12
REMARK    6  A    between atoms: S_12  and  N_13
REMARK    7  A    between atoms: C_19  and  C_20
REMARK    8  A    between atoms: C_20  and  C_21
REMARK    9  A    between atoms: C_20  and  C_22
REMARK                            x       y       z     vdW  Elec       q    Type
REMARK                         _______ _______ _______ _____ _____    ______ ____
ROOT
ATOM      1  C   UNL     1       2.688   4.375  18.436  0.00  0.00    +0.000 C 
ATOM      2  C   UNL     1       2.406   5.667  18.229  0.00  0.00    +0.000 C 
ATOM      3  C   UNL     1       3.345   6.605  17.561  0.00  0.00    +0.000 C 
ATOM      4  N   UNL     1       3.369   7.898  17.663  0.00  0.00    +0.000 NA
ATOM      5  C   UNL     1       4.374   5.949  16.719  0.00  0.00    +0.000 C 
ATOM      6  C   UNL     1       4.616   4.631  16.758  0.00  0.00    +0.000 C 
ATOM      7  C   UNL     1       3.854   3.775  17.723  0.00  0.00    +0.000 C 
ATOM      8  O   UNL     1       4.150   2.596  17.894  0.00  0.00    +0.000 OA
ENDROOT
BRANCH   4   9
ATOM      9  C   UNL     1       2.492   8.621  18.498  0.00  0.00    +0.000 A 
ATOM     10  C   UNL     1       2.096   8.169  19.766  0.00  0.00    +0.000 A 
ATOM     11  C   UNL     1       1.146   8.860  20.518  0.00  0.00    +0.000 A 
ATOM     12  C   UNL     1       0.683  10.091  20.062  0.00  0.00    +0.000 A 
ATOM     13  C   UNL     1       1.139  10.623  18.854  0.00  0.00    +0.000 A 
ATOM     14  C   UNL     1       2.039   9.877  18.075  0.00  0.00    +0.000 A 
BRANCH  12  15
ATOM     15  S   UNL     1      -0.500  10.954  21.042  0.00  0.00    +0.000 S 
ATOM     16  O   UNL     1       0.153  12.020  21.769  0.00  0.00    +0.000 OA
ATOM     17  O   UNL     1      -1.701  11.159  20.271  0.00  0.00    +0.000 OA
BRANCH  15  18
ATOM     18  N   UNL     1      -0.885   9.790  22.197  0.00  0.00    +0.000 NA
ATOM     19  H   UNL     1      -1.762  10.031  22.662  0.00  0.00    +0.000 HD
ATOM     20  H   UNL     1      -0.879   8.860  21.775  0.00  0.00    +0.000 HD
ENDBRANCH  15  18
ENDBRANCH  12  15
ENDBRANCH   4   9
BRANCH   1  22
ATOM     21  C   UNL     1       1.334   4.219  20.626  0.00  0.00    +0.000 C 
ATOM     22  C   UNL     1       1.932   3.479  19.414  0.00  0.00    +0.000 C 
ATOM     23  C   UNL     1       0.858   2.633  18.723  0.00  0.00    +0.000 C 
ENDBRANCH   1  22
BRANCH   6  24
ATOM     24  C   UNL     1       5.650   3.919  15.899  0.00  0.00    +0.000 C 
ATOM     25  C   UNL     1       5.379   4.196  14.417  0.00  0.00    +0.000 C 
ATOM     26  C   UNL     1       7.101   4.267  16.247  0.00  0.00    +0.000 C 
ENDBRANCH   6  24
TORSDOF 5
ENDMDL
MODEL 3
REMARK VINA RESULT:      -7.0      0.558      1.318
REMARK  Name = 
REMARK  9 active torsions:
REMARK  status: ('A' for Active; 'I' for Inactive)
REMARK    1  A    between atoms: C_1  and  C_2
REMARK    2  A    between atoms: C_2  and  C_3
REMARK    3  A    between atoms: C_2  and  C_4
REMARK    4  A    between atoms: N_7  and  C_8
REMARK    5  A    between atoms: C_11  and  S_12
REMARK    6  A    between atoms: S_12  and  N_13
REMARK    7  A    between atoms: C_19  and  C_20
REMARK    8  A    between atoms: C_20  and  C_21
REMARK    9  A    between atoms: C_20  and  C_22
REMARK                            x       y       z     vdW  Elec       q    Type
REMARK                         _______ _______ _______ _____ _____    ______ ____
ROOT
ATOM      1  C   UNL     1       2.412   4.607  18.519  0.00  0.00    +0.000 C 
ATOM      2  C   UNL     1       2.186   5.902  18.268  0.00  0.00    +0.000 C 
ATOM      3  C   UNL     1       3.213   6.808  17.692  0.00  0.00    +0.000 C 
ATOM      4  N   UNL     1       3.258   8.102  17.779  0.00  0.00    +0.000 NA
ATOM      5  C   UNL     1       4.308   6.116  16.970  0.00  0.00    +0.000 C 
ATOM      6  C   UNL     1       4.512   4.794  17.051  0.00  0.00    +0.000 C 
ATOM      7  C   UNL     1       3.633   3.970  17.941  0.00  0.00    +0.000 C 
ATOM      8  O   UNL     1       3.880   2.787  18.157  0.00  0.00    +0.000 OA
ENDROOT
BRANCH   4   9
ATOM      9  C   UNL     1       2.316   8.858  18.508  0.00  0.00    +0.000 A 
ATOM     10  C   UNL     1       1.829   8.466  19.765  0.00  0.00    +0.000 A 
ATOM     11  C   UNL     1       0.821   9.185  20.406  0.00  0.00    +0.000 A 
ATOM     12  C   UNL     1       0.385  10.386  19.855  0.00  0.00    +0.000 A 
ATOM     13  C   UNL     1       0.927  10.860  18.657  0.00  0.00    +0.000 A 
ATOM     14  C   UNL     1       1.887  10.085  17.988  0.00  0.00    +0.000 A 
BRANCH  12  15
ATOM     15  S   UNL     1      -0.874  11.285  20.697  0.00  0.00    +0.000 S 
ATOM     16  O   UNL     1      -1.984  11.525  19.802  0.00  0.00    +0.000 OA
ATOM     17  O   UNL     1      -1.046  10.741  22.021  0.00  0.00    +0.000 OA
BRANCH  15  18
ATOM     18  N   UNL     1      -0.129  12.781  20.905  0.00  0.00    +0.000 NA
ATOM     19  H   UNL     1       0.191  12.885  21.870  0.00  0.00    +0.000 HD
ATOM     20  H   UNL     1       0.603  12.910  20.206  0.00  0.00    +0.000 HD
ENDBRANCH  15  18
ENDBRANCH  12  15
ENDBRANCH   4   9
BRANCH   1  22
ATOM     21  C   UNL     1       0.975   2.478  18.744  0.00  0.00    +0.000 C 
ATOM     22  C   UNL     1       1.536   3.743  19.422  0.00  0.00    +0.000 C 
ATOM     23  C   UNL     1       2.229   3.381  20.739  0.00  0.00    +0.000 C 
ENDBRANCH   1  22
BRANCH   6  24
ATOM     24  C   UNL     1       5.613   4.045  16.315  0.00  0.00    +0.000 C 
ATOM     25  C   UNL     1       5.480   4.271  14.806  0.00  0.00    +0.000 C 
ATOM     26  C   UNL     1       7.030   4.396  16.781  0.00  0.00    +0.000 C 
ENDBRANCH   6  24
TORSDOF 5
ENDMDL
MODEL 4
REMARK VINA RESULT:      -6.9      0.805      1.175
REMARK  Name = 
REMARK  9 active torsions:
REMARK  status: ('A' for Active; 'I' for Inactive)
REMARK    1  A    between atoms: C_1  and  C_2
REMARK    2  A    between atoms: C_2  and  C_3
REMARK    3  A    between atoms: C_2  and  C_4
REMARK    4  A    between atoms: N_7  and  C_8
REMARK    5  A    between atoms: C_11  and  S_12
REMARK    6  A    between atoms: S_12  and  N_13
REMARK    7  A    between atoms: C_19  and  C_20
REMARK    8  A    between atoms: C_20  and  C_21
REMARK    9  A    between atoms: C_20  and  C_22
REMARK                            x       y       z     vdW  Elec       q    Type
REMARK                         _______ _______ _______ _____ _____    ______ ____
ROOT
ATOM      1  C   UNL     1       2.497   4.443  18.531  0.00  0.00    +0.000 C 
ATOM      2  C   UNL     1       2.222   5.738  18.335  0.00  0.00    +0.000 C 
ATOM      3  C   UNL     1       3.180   6.685  17.710  0.00  0.00    +0.000 C 
ATOM      4  N   UNL     1       3.200   7.977  17.832  0.00  0.00    +0.000 NA
ATOM      5  C   UNL     1       4.233   6.042  16.888  0.00  0.00    +0.000 C 
ATOM      6  C   UNL     1       4.474   4.724  16.915  0.00  0.00    +0.000 C 
ATOM      7  C   UNL     1       3.685   3.853  17.843  0.00  0.00    +0.000 C 
ATOM      8  O   UNL     1       3.975   2.672  18.006  0.00  0.00    +0.000 OA
ENDROOT
BRANCH   4   9
ATOM      9  C   UNL     1       2.300   8.688  18.651  0.00  0.00    +0.000 A 
ATOM     10  C   UNL     1       1.641   9.854  18.231  0.00  0.00    +0.000 A 
ATOM     11  C   UNL     1       0.840  10.588  19.107  0.00  0.00    +0.000 A 
ATOM     12  C   UNL     1       0.580  10.082  20.377  0.00  0.00    +0.000 A 
ATOM     13  C   UNL     1       1.134   8.868  20.789  0.00  0.00    +0.000 A 
ATOM     14  C   UNL     1       1.998   8.181  19.921  0.00  0.00    +0.000 A 
BRANCH  12  15
ATOM     15  S   UNL     1      -0.454  11.018  21.454  0.00  0.00    +0.000 S 
ATOM     16  O   UNL     1      -1.103  10.133  22.396  0.00  0.00    +0.000 OA
ATOM     17  O   UNL     1       0.239  12.215  21.860  0.00  0.00    +0.000 OA
BRANCH  15  18
ATOM     18  N   UNL     1      -1.665  11.520  20.396  0.00  0.00    +0.000 NA
ATOM     19  H   UNL     1      -1.958  12.472  20.623  0.00  0.00    +0.000 HD
ATOM     20  H   UNL     1      -1.362  11.396  19.430  0.00  0.00    +0.000 HD
ENDBRANCH  15  18
ENDBRANCH  12  15
ENDBRANCH   4   9
BRANCH   1  22
ATOM     21  C   UNL     1       1.068   2.312  18.787  0.00  0.00    +0.000 C 
ATOM     22  C   UNL     1       1.713   3.532  19.472  0.00  0.00    +0.000 C 
ATOM     23  C   UNL     1       2.540   3.089  20.683  0.00  0.00    +0.000 C 
ENDBRANCH   1  22
BRANCH   6  24
ATOM     24  C   UNL     1       5.533   4.024  16.075  0.00  0.00    +0.000 C 
ATOM     25  C   UNL     1       5.342   4.372  14.596  0.00  0.00    +0.000 C 
ATOM     26  C   UNL     1       6.973   4.322  16.508  0.00  0.00    +0.000 C 
ENDBRANCH   6  24
TORSDOF 5
ENDMDL
MODEL 5
REMARK VINA RESULT:      -6.9      1.328      1.663
REMARK  Name = 
REMARK  9 active torsions:
REMARK  status: ('A' for Active; 'I' for Inactive)
REMARK    1  A    between atoms: C_1  and  C_2
REMARK    2  A    between atoms: C_2  and  C_3
REMARK    3  A    between atoms: C_2  and  C_4
REMARK    4  A    between atoms: N_7  and  C_8
REMARK    5  A    between atoms: C_11  and  S_12
REMARK    6  A    between atoms: S_12  and  N_13
REMARK    7  A    between atoms: C_19  and  C_20
REMARK    8  A    between atoms: C_20  and  C_21
REMARK    9  A    between atoms: C_20  and  C_22
REMARK                            x       y       z     vdW  Elec       q    Type
REMARK                         _______ _______ _______ _____ _____    ______ ____
ROOT
ATOM      1  C   UNL     1       2.275   4.913  19.087  0.00  0.00    +0.000 C 
ATOM      2  C   UNL     1       1.977   6.110  18.568  0.00  0.00    +0.000 C 
ATOM      3  C   UNL     1       3.002   7.030  18.011  0.00  0.00    +0.000 C 
ATOM      4  N   UNL     1       2.907   8.316  17.865  0.00  0.00    +0.000 NA
ATOM      5  C   UNL     1       4.271   6.372  17.618  0.00  0.00    +0.000 C 
ATOM      6  C   UNL     1       4.581   5.117  17.974  0.00  0.00    +0.000 C 
ATOM      7  C   UNL     1       3.635   4.347  18.843  0.00  0.00    +0.000 C 
ATOM      8  O   UNL     1       3.949   3.256  19.311  0.00  0.00    +0.000 OA
ENDROOT
BRANCH   4   9
ATOM      9  C   UNL     1       1.781   9.057  18.278  0.00  0.00    +0.000 A 
ATOM     10  C   UNL     1       0.664   9.273  17.456  0.00  0.00    +0.000 A 
ATOM     11  C   UNL     1      -0.384  10.100  17.861  0.00  0.00    +0.000 A 
ATOM     12  C   UNL     1      -0.386  10.611  19.156  0.00  0.00    +0.000 A 
ATOM     13  C   UNL     1       0.659  10.326  20.038  0.00  0.00    +0.000 A 
ATOM     14  C   UNL     1       1.742   9.554  19.587  0.00  0.00    +0.000 A 
BRANCH  12  15
ATOM     15  S   UNL     1      -1.734  11.634  19.649  0.00  0.00    +0.000 S 
ATOM     16  O   UNL     1      -2.926  11.253  18.924  0.00  0.00    +0.000 OA
ATOM     17  O   UNL     1      -1.711  11.796  21.081  0.00  0.00    +0.000 OA
BRANCH  15  18
ATOM     18  N   UNL     1      -1.271  13.121  19.008  0.00  0.00    +0.000 NA
ATOM     19  H   UNL     1      -1.200  13.818  19.752  0.00  0.00    +0.000 HD
ATOM     20  H   UNL     1      -0.421  13.016  18.452  0.00  0.00    +0.000 HD
ENDBRANCH  15  18
ENDBRANCH  12  15
ENDBRANCH   4   9
BRANCH   1  22
ATOM     21  C   UNL     1       0.826   2.795  19.346  0.00  0.00    +0.000 C 
ATOM     22  C   UNL     1       1.334   4.107  19.978  0.00  0.00    +0.000 C 
ATOM     23  C   UNL     1       1.926   3.836  21.364  0.00  0.00    +0.000 C 
ENDBRANCH   1  22
BRANCH   6  24
ATOM     24  C   UNL     1       5.864   4.402  17.578  0.00  0.00    +0.000 C 
ATOM     25  C   UNL     1       5.900   4.193  16.061  0.00  0.00    +0.000 C 
ATOM     26  C   UNL     1       7.143   5.103  18.047  0.00  0.00    +0.000 C 
ENDBRANCH   6  24
TORSDOF 5
ENDMDL
MODEL 6
REMARK VINA RESULT:      -6.9      1.095      1.508
REMARK  Name = 
REMARK  9 active torsions:
REMARK  status: ('A' for Active; 'I' for Inactive)
REMARK    1  A    between atoms: C_1  and  C_2
REMARK    2  A    between atoms: C_2  and  C_3
REMARK    3  A    between atoms: C_2  and  C_4
REMARK    4  A    between atoms: N_7  and  C_8
REMARK    5  A    between atoms: C_11  and  S_12
REMARK    6  A    between atoms: S_12  and  N_13
REMARK    7  A    between atoms: C_19  and  C_20
REMARK    8  A    between atoms: C_20  and  C_21
REMARK    9  A    between atoms: C_20  and  C_22
REMARK                            x       y       z     vdW  Elec       q    Type
REMARK                         _______ _______ _______ _____ _____    ______ ____
ROOT
ATOM      1  C   UNL     1       3.107   3.775  17.975  0.00  0.00    +0.000 C 
ATOM      2  C   UNL     1       2.725   5.057  17.980  0.00  0.00    +0.000 C 
ATOM      3  C   UNL     1       3.556   6.153  17.419  0.00  0.00    +0.000 C 
ATOM      4  N   UNL     1       3.495   7.416  17.715  0.00  0.00    +0.000 NA
ATOM      5  C   UNL     1       4.577   5.712  16.439  0.00  0.00    +0.000 C 
ATOM      6  C   UNL     1       4.912   4.425  16.267  0.00  0.00    +0.000 C 
ATOM      7  C   UNL     1       4.269   3.379  17.125  0.00  0.00    +0.000 C 
ATOM      8  O   UNL     1       4.656   2.214  17.101  0.00  0.00    +0.000 OA
ENDROOT
BRANCH   4   9
ATOM      9  C   UNL     1       2.621   7.937  18.690  0.00  0.00    +0.000 A 
ATOM     10  C   UNL     1       2.444   7.349  19.952  0.00  0.00    +0.000 A 
ATOM     11  C   UNL     1       1.492   7.833  20.850  0.00  0.00    +0.000 A 
ATOM     12  C   UNL     1       0.800   9.001  20.543  0.00  0.00    +0.000 A 
ATOM     13  C   UNL     1       1.031   9.673  19.340  0.00  0.00    +0.000 A 
ATOM     14  C   UNL     1       1.938   9.129  18.417  0.00  0.00    +0.000 A 
BRANCH  12  15
ATOM     15  S   UNL     1      -0.380   9.603  21.705  0.00  0.00    +0.000 S 
ATOM     16  O   UNL     1      -1.013  10.794  21.184  0.00  0.00    +0.000 OA
ATOM     17  O   UNL     1      -1.130   8.494  22.242  0.00  0.00    +0.000 OA
BRANCH  15  18
ATOM     18  N   UNL     1       0.622  10.131  22.951  0.00  0.00    +0.000 NA
ATOM     19  H   UNL     1       0.251  10.990  23.362  0.00  0.00    +0.000 HD
ATOM     20  H   UNL     1       0.774   9.378  23.624  0.00  0.00    +0.000 HD
ENDBRANCH  15  18
ENDBRANCH  12  15
ENDBRANCH   4   9
BRANCH   1  22
ATOM     21  C   UNL     1       3.022   2.617  20.278  0.00  0.00    +0.000 C 
ATOM     22  C   UNL     1       2.474   2.688  18.839  0.00  0.00    +0.000 C 
ATOM     23  C   UNL     1       0.944   2.769  18.855  0.00  0.00    +0.000 C 
ENDBRANCH   1  22
BRANCH   6  24
ATOM     24  C   UNL     1       5.941   3.930  15.262  0.00  0.00    +0.000 C 
ATOM     25  C   UNL     1       5.328   3.895  13.859  0.00  0.00    +0.000 C 
ATOM     26  C   UNL     1       7.244   4.737  15.250  0.00  0.00    +0.000 C 
ENDBRANCH   6  24
TORSDOF 5
ENDMDL
MODEL 7
REMARK VINA RESULT:      -6.8      2.410      4.177
REMARK  Name = 
REMARK  9 active torsions:
REMARK  status: ('A' for Active; 'I' for Inactive)
REMARK    1  A    between atoms: C_1  and  C_2
REMARK    2  A    between atoms: C_2  and  C_3
REMARK    3  A    between atoms: C_2  and  C_4
REMARK    4  A    between atoms: N_7  and  C_8
REMARK    5  A    between atoms: C_11  and  S_12
REMARK    6  A    between atoms: S_12  and  N_13
REMARK    7  A    between atoms: C_19  and  C_20
REMARK    8  A    between atoms: C_20  and  C_21
REMARK    9  A    between atoms: C_20  and  C_22
REMARK                            x       y       z     vdW  Elec       q    Type
REMARK                         _______ _______ _______ _____ _____    ______ ____
ROOT
ATOM      1  C   UNL     1       3.809   5.778  18.593  0.00  0.00    +0.000 C 
ATOM      2  C   UNL     1       3.213   6.765  19.273  0.00  0.00    +0.000 C 
ATOM      3  C   UNL     1       1.995   6.559  20.099  0.00  0.00    +0.000 C 
ATOM      4  N   UNL     1       1.126   7.455  20.453  0.00  0.00    +0.000 NA
ATOM      5  C   UNL     1       1.767   5.156  20.520  0.00  0.00    +0.000 C 
ATOM      6  C   UNL     1       2.433   4.120  19.991  0.00  0.00    +0.000 C 
ATOM      7  C   UNL     1       3.423   4.367  18.895  0.00  0.00    +0.000 C 
ATOM      8  O   UNL     1       3.941   3.436  18.286  0.00  0.00    +0.000 OA
ENDROOT
BRANCH   4   9
ATOM      9  C   UNL     1       1.197   8.803  20.044  0.00  0.00    +0.000 A 
ATOM     10  C   UNL     1       1.432   9.187  18.715  0.00  0.00    +0.000 A 
ATOM     11  C   UNL     1       1.602  10.527  18.368  0.00  0.00    +0.000 A 
ATOM     12  C   UNL     1       1.400  11.510  19.332  0.00  0.00    +0.000 A 
ATOM     13  C   UNL     1       1.058  11.166  20.642  0.00  0.00    +0.000 A 
ATOM     14  C   UNL     1       0.966   9.809  20.990  0.00  0.00    +0.000 A 
BRANCH  12  15
ATOM     15  S   UNL     1       1.598  13.197  18.861  0.00  0.00    +0.000 S 
ATOM     16  O   UNL     1       0.321  13.743  18.457  0.00  0.00    +0.000 OA
ATOM     17  O   UNL     1       2.465  13.857  19.804  0.00  0.00    +0.000 OA
BRANCH  15  18
ATOM     18  N   UNL     1       2.492  13.040  17.442  0.00  0.00    +0.000 NA
ATOM     19  H   UNL     1       3.492  13.051  17.652  0.00  0.00    +0.000 HD
ATOM     20  H   UNL     1       2.184  12.219  16.920  0.00  0.00    +0.000 HD
ENDBRANCH  15  18
ENDBRANCH  12  15
ENDBRANCH   4   9
BRANCH   1  22
ATOM     21  C   UNL     1       4.502   7.198  16.554  0.00  0.00    +0.000 C 
ATOM     22  C   UNL     1       4.819   6.000  17.471  0.00  0.00    +0.000 C 
ATOM     23  C   UNL     1       6.259   6.090  17.987  0.00  0.00    +0.000 C 
ENDBRANCH   1  22
BRANCH   6  24
ATOM     24  C   UNL     1       2.240   2.669  20.407  0.00  0.00    +0.000 C 
ATOM     25  C   UNL     1       1.678   2.603  21.830  0.00  0.00    +0.000 C 
ATOM     26  C   UNL     1       1.360   1.855  19.452  0.00  0.00    +0.000 C 
ENDBRANCH   6  24
TORSDOF 5
ENDMDL
MODEL 8
REMARK VINA RESULT:      -6.8      1.569      1.712
REMARK  Name = 
REMARK  9 active torsions:
REMARK  status: ('A' for Active; 'I' for Inactive)
REMARK    1  A    between atoms: C_1  and  C_2
REMARK    2  A    between atoms: C_2  and  C_3
REMARK    3  A    between atoms: C_2  and  C_4
REMARK    4  A    between atoms: N_7  and  C_8
REMARK    5  A    between atoms: C_11  and  S_12
REMARK    6  A    between atoms: S_12  and  N_13
REMARK    7  A    between atoms: C_19  and  C_20
REMARK    8  A    between atoms: C_20  and  C_21
REMARK    9  A    between atoms: C_20  and  C_22
REMARK                            x       y       z     vdW  Elec       q    Type
REMARK                         _______ _______ _______ _____ _____    ______ ____
ROOT
ATOM      1  C   UNL     1       2.827   5.234  18.769  0.00  0.00    +0.000 C 
ATOM      2  C   UNL     1       2.390   6.378  18.228  0.00  0.00    +0.000 C 
ATOM      3  C   UNL     1       3.283   7.337  17.528  0.00  0.00    +0.000 C 
ATOM      4  N   UNL     1       3.077   8.603  17.333  0.00  0.00    +0.000 NA
ATOM      5  C   UNL     1       4.553   6.750  17.039  0.00  0.00    +0.000 C 
ATOM      6  C   UNL     1       4.991   5.541  17.419  0.00  0.00    +0.000 C 
ATOM      7  C   UNL     1       4.196   4.754  18.415  0.00  0.00    +0.000 C 
ATOM      8  O   UNL     1       4.636   3.715  18.898  0.00  0.00    +0.000 OA
ENDROOT
BRANCH   4   9
ATOM      9  C   UNL     1       1.944   9.284  17.824  0.00  0.00    +0.000 A 
ATOM     10  C   UNL     1       0.632   8.952  17.452  0.00  0.00    +0.000 A 
ATOM     11  C   UNL     1      -0.456   9.716  17.876  0.00  0.00    +0.000 A 
ATOM     12  C   UNL     1      -0.250  10.743  18.791  0.00  0.00    +0.000 A 
ATOM     13  C   UNL     1       1.032  11.031  19.266  0.00  0.00    +0.000 A 
ATOM     14  C   UNL     1       2.124  10.300  18.771  0.00  0.00    +0.000 A 
BRANCH  12  15
ATOM     15  S   UNL     1      -1.645  11.678  19.327  0.00  0.00    +0.000 S 
ATOM     16  O   UNL     1      -2.825  11.247  18.611  0.00  0.00    +0.000 OA
ATOM     17  O   UNL     1      -1.609  11.810  20.762  0.00  0.00    +0.000 OA
BRANCH  15  18
ATOM     18  N   UNL     1      -1.276  13.203  18.714  0.00  0.00    +0.000 NA
ATOM     19  H   UNL     1      -1.665  13.309  17.775  0.00  0.00    +0.000 HD
ATOM     20  H   UNL     1      -1.567  13.927  19.371  0.00  0.00    +0.000 HD
ENDBRANCH  15  18
ENDBRANCH  12  15
ENDBRANCH   4   9
BRANCH   1  22
ATOM     21  C   UNL     1       1.264   5.251  20.821  0.00  0.00    +0.000 C 
ATOM     22  C   UNL     1       2.041   4.412  19.787  0.00  0.00    +0.000 C 
ATOM     23  C   UNL     1       1.113   3.390  19.124  0.00  0.00    +0.000 C 
ENDBRANCH   1  22
BRANCH   6  24
ATOM     24  C   UNL     1       6.279   4.898  16.928  0.00  0.00    +0.000 C 
ATOM     25  C   UNL     1       6.476   5.191  15.438  0.00  0.00    +0.000 C 
ATOM     26  C   UNL     1       7.526   5.310  17.718  0.00  0.00    +0.000 C 
ENDBRANCH   6  24
TORSDOF 5
ENDMDL
MODEL 9
REMARK VINA RESULT:      -6.8      2.375      4.205
REMARK  Name = 
REMARK  9 active torsions:
REMARK  status: ('A' for Active; 'I' for Inactive)
REMARK    1  A    between atoms: C_1  and  C_2
REMARK    2  A    between atoms: C_2  and  C_3
REMARK    3  A    between atoms: C_2  and  C_4
REMARK    4  A    between atoms: N_7  and  C_8
REMARK    5  A    between atoms: C_11  and  S_12
REMARK    6  A    between atoms: S_12  and  N_13
REMARK    7  A    between atoms: C_19  and  C_20
REMARK    8  A    between atoms: C_20  and  C_21
REMARK    9  A    between atoms: C_20  and  C_22
REMARK                            x       y       z     vdW  Elec       q    Type
REMARK                         _______ _______ _______ _____ _____    ______ ____
ROOT
ATOM      1  C   UNL     1       3.760   5.781  18.625  0.00  0.00    +0.000 C 
ATOM      2  C   UNL     1       3.175   6.754  19.332  0.00  0.00    +0.000 C 
ATOM      3  C   UNL     1       1.962   6.538  20.162  0.00  0.00    +0.000 C 
ATOM      4  N   UNL     1       1.101   7.431  20.544  0.00  0.00    +0.000 NA
ATOM      5  C   UNL     1       1.727   5.127  20.551  0.00  0.00    +0.000 C 
ATOM      6  C   UNL     1       2.383   4.099  19.993  0.00  0.00    +0.000 C 
ATOM      7  C   UNL     1       3.366   4.366  18.896  0.00  0.00    +0.000 C 
ATOM      8  O   UNL     1       3.873   3.446  18.261  0.00  0.00    +0.000 OA
ENDROOT
BRANCH   4   9
ATOM      9  C   UNL     1       1.179   8.787  20.166  0.00  0.00    +0.000 A 
ATOM     10  C   UNL     1       1.039   9.844  21.079  0.00  0.00    +0.000 A 
ATOM     11  C   UNL     1       1.016  11.172  20.650  0.00  0.00    +0.000 A 
ATOM     12  C   UNL     1       1.273  11.460  19.313  0.00  0.00    +0.000 A 
ATOM     13  C   UNL     1       1.524  10.435  18.397  0.00  0.00    +0.000 A 
ATOM     14  C   UNL     1       1.468   9.101  18.833  0.00  0.00    +0.000 A 
BRANCH  12  15
ATOM     15  S   UNL     1       1.260  13.147  18.804  0.00  0.00    +0.000 S 
ATOM     16  O   UNL     1      -0.025  13.471  18.225  0.00  0.00    +0.000 OA
ATOM     17  O   UNL     1       1.884  13.957  19.820  0.00  0.00    +0.000 OA
BRANCH  15  18
ATOM     18  N   UNL     1       2.342  13.110  17.513  0.00  0.00    +0.000 NA
ATOM     19  H   UNL     1       1.845  12.907  16.643  0.00  0.00    +0.000 HD
ATOM     20  H   UNL     1       2.891  13.969  17.489  0.00  0.00    +0.000 HD
ENDBRANCH  15  18
ENDBRANCH  12  15
ENDBRANCH   4   9
BRANCH   1  22
ATOM     21  C   UNL     1       4.450   7.246  16.618  0.00  0.00    +0.000 C 
ATOM     22  C   UNL     1       4.763   6.022  17.500  0.00  0.00    +0.000 C 
ATOM     23  C   UNL     1       6.207   6.085  18.006  0.00  0.00    +0.000 C 
ENDBRANCH   1  22
BRANCH   6  24
ATOM     24  C   UNL     1       2.182   2.640  20.376  0.00  0.00    +0.000 C 
ATOM     25  C   UNL     1       1.669   2.542  21.816  0.00  0.00    +0.000 C 
ATOM     26  C   UNL     1       1.257   1.865  19.431  0.00  0.00    +0.000 C 
ENDBRANCH   6  24
TORSDOF 5
ENDMDL
