MODEL 1
REMARK VINA RESULT:      -6.9      0.000      0.000
REMARK  Name = 
REMARK  6 active torsions:
REMARK  status: ('A' for Active; 'I' for Inactive)
REMARK    1  A    between atoms: C_1  and  C_2
REMARK    2  A    between atoms: C_2  and  C_3
REMARK    3  A    between atoms: C_6  and  C_7
REMARK    4  A    between atoms: C_7  and  C_8
REMARK    5  A    between atoms: C_7  and  N_9
REMARK    6  A    between atoms: C_12  and  O_13
REMARK                            x       y       z     vdW  Elec       q    Type
REMARK                         _______ _______ _______ _____ _____    ______ ____
ROOT
ATOM      1  C   UNL     1       6.582   4.449  17.214  0.00  0.00    +0.000 C 
ATOM      2  C   UNL     1       7.484   5.411  17.996  0.00  0.00    +0.000 C 
ENDROOT
BRANCH   1   3
ATOM      3  N   UNL     1       5.159   4.513  17.660  0.00  0.00    +0.000 NA
ATOM      4  C   UNL     1       4.664   5.900  17.656  0.00  0.00    +0.000 C 
ATOM      5  C   UNL     1       3.158   5.947  17.903  0.00  0.00    +0.000 C 
ATOM      6  C   UNL     1       2.766   5.224  19.186  0.00  0.00    +0.000 C 
ATOM      7  C   UNL     1       3.398   3.836  19.258  0.00  0.00    +0.000 C 
ATOM      8  C   UNL     1       4.898   3.861  18.952  0.00  0.00    +0.000 C 
BRANCH   6   9
ATOM      9  O   UNL     1       3.130   6.001  20.328  0.00  0.00    +0.000 OA
ATOM     10  H   UNL     1       2.817   5.548  21.129  0.00  0.00    +0.000 HD
ENDBRANCH   6   9
ENDBRANCH   1   3
BRANCH   1  14
ATOM     11  C   UNL     1       6.971   4.496  13.659  0.00  0.00    +0.000 A 
ATOM     12  N   UNL     1       7.792   5.505  13.973  0.00  0.00    +0.000 NA
ATOM     13  O   UNL     1       7.676   5.592  15.360  0.00  0.00    +0.000 OA
ATOM     14  C   UNL     1       6.791   4.620  15.736  0.00  0.00    +0.000 A 
ATOM     15  N   UNL     1       6.322   3.924  14.722  0.00  0.00    +0.000 NA
BRANCH  11  17
ATOM     16  C   UNL     1       5.613   3.071  12.139  0.00  0.00    +0.000 C 
ATOM     17  C   UNL     1       6.819   3.989  12.275  0.00  0.00    +0.000 C 
ENDBRANCH  11  17
ENDBRANCH   1  14
TORSDOF 4
ENDMDL
MODEL 2
REMARK VINA RESULT:      -6.8      1.023      1.094
REMARK  Name = 
REMARK  6 active torsions:
REMARK  status: ('A' for Active; 'I' for Inactive)
REMARK    1  A    between atoms: C_1  and  C_2
REMARK    2  A    between atoms: C_2  and  C_3
REMARK    3  A    between atoms: C_6  and  C_7
REMARK    4  A    between atoms: C_7  and  C_8
REMARK    5  A    between atoms: C_7  and  N_9
REMARK    6  A    between atoms: C_12  and  O_13
REMARK                            x       y       z     vdW  Elec       q    Type
REMARK                         _______ _______ _______ _____ _____    ______ ____
ROOT
ATOM      1  C   UNL     1       6.194   4.449  17.258  0.00  0.00    +0.000 C 
ATOM      2  C   UNL     1       7.261   5.187  18.076  0.00  0.00    +0.000 C 
ENDROOT
BRANCH   1   3
ATOM      3  N   UNL     1       4.807   4.830  17.656  0.00  0.00    +0.000 NA
ATOM      4  C   UNL     1       4.758   5.267  19.061  0.00  0.00    +0.000 C 
ATOM      5  C   UNL     1       3.394   5.858  19.407  0.00  0.00    +0.000 C 
ATOM      6  C   UNL     1       2.256   4.894  19.089  0.00  0.00    +0.000 C 
ATOM      7  C   UNL     1       2.386   4.328  17.677  0.00  0.00    +0.000 C 
ATOM      8  C   UNL     1       3.793   3.799  17.387  0.00  0.00    +0.000 C 
BRANCH   6   9
ATOM      9  O   UNL     1       2.213   3.839  20.051  0.00  0.00    +0.000 OA
ATOM     10  H   UNL     1       1.698   4.137  20.820  0.00  0.00    +0.000 HD
ENDBRANCH   6   9
ENDBRANCH   1   3
BRANCH   1  14
ATOM     11  C   UNL     1       6.778   4.367  13.731  0.00  0.00    +0.000 A 
ATOM     12  N   UNL     1       7.596   5.376  14.056  0.00  0.00    +0.000 NA
ATOM     13  O   UNL     1       7.405   5.513  15.430  0.00  0.00    +0.000 OA
ATOM     14  C   UNL     1       6.486   4.566  15.790  0.00  0.00    +0.000 A 
ATOM     15  N   UNL     1       6.064   3.841  14.775  0.00  0.00    +0.000 NA
BRANCH  11  17
ATOM     16  C   UNL     1       5.322   3.227  12.068  0.00  0.00    +0.000 C 
ATOM     17  C   UNL     1       6.696   3.814  12.359  0.00  0.00    +0.000 C 
ENDBRANCH  11  17
ENDBRANCH   1  14
TORSDOF 4
ENDMDL
MODEL 3
REMARK VINA RESULT:      -6.8      1.492      1.631
REMARK  Name = 
REMARK  6 active torsions:
REMARK  status: ('A' for Active; 'I' for Inactive)
REMARK    1  A    between atoms: C_1  and  C_2
REMARK    2  A    between atoms: C_2  and  C_3
REMARK    3  A    between atoms: C_6  and  C_7
REMARK    4  A    between atoms: C_7  and  C_8
REMARK    5  A    between atoms: C_7  and  N_9
REMARK    6  A    between atoms: C_12  and  O_13
REMARK                            x       y       z     vdW  Elec       q    Type
REMARK                         _______ _______ _______ _____ _____    ______ ____
ROOT
ATOM      1  C   UNL     1       5.436   4.466  17.349  0.00  0.00    +0.000 C 
ATOM      2  C   UNL     1       5.617   5.771  18.135  0.00  0.00    +0.000 C 
ENDROOT
BRANCH   1   3
ATOM      3  N   UNL     1       4.027   3.975  17.377  0.00  0.00    +0.000 NA
ATOM      4  C   UNL     1       3.119   4.999  17.921  0.00  0.00    +0.000 C 
ATOM      5  C   UNL     1       1.659   4.585  17.753  0.00  0.00    +0.000 C 
ATOM      6  C   UNL     1       1.379   3.217  18.365  0.00  0.00    +0.000 C 
ATOM      7  C   UNL     1       2.409   2.184  17.914  0.00  0.00    +0.000 C 
ATOM      8  C   UNL     1       3.847   2.688  18.066  0.00  0.00    +0.000 C 
BRANCH   6   9
ATOM      9  O   UNL     1       1.348   3.306  19.791  0.00  0.00    +0.000 OA
ATOM     10  H   UNL     1       2.173   2.936  20.146  0.00  0.00    +0.000 HD
ENDBRANCH   6   9
ENDBRANCH   1   3
BRANCH   1  14
ATOM     11  C   UNL     1       6.689   4.444  13.999  0.00  0.00    +0.000 A 
ATOM     12  N   UNL     1       7.609   5.236  14.563  0.00  0.00    +0.000 NA
ATOM     13  O   UNL     1       7.178   5.340  15.884  0.00  0.00    +0.000 OA
ATOM     14  C   UNL     1       6.035   4.593  15.978  0.00  0.00    +0.000 A 
ATOM     15  N   UNL     1       5.689   4.029  14.839  0.00  0.00    +0.000 NA
BRANCH  11  17
ATOM     16  C   UNL     1       5.520   3.250  12.158  0.00  0.00    +0.000 C 
ATOM     17  C   UNL     1       6.775   3.993  12.590  0.00  0.00    +0.000 C 
ENDBRANCH  11  17
ENDBRANCH   1  14
TORSDOF 4
ENDMDL
MODEL 4
REMARK VINA RESULT:      -6.8      1.082      1.689
REMARK  Name = 
REMARK  6 active torsions:
REMARK  status: ('A' for Active; 'I' for Inactive)
REMARK    1  A    between atoms: C_1  and  C_2
REMARK    2  A    between atoms: C_2  and  C_3
REMARK    3  A    between atoms: C_6  and  C_7
REMARK    4  A    between atoms: C_7  and  C_8
REMARK    5  A    between atoms: C_7  and  N_9
REMARK    6  A    between atoms: C_12  and  O_13
REMARK                            x       y       z     vdW  Elec       q    Type
REMARK                         _______ _______ _______ _____ _____    ______ ____
ROOT
ATOM      1  C   UNL     1       6.555   4.804  17.917  0.00  0.00    +0.000 C 
ATOM      2  C   UNL     1       7.647   5.742  18.445  0.00  0.00    +0.000 C 
ENDROOT
BRANCH   1   3
ATOM      3  N   UNL     1       5.216   5.103  18.504  0.00  0.00    +0.000 NA
ATOM      4  C   UNL     1       4.457   3.865  18.753  0.00  0.00    +0.000 C 
ATOM      5  C   UNL     1       3.184   4.151  19.547  0.00  0.00    +0.000 C 
ATOM      6  C   UNL     1       2.315   5.205  18.871  0.00  0.00    +0.000 C 
ATOM      7  C   UNL     1       3.132   6.434  18.481  0.00  0.00    +0.000 C 
ATOM      8  C   UNL     1       4.417   6.067  17.733  0.00  0.00    +0.000 C 
BRANCH   6   9
ATOM      9  O   UNL     1       1.660   4.653  17.728  0.00  0.00    +0.000 OA
ATOM     10  H   UNL     1       0.722   4.516  17.940  0.00  0.00    +0.000 HD
ENDBRANCH   6   9
ENDBRANCH   1   3
BRANCH   1  14
ATOM     11  C   UNL     1       6.519   4.319  14.374  0.00  0.00    +0.000 A 
ATOM     12  N   UNL     1       7.398   5.326  14.439  0.00  0.00    +0.000 NA
ATOM     13  O   UNL     1       7.450   5.619  15.801  0.00  0.00    +0.000 OA
ATOM     14  C   UNL     1       6.591   4.750  16.417  0.00  0.00    +0.000 A 
ATOM     15  N   UNL     1       5.987   3.935  15.577  0.00  0.00    +0.000 NA
BRANCH  11  17
ATOM     16  C   UNL     1       7.123   4.039  11.978  0.00  0.00    +0.000 C 
ATOM     17  C   UNL     1       6.191   3.624  13.107  0.00  0.00    +0.000 C 
ENDBRANCH  11  17
ENDBRANCH   1  14
TORSDOF 4
ENDMDL
MODEL 5
REMARK VINA RESULT:      -6.6      0.959      1.089
REMARK  Name = 
REMARK  6 active torsions:
REMARK  status: ('A' for Active; 'I' for Inactive)
REMARK    1  A    between atoms: C_1  and  C_2
REMARK    2  A    between atoms: C_2  and  C_3
REMARK    3  A    between atoms: C_6  and  C_7
REMARK    4  A    between atoms: C_7  and  C_8
REMARK    5  A    between atoms: C_7  and  N_9
REMARK    6  A    between atoms: C_12  and  O_13
REMARK                            x       y       z     vdW  Elec       q    Type
REMARK                         _______ _______ _______ _____ _____    ______ ____
ROOT
ATOM      1  C   UNL     1       6.091   4.465  17.977  0.00  0.00    +0.000 C 
ATOM      2  C   UNL     1       6.833   5.597  18.699  0.00  0.00    +0.000 C 
ENDROOT
BRANCH   1   3
ATOM      3  N   UNL     1       4.655   4.382  18.375  0.00  0.00    +0.000 NA
ATOM      4  C   UNL     1       4.098   5.720  18.635  0.00  0.00    +0.000 C 
ATOM      5  C   UNL     1       2.585   5.658  18.831  0.00  0.00    +0.000 C 
ATOM      6  C   UNL     1       2.191   4.673  19.926  0.00  0.00    +0.000 C 
ATOM      7  C   UNL     1       2.883   3.325  19.737  0.00  0.00    +0.000 C 
ATOM      8  C   UNL     1       4.388   3.470  19.498  0.00  0.00    +0.000 C 
BRANCH   6   9
ATOM      9  O   UNL     1       2.488   5.214  21.214  0.00  0.00    +0.000 OA
ATOM     10  H   UNL     1       2.181   6.136  21.245  0.00  0.00    +0.000 HD
ENDBRANCH   6   9
ENDBRANCH   1   3
BRANCH   1  14
ATOM     11  C   UNL     1       6.517   4.297  14.430  0.00  0.00    +0.000 A 
ATOM     12  N   UNL     1       7.462   5.203  14.713  0.00  0.00    +0.000 NA
ATOM     13  O   UNL     1       7.344   5.368  16.092  0.00  0.00    +0.000 OA
ATOM     14  C   UNL     1       6.335   4.539  16.497  0.00  0.00    +0.000 A 
ATOM     15  N   UNL     1       5.789   3.864  15.507  0.00  0.00    +0.000 NA
BRANCH  11  17
ATOM     16  C   UNL     1       7.260   4.384  12.059  0.00  0.00    +0.000 C 
ATOM     17  C   UNL     1       6.314   3.751  13.068  0.00  0.00    +0.000 C 
ENDBRANCH  11  17
ENDBRANCH   1  14
TORSDOF 4
ENDMDL
MODEL 6
REMARK VINA RESULT:      -6.6      2.237      3.520
REMARK  Name = 
REMARK  6 active torsions:
REMARK  status: ('A' for Active; 'I' for Inactive)
REMARK    1  A    between atoms: C_1  and  C_2
REMARK    2  A    between atoms: C_2  and  C_3
REMARK    3  A    between atoms: C_6  and  C_7
REMARK    4  A    between atoms: C_7  and  C_8
REMARK    5  A    between atoms: C_7  and  N_9
REMARK    6  A    between atoms: C_12  and  O_13
REMARK                            x       y       z     vdW  Elec       q    Type
REMARK                         _______ _______ _______ _____ _____    ______ ____
ROOT
ATOM      1  C   UNL     1       4.087   5.574  19.322  0.00  0.00    +0.000 C 
ATOM      2  C   UNL     1       3.123   6.565  18.658  0.00  0.00    +0.000 C 
ENDROOT
BRANCH   1   3
ATOM      3  N   UNL     1       3.387   4.365  19.847  0.00  0.00    +0.000 NA
ATOM      4  C   UNL     1       2.873   3.530  18.748  0.00  0.00    +0.000 C 
ATOM      5  C   UNL     1       2.349   2.194  19.271  0.00  0.00    +0.000 C 
ATOM      6  C   UNL     1       1.300   2.379  20.361  0.00  0.00    +0.000 C 
ATOM      7  C   UNL     1       1.776   3.359  21.430  0.00  0.00    +0.000 C 
ATOM      8  C   UNL     1       2.332   4.654  20.831  0.00  0.00    +0.000 C 
BRANCH   6   9
ATOM      9  O   UNL     1       0.063   2.815  19.794  0.00  0.00    +0.000 OA
ATOM     10  H   UNL     1      -0.659   2.579  20.400  0.00  0.00    +0.000 HD
ENDBRANCH   6   9
ENDBRANCH   1   3
BRANCH   1  14
ATOM     11  C   UNL     1       6.609   4.885  16.882  0.00  0.00    +0.000 A 
ATOM     12  N   UNL     1       7.247   4.445  17.973  0.00  0.00    +0.000 NA
ATOM     13  O   UNL     1       6.345   4.712  19.001  0.00  0.00    +0.000 OA
ATOM     14  C   UNL     1       5.251   5.289  18.417  0.00  0.00    +0.000 A 
ATOM     15  N   UNL     1       5.370   5.424  17.112  0.00  0.00    +0.000 NA
BRANCH  11  17
ATOM     16  C   UNL     1       6.227   3.972  14.600  0.00  0.00    +0.000 C 
ATOM     17  C   UNL     1       7.166   4.742  15.516  0.00  0.00    +0.000 C 
ENDBRANCH  11  17
ENDBRANCH   1  14
TORSDOF 4
ENDMDL
MODEL 7
REMARK VINA RESULT:      -6.4      3.160      4.234
REMARK  Name = 
REMARK  6 active torsions:
REMARK  status: ('A' for Active; 'I' for Inactive)
REMARK    1  A    between atoms: C_1  and  C_2
REMARK    2  A    between atoms: C_2  and  C_3
REMARK    3  A    between atoms: C_6  and  C_7
REMARK    4  A    between atoms: C_7  and  C_8
REMARK    5  A    between atoms: C_7  and  N_9
REMARK    6  A    between atoms: C_12  and  O_13
REMARK                            x       y       z     vdW  Elec       q    Type
REMARK                         _______ _______ _______ _____ _____    ______ ____
ROOT
ATOM      1  C   UNL     1       3.819   4.556  17.574  0.00  0.00    +0.000 C 
ATOM      2  C   UNL     1       4.017   3.304  16.712  0.00  0.00    +0.000 C 
ENDROOT
BRANCH   1   3
ATOM      3  N   UNL     1       2.768   4.369  18.617  0.00  0.00    +0.000 NA
ATOM      4  C   UNL     1       3.089   5.130  19.836  0.00  0.00    +0.000 C 
ATOM      5  C   UNL     1       1.921   5.114  20.819  0.00  0.00    +0.000 C 
ATOM      6  C   UNL     1       1.475   3.695  21.154  0.00  0.00    +0.000 C 
ATOM      7  C   UNL     1       1.280   2.860  19.891  0.00  0.00    +0.000 C 
ATOM      8  C   UNL     1       2.470   2.964  18.933  0.00  0.00    +0.000 C 
BRANCH   6   9
ATOM      9  O   UNL     1       2.416   3.071  22.029  0.00  0.00    +0.000 OA
ATOM     10  H   UNL     1       1.996   2.298  22.441  0.00  0.00    +0.000 HD
ENDBRANCH   6   9
ENDBRANCH   1   3
BRANCH   1  14
ATOM     11  C   UNL     1       6.954   5.994  18.520  0.00  0.00    +0.000 A 
ATOM     12  N   UNL     1       7.105   4.782  19.067  0.00  0.00    +0.000 NA
ATOM     13  O   UNL     1       5.897   4.149  18.782  0.00  0.00    +0.000 OA
ATOM     14  C   UNL     1       5.140   5.053  18.088  0.00  0.00    +0.000 A 
ATOM     15  N   UNL     1       5.746   6.208  17.909  0.00  0.00    +0.000 NA
BRANCH  11  17
ATOM     16  C   UNL     1       7.716   8.164  17.573  0.00  0.00    +0.000 C 
ATOM     17  C   UNL     1       8.032   7.011  18.514  0.00  0.00    +0.000 C 
ENDBRANCH  11  17
ENDBRANCH   1  14
TORSDOF 4
ENDMDL
MODEL 8
REMARK VINA RESULT:      -6.4      1.815      2.321
REMARK  Name = 
REMARK  6 active torsions:
REMARK  status: ('A' for Active; 'I' for Inactive)
REMARK    1  A    between atoms: C_1  and  C_2
REMARK    2  A    between atoms: C_2  and  C_3
REMARK    3  A    between atoms: C_6  and  C_7
REMARK    4  A    between atoms: C_7  and  C_8
REMARK    5  A    between atoms: C_7  and  N_9
REMARK    6  A    between atoms: C_12  and  O_13
REMARK                            x       y       z     vdW  Elec       q    Type
REMARK                         _______ _______ _______ _____ _____    ______ ____
ROOT
ATOM      1  C   UNL     1       4.620   5.378  17.574  0.00  0.00    +0.000 C 
ATOM      2  C   UNL     1       4.045   6.799  17.523  0.00  0.00    +0.000 C 
ENDROOT
BRANCH   1   3
ATOM      3  N   UNL     1       3.555   4.334  17.613  0.00  0.00    +0.000 NA
ATOM      4  C   UNL     1       2.397   4.786  18.401  0.00  0.00    +0.000 C 
ATOM      5  C   UNL     1       1.226   3.815  18.266  0.00  0.00    +0.000 C 
ATOM      6  C   UNL     1       1.621   2.390  18.635  0.00  0.00    +0.000 C 
ATOM      7  C   UNL     1       2.906   1.968  17.926  0.00  0.00    +0.000 C 
ATOM      8  C   UNL     1       4.018   3.012  18.064  0.00  0.00    +0.000 C 
BRANCH   6   9
ATOM      9  O   UNL     1       1.762   2.261  20.050  0.00  0.00    +0.000 OA
ATOM     10  H   UNL     1       2.450   1.601  20.238  0.00  0.00    +0.000 HD
ENDBRANCH   6   9
ENDBRANCH   1   3
BRANCH   1  14
ATOM     11  C   UNL     1       6.787   4.839  14.780  0.00  0.00    +0.000 A 
ATOM     12  N   UNL     1       7.675   4.677  15.769  0.00  0.00    +0.000 NA
ATOM     13  O   UNL     1       6.921   4.912  16.917  0.00  0.00    +0.000 OA
ATOM     14  C   UNL     1       5.650   5.192  16.497  0.00  0.00    +0.000 A 
ATOM     15  N   UNL     1       5.521   5.168  15.187  0.00  0.00    +0.000 NA
BRANCH  11  17
ATOM     16  C   UNL     1       6.218   3.580  12.713  0.00  0.00    +0.000 C 
ATOM     17  C   UNL     1       7.127   4.617  13.355  0.00  0.00    +0.000 C 
ENDBRANCH  11  17
ENDBRANCH   1  14
TORSDOF 4
ENDMDL
MODEL 9
REMARK VINA RESULT:      -6.4      1.920      2.745
REMARK  Name = 
REMARK  6 active torsions:
REMARK  status: ('A' for Active; 'I' for Inactive)
REMARK    1  A    between atoms: C_1  and  C_2
REMARK    2  A    between atoms: C_2  and  C_3
REMARK    3  A    between atoms: C_6  and  C_7
REMARK    4  A    between atoms: C_7  and  C_8
REMARK    5  A    between atoms: C_7  and  N_9
REMARK    6  A    between atoms: C_12  and  O_13
REMARK                            x       y       z     vdW  Elec       q    Type
REMARK                         _______ _______ _______ _____ _____    ______ ____
ROOT
ATOM      1  C   UNL     1       4.391   5.428  18.360  0.00  0.00    +0.000 C 
ATOM      2  C   UNL     1       3.401   6.516  17.929  0.00  0.00    +0.000 C 
ENDROOT
BRANCH   1   3
ATOM      3  N   UNL     1       3.706   4.180  18.809  0.00  0.00    +0.000 NA
ATOM      4  C   UNL     1       2.629   3.802  17.879  0.00  0.00    +0.000 C 
ATOM      5  C   UNL     1       2.071   2.421  18.215  0.00  0.00    +0.000 C 
ATOM      6  C   UNL     1       1.608   2.329  19.664  0.00  0.00    +0.000 C 
ATOM      7  C   UNL     1       2.672   2.856  20.623  0.00  0.00    +0.000 C 
ATOM      8  C   UNL     1       3.218   4.221  20.196  0.00  0.00    +0.000 C 
BRANCH   6   9
ATOM      9  O   UNL     1       0.378   3.034  19.840  0.00  0.00    +0.000 OA
ATOM     10  H   UNL     1       0.548   3.987  19.749  0.00  0.00    +0.000 HD
ENDBRANCH   6   9
ENDBRANCH   1   3
BRANCH   1  14
ATOM     11  C   UNL     1       6.611   4.914  15.604  0.00  0.00    +0.000 A 
ATOM     12  N   UNL     1       7.431   4.562  16.602  0.00  0.00    +0.000 NA
ATOM     13  O   UNL     1       6.656   4.771  17.741  0.00  0.00    +0.000 OA
ATOM     14  C   UNL     1       5.442   5.229  17.306  0.00  0.00    +0.000 A 
ATOM     15  N   UNL     1       5.370   5.342  15.997  0.00  0.00    +0.000 NA
BRANCH  11  17
ATOM     16  C   UNL     1       6.112   3.782  13.446  0.00  0.00    +0.000 C 
ATOM     17  C   UNL     1       6.988   4.789  14.176  0.00  0.00    +0.000 C 
ENDBRANCH  11  17
ENDBRANCH   1  14
TORSDOF 4
ENDMDL
