MODEL 1
REMARK VINA RESULT:      -6.9      0.000      0.000
REMARK  Name = 
REMARK  6 active torsions:
REMARK  status: ('A' for Active; 'I' for Inactive)
REMARK    1  A    between atoms: C_1  and  C_2
REMARK    2  A    between atoms: C_3  and  C_4
REMARK    3  A    between atoms: C_4  and  N_5
REMARK    4  A    between atoms: C_8  and  C_9
REMARK    5  A    between atoms: C_12  and  O_13
REMARK    6  A    between atoms: C_19  and  C_20
REMARK                            x       y       z     vdW  Elec       q    Type
REMARK                         _______ _______ _______ _____ _____    ______ ____
ROOT
ATOM      1  N   UNL     1       3.156   4.472  20.673  0.00  0.00    +0.000 NA
ATOM      2  C   UNL     1       1.895   5.181  20.399  0.00  0.00    +0.000 C 
ATOM      3  C   UNL     1       2.249   6.706  19.636  0.00  0.00    +0.000 C 
ATOM      4  C   UNL     1       3.401   6.693  18.211  0.00  0.00    +0.000 C 
ATOM      5  C   UNL     1       3.145   8.076  17.625  0.00  0.00    +0.000 C 
ATOM      6  C   UNL     1       4.833   6.236  17.520  0.00  0.00    +0.000 A 
ATOM      7  C   UNL     1       4.793   6.006  16.105  0.00  0.00    +0.000 A 
ATOM      8  C   UNL     1       5.555   4.965  15.533  0.00  0.00    +0.000 A 
ATOM      9  C   UNL     1       6.548   4.307  16.235  0.00  0.00    +0.000 A 
ATOM     10  C   UNL     1       6.724   4.602  17.581  0.00  0.00    +0.000 A 
ATOM     11  C   UNL     1       5.798   5.456  18.216  0.00  0.00    +0.000 A 
ATOM     12  C   UNL     1       5.494   5.117  19.635  0.00  0.00    +0.000 C 
ATOM     13  C   UNL     1       3.956   5.061  19.652  0.00  0.00    +0.000 C 
ATOM     14  C   UNL     1       3.082   5.224  18.126  0.00  0.00    +0.000 C 
ATOM     15  C   UNL     1       1.662   5.234  17.472  0.00  0.00    +0.000 C 
ENDROOT
BRANCH   8  16
ATOM     16  O   UNL     1       5.218   4.440  14.313  0.00  0.00    +0.000 OA
ATOM     17  H   UNL     1       5.859   3.736  14.109  0.00  0.00    +0.000 HD
ENDBRANCH   8  16
BRANCH   1  18
ATOM     18  C   UNL     1       3.309   3.031  20.533  0.00  0.00    +0.000 C 
BRANCH  18  21
ATOM     19  C   UNL     1       3.467   1.758  17.758  0.00  0.00    +0.000 C 
ATOM     20  C   UNL     1       2.270   1.756  18.653  0.00  0.00    +0.000 C 
ATOM     21  C   UNL     1       2.182   2.328  19.859  0.00  0.00    +0.000 C 
ENDBRANCH  18  21
ENDBRANCH   1  18
TORSDOF 3
ENDMDL
MODEL 2
REMARK VINA RESULT:      -6.6      2.501      5.017
REMARK  Name = 
REMARK  6 active torsions:
REMARK  status: ('A' for Active; 'I' for Inactive)
REMARK    1  A    between atoms: C_1  and  C_2
REMARK    2  A    between atoms: C_3  and  C_4
REMARK    3  A    between atoms: C_4  and  N_5
REMARK    4  A    between atoms: C_8  and  C_9
REMARK    5  A    between atoms: C_12  and  O_13
REMARK    6  A    between atoms: C_19  and  C_20
REMARK                            x       y       z     vdW  Elec       q    Type
REMARK                         _______ _______ _______ _____ _____    ______ ____
ROOT
ATOM      1  N   UNL     1       4.293   4.965  16.191  0.00  0.00    +0.000 NA
ATOM      2  C   UNL     1       4.933   6.181  16.718  0.00  0.00    +0.000 C 
ATOM      3  C   UNL     1       3.786   7.056  17.695  0.00  0.00    +0.000 C 
ATOM      4  C   UNL     1       2.861   6.112  18.964  0.00  0.00    +0.000 C 
ATOM      5  C   UNL     1       2.295   7.248  19.806  0.00  0.00    +0.000 C 
ATOM      6  C   UNL     1       1.947   4.807  19.407  0.00  0.00    +0.000 A 
ATOM      7  C   UNL     1       2.127   4.353  20.756  0.00  0.00    +0.000 A 
ATOM      8  C   UNL     1       2.095   2.974  21.052  0.00  0.00    +0.000 A 
ATOM      9  C   UNL     1       1.641   2.035  20.144  0.00  0.00    +0.000 A 
ATOM     10  C   UNL     1       1.314   2.451  18.859  0.00  0.00    +0.000 A 
ATOM     11  C   UNL     1       1.586   3.783  18.486  0.00  0.00    +0.000 A 
ATOM     12  C   UNL     1       2.012   3.971  17.071  0.00  0.00    +0.000 C 
ATOM     13  C   UNL     1       3.311   4.785  17.208  0.00  0.00    +0.000 C 
ATOM     14  C   UNL     1       3.956   5.090  18.824  0.00  0.00    +0.000 C 
ATOM     15  C   UNL     1       5.128   5.754  19.618  0.00  0.00    +0.000 C 
ENDROOT
BRANCH   8  16
ATOM     16  O   UNL     1       2.683   2.488  22.190  0.00  0.00    +0.000 OA
ATOM     17  H   UNL     1       2.855   1.540  22.051  0.00  0.00    +0.000 HD
ENDBRANCH   8  16
BRANCH   1  18
ATOM     18  C   UNL     1       4.984   3.690  16.060  0.00  0.00    +0.000 C 
BRANCH  18  21
ATOM     19  C   UNL     1       5.289   3.753  13.018  0.00  0.00    +0.000 C 
ATOM     20  C   UNL     1       6.408   3.786  14.009  0.00  0.00    +0.000 C 
ATOM     21  C   UNL     1       6.287   3.738  15.341  0.00  0.00    +0.000 C 
ENDBRANCH  18  21
ENDBRANCH   1  18
TORSDOF 3
ENDMDL
MODEL 3
REMARK VINA RESULT:      -6.6      2.414      4.564
REMARK  Name = 
REMARK  6 active torsions:
REMARK  status: ('A' for Active; 'I' for Inactive)
REMARK    1  A    between atoms: C_1  and  C_2
REMARK    2  A    between atoms: C_3  and  C_4
REMARK    3  A    between atoms: C_4  and  N_5
REMARK    4  A    between atoms: C_8  and  C_9
REMARK    5  A    between atoms: C_12  and  O_13
REMARK    6  A    between atoms: C_19  and  C_20
REMARK                            x       y       z     vdW  Elec       q    Type
REMARK                         _______ _______ _______ _____ _____    ______ ____
ROOT
ATOM      1  N   UNL     1       2.379   7.238  17.525  0.00  0.00    +0.000 NA
ATOM      2  C   UNL     1       1.575   6.164  18.132  0.00  0.00    +0.000 C 
ATOM      3  C   UNL     1       2.285   4.624  17.739  0.00  0.00    +0.000 C 
ATOM      4  C   UNL     1       4.086   4.427  18.011  0.00  0.00    +0.000 C 
ATOM      5  C   UNL     1       4.223   2.912  17.924  0.00  0.00    +0.000 C 
ATOM      6  C   UNL     1       5.638   4.968  17.828  0.00  0.00    +0.000 A 
ATOM      7  C   UNL     1       6.537   4.645  18.899  0.00  0.00    +0.000 A 
ATOM      8  C   UNL     1       7.525   5.570  19.300  0.00  0.00    +0.000 A 
ATOM      9  C   UNL     1       7.846   6.681  18.543  0.00  0.00    +0.000 A 
ATOM     10  C   UNL     1       7.093   6.959  17.409  0.00  0.00    +0.000 A 
ATOM     11  C   UNL     1       5.946   6.180  17.148  0.00  0.00    +0.000 A 
ATOM     12  C   UNL     1       4.805   6.918  16.537  0.00  0.00    +0.000 C 
ATOM     13  C   UNL     1       3.629   6.557  17.463  0.00  0.00    +0.000 C 
ATOM     14  C   UNL     1       3.953   5.617  18.922  0.00  0.00    +0.000 C 
ATOM     15  C   UNL     1       3.301   4.984  20.194  0.00  0.00    +0.000 C 
ENDROOT
BRANCH   8  16
ATOM     16  O   UNL     1       8.083   5.500  20.550  0.00  0.00    +0.000 OA
ATOM     17  H   UNL     1       8.399   6.391  20.781  0.00  0.00    +0.000 HD
ENDBRANCH   8  16
BRANCH   1  18
ATOM     18  C   UNL     1       2.639   8.511  18.181  0.00  0.00    +0.000 C 
BRANCH  18  21
ATOM     19  C   UNL     1       1.073   8.811  20.790  0.00  0.00    +0.000 C 
ATOM     20  C   UNL     1       0.789   9.534  19.513  0.00  0.00    +0.000 C 
ATOM     21  C   UNL     1       1.453   9.395  18.360  0.00  0.00    +0.000 C 
ENDBRANCH  18  21
ENDBRANCH   1  18
TORSDOF 3
ENDMDL
MODEL 4
REMARK VINA RESULT:      -6.6      2.641      5.086
REMARK  Name = 
REMARK  6 active torsions:
REMARK  status: ('A' for Active; 'I' for Inactive)
REMARK    1  A    between atoms: C_1  and  C_2
REMARK    2  A    between atoms: C_3  and  C_4
REMARK    3  A    between atoms: C_4  and  N_5
REMARK    4  A    between atoms: C_8  and  C_9
REMARK    5  A    between atoms: C_12  and  O_13
REMARK    6  A    between atoms: C_19  and  C_20
REMARK                            x       y       z     vdW  Elec       q    Type
REMARK                         _______ _______ _______ _____ _____    ______ ____
ROOT
ATOM      1  N   UNL     1       5.180   5.078  15.419  0.00  0.00    +0.000 NA
ATOM      2  C   UNL     1       5.546   6.367  16.030  0.00  0.00    +0.000 C 
ATOM      3  C   UNL     1       4.367   6.781  17.243  0.00  0.00    +0.000 C 
ATOM      4  C   UNL     1       3.926   5.494  18.470  0.00  0.00    +0.000 C 
ATOM      5  C   UNL     1       3.211   6.335  19.520  0.00  0.00    +0.000 C 
ATOM      6  C   UNL     1       3.468   3.946  18.833  0.00  0.00    +0.000 A 
ATOM      7  C   UNL     1       3.961   3.429  20.077  0.00  0.00    +0.000 A 
ATOM      8  C   UNL     1       4.341   2.074  20.182  0.00  0.00    +0.000 A 
ATOM      9  C   UNL     1       4.022   1.141  19.213  0.00  0.00    +0.000 A 
ATOM     10  C   UNL     1       3.409   1.574  18.044  0.00  0.00    +0.000 A 
ATOM     11  C   UNL     1       3.258   2.960  17.828  0.00  0.00    +0.000 A 
ATOM     12  C   UNL     1       3.403   3.400  16.412  0.00  0.00    +0.000 C 
ATOM     13  C   UNL     1       4.445   4.529  16.509  0.00  0.00    +0.000 C 
ATOM     14  C   UNL     1       5.219   4.840  18.065  0.00  0.00    +0.000 C 
ATOM     15  C   UNL     1       6.278   5.725  18.801  0.00  0.00    +0.000 C 
ENDROOT
BRANCH   8  16
ATOM     16  O   UNL     1       5.200   1.663  21.167  0.00  0.00    +0.000 OA
ATOM     17  H   UNL     1       5.513   0.772  20.931  0.00  0.00    +0.000 HD
ENDBRANCH   8  16
BRANCH   1  18
ATOM     18  C   UNL     1       6.157   4.070  15.034  0.00  0.00    +0.000 C 
BRANCH  18  21
ATOM     19  C   UNL     1       5.405   3.180  12.208  0.00  0.00    +0.000 C 
ATOM     20  C   UNL     1       6.598   4.000  12.577  0.00  0.00    +0.000 C 
ATOM     21  C   UNL     1       6.949   4.377  13.811  0.00  0.00    +0.000 C 
ENDBRANCH  18  21
ENDBRANCH   1  18
TORSDOF 3
ENDMDL
MODEL 5
REMARK VINA RESULT:      -6.5      2.332      4.321
REMARK  Name = 
REMARK  6 active torsions:
REMARK  status: ('A' for Active; 'I' for Inactive)
REMARK    1  A    between atoms: C_1  and  C_2
REMARK    2  A    between atoms: C_3  and  C_4
REMARK    3  A    between atoms: C_4  and  N_5
REMARK    4  A    between atoms: C_8  and  C_9
REMARK    5  A    between atoms: C_12  and  O_13
REMARK    6  A    between atoms: C_19  and  C_20
REMARK                            x       y       z     vdW  Elec       q    Type
REMARK                         _______ _______ _______ _____ _____    ______ ____
ROOT
ATOM      1  N   UNL     1       2.297   6.646  18.005  0.00  0.00    +0.000 NA
ATOM      2  C   UNL     1       1.783   5.299  18.304  0.00  0.00    +0.000 C 
ATOM      3  C   UNL     1       2.693   4.124  17.396  0.00  0.00    +0.000 C 
ATOM      4  C   UNL     1       4.521   4.235  17.459  0.00  0.00    +0.000 C 
ATOM      5  C   UNL     1       4.908   2.874  16.893  0.00  0.00    +0.000 C 
ATOM      6  C   UNL     1       5.915   5.117  17.340  0.00  0.00    +0.000 A 
ATOM      7  C   UNL     1       6.992   4.690  18.186  0.00  0.00    +0.000 A 
ATOM      8  C   UNL     1       7.847   5.641  18.782  0.00  0.00    +0.000 A 
ATOM      9  C   UNL     1       7.864   6.967  18.388  0.00  0.00    +0.000 A 
ATOM     10  C   UNL     1       6.928   7.399  17.458  0.00  0.00    +0.000 A 
ATOM     11  C   UNL     1       5.911   6.510  17.051  0.00  0.00    +0.000 A 
ATOM     12  C   UNL     1       4.587   7.140  16.789  0.00  0.00    +0.000 C 
ATOM     13  C   UNL     1       3.628   6.289  17.640  0.00  0.00    +0.000 C 
ATOM     14  C   UNL     1       4.304   5.052  18.704  0.00  0.00    +0.000 C 
ATOM     15  C   UNL     1       3.951   3.954  19.759  0.00  0.00    +0.000 C 
ENDROOT
BRANCH   8  16
ATOM     16  O   UNL     1       8.572   5.327  19.902  0.00  0.00    +0.000 OA
ATOM     17  H   UNL     1       7.948   5.261  20.646  0.00  0.00    +0.000 HD
ENDBRANCH   8  16
BRANCH   1  18
ATOM     18  C   UNL     1       2.416   7.697  19.005  0.00  0.00    +0.000 C 
BRANCH  18  21
ATOM     19  C   UNL     1       0.736   9.576  20.735  0.00  0.00    +0.000 C 
ATOM     20  C   UNL     1       1.138   8.183  21.096  0.00  0.00    +0.000 C 
ATOM     21  C   UNL     1       1.890   7.360  20.357  0.00  0.00    +0.000 C 
ENDBRANCH  18  21
ENDBRANCH   1  18
TORSDOF 3
ENDMDL
MODEL 6
REMARK VINA RESULT:      -6.4      1.921      4.142
REMARK  Name = 
REMARK  6 active torsions:
REMARK  status: ('A' for Active; 'I' for Inactive)
REMARK    1  A    between atoms: C_1  and  C_2
REMARK    2  A    between atoms: C_3  and  C_4
REMARK    3  A    between atoms: C_4  and  N_5
REMARK    4  A    between atoms: C_8  and  C_9
REMARK    5  A    between atoms: C_12  and  O_13
REMARK    6  A    between atoms: C_19  and  C_20
REMARK                            x       y       z     vdW  Elec       q    Type
REMARK                         _______ _______ _______ _____ _____    ______ ____
ROOT
ATOM      1  N   UNL     1       1.259   5.663  20.072  0.00  0.00    +0.000 NA
ATOM      2  C   UNL     1       0.948   4.284  20.482  0.00  0.00    +0.000 C 
ATOM      3  C   UNL     1       1.204   3.213  19.133  0.00  0.00    +0.000 C 
ATOM      4  C   UNL     1       2.787   3.362  18.222  0.00  0.00    +0.000 C 
ATOM      5  C   UNL     1       2.778   2.064  17.423  0.00  0.00    +0.000 C 
ATOM      6  C   UNL     1       3.927   4.283  17.455  0.00  0.00    +0.000 A 
ATOM      7  C   UNL     1       5.277   3.810  17.557  0.00  0.00    +0.000 A 
ATOM      8  C   UNL     1       6.343   4.726  17.685  0.00  0.00    +0.000 A 
ATOM      9  C   UNL     1       6.182   6.081  17.459  0.00  0.00    +0.000 A 
ATOM     10  C   UNL     1       4.906   6.570  17.211  0.00  0.00    +0.000 A 
ATOM     11  C   UNL     1       3.806   5.696  17.334  0.00  0.00    +0.000 A 
ATOM     12  C   UNL     1       2.562   6.314  17.872  0.00  0.00    +0.000 C 
ATOM     13  C   UNL     1       2.181   5.370  19.026  0.00  0.00    +0.000 C 
ATOM     14  C   UNL     1       3.288   4.063  19.455  0.00  0.00    +0.000 C 
ATOM     15  C   UNL     1       3.522   2.869  20.438  0.00  0.00    +0.000 C 
ENDROOT
BRANCH   8  16
ATOM     16  O   UNL     1       7.543   4.334  18.216  0.00  0.00    +0.000 OA
ATOM     17  H   UNL     1       7.983   3.765  17.559  0.00  0.00    +0.000 HD
ENDBRANCH   8  16
BRANCH   1  18
ATOM     18  C   UNL     1       1.919   6.626  20.941  0.00  0.00    +0.000 C 
BRANCH  18  21
ATOM     19  C   UNL     1      -0.399   8.391  21.871  0.00  0.00    +0.000 C 
ATOM     20  C   UNL     1       0.734   8.825  20.997  0.00  0.00    +0.000 C 
ATOM     21  C   UNL     1       1.741   8.057  20.567  0.00  0.00    +0.000 C 
ENDBRANCH  18  21
ENDBRANCH   1  18
TORSDOF 3
ENDMDL
MODEL 7
REMARK VINA RESULT:      -6.3      2.440      4.985
REMARK  Name = 
REMARK  6 active torsions:
REMARK  status: ('A' for Active; 'I' for Inactive)
REMARK    1  A    between atoms: C_1  and  C_2
REMARK    2  A    between atoms: C_3  and  C_4
REMARK    3  A    between atoms: C_4  and  N_5
REMARK    4  A    between atoms: C_8  and  C_9
REMARK    5  A    between atoms: C_12  and  O_13
REMARK    6  A    between atoms: C_19  and  C_20
REMARK                            x       y       z     vdW  Elec       q    Type
REMARK                         _______ _______ _______ _____ _____    ______ ____
ROOT
ATOM      1  N   UNL     1       4.134   5.112  16.282  0.00  0.00    +0.000 NA
ATOM      2  C   UNL     1       4.739   6.346  16.809  0.00  0.00    +0.000 C 
ATOM      3  C   UNL     1       3.573   7.181  17.796  0.00  0.00    +0.000 C 
ATOM      4  C   UNL     1       2.686   6.204  19.068  0.00  0.00    +0.000 C 
ATOM      5  C   UNL     1       2.091   7.319  19.919  0.00  0.00    +0.000 C 
ATOM      6  C   UNL     1       1.817   4.869  19.512  0.00  0.00    +0.000 A 
ATOM      7  C   UNL     1       2.020   4.416  20.859  0.00  0.00    +0.000 A 
ATOM      8  C   UNL     1       2.033   3.036  21.149  0.00  0.00    +0.000 A 
ATOM      9  C   UNL     1       1.602   2.087  20.241  0.00  0.00    +0.000 A 
ATOM     10  C   UNL     1       1.254   2.496  18.960  0.00  0.00    +0.000 A 
ATOM     11  C   UNL     1       1.482   3.838  18.590  0.00  0.00    +0.000 A 
ATOM     12  C   UNL     1       1.892   4.044  17.173  0.00  0.00    +0.000 C 
ATOM     13  C   UNL     1       3.165   4.898  17.305  0.00  0.00    +0.000 C 
ATOM     14  C   UNL     1       3.812   5.217  18.916  0.00  0.00    +0.000 C 
ATOM     15  C   UNL     1       4.968   5.914  19.705  0.00  0.00    +0.000 C 
ENDROOT
BRANCH   8  16
ATOM     16  O   UNL     1       2.645   2.565  22.282  0.00  0.00    +0.000 OA
ATOM     17  H   UNL     1       3.336   1.939  22.004  0.00  0.00    +0.000 HD
ENDBRANCH   8  16
BRANCH   1  18
ATOM     18  C   UNL     1       4.864   3.860  16.140  0.00  0.00    +0.000 C 
BRANCH  18  21
ATOM     19  C   UNL     1       7.561   4.536  17.413  0.00  0.00    +0.000 C 
ATOM     20  C   UNL     1       7.330   4.224  15.970  0.00  0.00    +0.000 C 
ATOM     21  C   UNL     1       6.152   3.948  15.398  0.00  0.00    +0.000 C 
ENDBRANCH  18  21
ENDBRANCH   1  18
TORSDOF 3
ENDMDL
MODEL 8
REMARK VINA RESULT:      -6.0      2.281      5.284
REMARK  Name = 
REMARK  6 active torsions:
REMARK  status: ('A' for Active; 'I' for Inactive)
REMARK    1  A    between atoms: C_1  and  C_2
REMARK    2  A    between atoms: C_3  and  C_4
REMARK    3  A    between atoms: C_4  and  N_5
REMARK    4  A    between atoms: C_8  and  C_9
REMARK    5  A    between atoms: C_12  and  O_13
REMARK    6  A    between atoms: C_19  and  C_20
REMARK                            x       y       z     vdW  Elec       q    Type
REMARK                         _______ _______ _______ _____ _____    ______ ____
ROOT
ATOM      1  N   UNL     1       3.300   7.702  18.165  0.00  0.00    +0.000 NA
ATOM      2  C   UNL     1       4.439   7.376  17.291  0.00  0.00    +0.000 C 
ATOM      3  C   UNL     1       5.444   6.190  18.076  0.00  0.00    +0.000 C 
ATOM      4  C   UNL     1       4.619   4.712  18.777  0.00  0.00    +0.000 C 
ATOM      5  C   UNL     1       5.817   3.798  19.004  0.00  0.00    +0.000 C 
ATOM      6  C   UNL     1       3.428   4.028  19.700  0.00  0.00    +0.000 A 
ATOM      7  C   UNL     1       2.965   2.743  19.261  0.00  0.00    +0.000 A 
ATOM      8  C   UNL     1       1.600   2.404  19.373  0.00  0.00    +0.000 A 
ATOM      9  C   UNL     1       0.714   3.152  20.126  0.00  0.00    +0.000 A 
ATOM     10  C   UNL     1       1.156   4.339  20.696  0.00  0.00    +0.000 A 
ATOM     11  C   UNL     1       2.447   4.808  20.375  0.00  0.00    +0.000 A 
ATOM     12  C   UNL     1       2.576   6.288  20.272  0.00  0.00    +0.000 C 
ATOM     13  C   UNL     1       3.238   6.480  18.896  0.00  0.00    +0.000 C 
ATOM     14  C   UNL     1       3.478   5.068  17.863  0.00  0.00    +0.000 C 
ATOM     15  C   UNL     1       4.009   4.588  16.473  0.00  0.00    +0.000 C 
ENDROOT
BRANCH   8  16
ATOM     16  O   UNL     1       1.058   1.417  18.592  0.00  0.00    +0.000 OA
ATOM     17  H   UNL     1       1.765   0.778  18.394  0.00  0.00    +0.000 HD
ENDBRANCH   8  16
BRANCH   1  18
ATOM     18  C   UNL     1       1.955   7.948  17.666  0.00  0.00    +0.000 C 
BRANCH  18  21
ATOM     19  C   UNL     1       0.760   9.380  20.090  0.00  0.00    +0.000 C 
ATOM     20  C   UNL     1       1.015   9.993  18.751  0.00  0.00    +0.000 C 
ATOM     21  C   UNL     1       1.517   9.372  17.677  0.00  0.00    +0.000 C 
ENDBRANCH  18  21
ENDBRANCH   1  18
TORSDOF 3
ENDMDL
MODEL 9
REMARK VINA RESULT:      -5.6      9.500     11.608
REMARK  Name = 
REMARK  6 active torsions:
REMARK  status: ('A' for Active; 'I' for Inactive)
REMARK    1  A    between atoms: C_1  and  C_2
REMARK    2  A    between atoms: C_3  and  C_4
REMARK    3  A    between atoms: C_4  and  N_5
REMARK    4  A    between atoms: C_8  and  C_9
REMARK    5  A    between atoms: C_12  and  O_13
REMARK    6  A    between atoms: C_19  and  C_20
REMARK                            x       y       z     vdW  Elec       q    Type
REMARK                         _______ _______ _______ _____ _____    ______ ____
ROOT
ATOM      1  N   UNL     1       9.945  11.717  17.978  0.00  0.00    +0.000 NA
ATOM      2  C   UNL     1      11.360  12.085  17.810  0.00  0.00    +0.000 C 
ATOM      3  C   UNL     1      11.463  13.575  16.915  0.00  0.00    +0.000 C 
ATOM      4  C   UNL     1      10.409  14.969  17.466  0.00  0.00    +0.000 C 
ATOM      5  C   UNL     1      11.053  16.127  16.714  0.00  0.00    +0.000 C 
ATOM      6  C   UNL     1       8.936  15.570  17.919  0.00  0.00    +0.000 A 
ATOM      7  C   UNL     1       8.969  16.629  18.886  0.00  0.00    +0.000 A 
ATOM      8  C   UNL     1       7.978  16.707  19.887  0.00  0.00    +0.000 A 
ATOM      9  C   UNL     1       6.816  15.959  19.835  0.00  0.00    +0.000 A 
ATOM     10  C   UNL     1       6.672  15.016  18.825  0.00  0.00    +0.000 A 
ATOM     11  C   UNL     1       7.768  14.758  17.975  0.00  0.00    +0.000 A 
ATOM     12  C   UNL     1       7.912  13.341  17.539  0.00  0.00    +0.000 C 
ATOM     13  C   UNL     1       9.375  13.020  17.892  0.00  0.00    +0.000 C 
ATOM     14  C   UNL     1      10.322  14.225  18.771  0.00  0.00    +0.000 C 
ATOM     15  C   UNL     1      11.717  14.522  19.411  0.00  0.00    +0.000 C 
ENDROOT
BRANCH   8  16
ATOM     16  O   UNL     1       8.208  17.397  21.048  0.00  0.00    +0.000 OA
ATOM     17  H   UNL     1       8.986  16.998  21.477  0.00  0.00    +0.000 HD
ENDBRANCH   8  16
BRANCH   1  18
ATOM     18  C   UNL     1       9.414  11.118  19.194  0.00  0.00    +0.000 C 
BRANCH  18  21
ATOM     19  C   UNL     1       8.540  12.807  21.588  0.00  0.00    +0.000 C 
ATOM     20  C   UNL     1       9.825  12.053  21.473  0.00  0.00    +0.000 C 
ATOM     21  C   UNL     1      10.228  11.329  20.423  0.00  0.00    +0.000 C 
ENDBRANCH  18  21
ENDBRANCH   1  18
TORSDOF 3
ENDMDL
