MODEL 1
REMARK VINA RESULT:      -7.4      0.000      0.000
REMARK  Name = 
REMARK  4 active torsions:
REMARK  status: ('A' for Active; 'I' for Inactive)
REMARK    1  A    between atoms: C_1  and  O_2
REMARK    2  A    between atoms: O_2  and  C_3
REMARK    3  A    between atoms: C_8  and  C_9
REMARK    4  A    between atoms: C_14  and  N_15
REMARK                            x       y       z     vdW  Elec       q    Type
REMARK                         _______ _______ _______ _____ _____    ______ ____
ROOT
ATOM      1  C   UNL     1       4.435   4.684  17.343  0.00  0.00    +0.000 C 
ATOM      2  O   UNL     1       4.120   3.589  17.804  0.00  0.00    +0.000 OA
ATOM      3  N   UNL     1       3.959   5.897  17.800  0.00  0.00    +0.000 N 
ATOM      4  C   UNL     1       3.070   6.030  18.888  0.00  0.00    +0.000 A 
ATOM      5  C   UNL     1       2.648   7.295  19.243  0.00  0.00    +0.000 A 
ATOM      6  C   UNL     1       1.770   7.419  20.315  0.00  0.00    +0.000 A 
ATOM      7  N   UNL     1       1.335   6.327  20.963  0.00  0.00    +0.000 NA
ATOM      8  C   UNL     1       1.802   5.145  20.553  0.00  0.00    +0.000 A 
ATOM      9  N   UNL     1       2.654   4.947  19.550  0.00  0.00    +0.000 NA
ATOM     10  H   UNL     1       4.271   6.733  17.323  0.00  0.00    +0.000 HD
ENDROOT
BRANCH   1  16
ATOM     11  C   UNL     1       6.729   5.158  16.212  0.00  0.00    +0.000 A 
ATOM     12  C   UNL     1       7.486   5.104  15.025  0.00  0.00    +0.000 A 
ATOM     13  C   UNL     1       6.967   4.548  13.853  0.00  0.00    +0.000 A 
ATOM     14  C   UNL     1       5.676   4.048  13.841  0.00  0.00    +0.000 A 
ATOM     15  C   UNL     1       4.902   4.124  14.995  0.00  0.00    +0.000 A 
ATOM     16  C   UNL     1       5.403   4.684  16.193  0.00  0.00    +0.000 A 
BRANCH  11  18
ATOM     17  C   UNL     1       7.326   7.099  17.443  0.00  0.00    +0.000 C 
ATOM     18  O   UNL     1       7.231   5.673  17.385  0.00  0.00    +0.000 OA
ENDBRANCH  11  18
ENDBRANCH   1  16
BRANCH   6  19
ATOM     19  N   UNL     1       1.288   8.644  20.718  0.00  0.00    +0.000 N 
ATOM     20  C   UNL     1       1.286   9.004  22.135  0.00  0.00    +0.000 C 
ATOM     21  C   UNL     1      -0.131   9.461  22.501  0.00  0.00    +0.000 C 
ATOM     22  C   UNL     1      -0.650  10.545  21.551  0.00  0.00    +0.000 C 
ATOM     23  C   UNL     1      -0.490  10.138  20.083  0.00  0.00    +0.000 C 
ATOM     24  C   UNL     1       0.948   9.715  19.795  0.00  0.00    +0.000 C 
ENDBRANCH   6  19
TORSDOF 3
ENDMDL
MODEL 2
REMARK VINA RESULT:      -7.3      1.751      2.433
REMARK  Name = 
REMARK  4 active torsions:
REMARK  status: ('A' for Active; 'I' for Inactive)
REMARK    1  A    between atoms: C_1  and  O_2
REMARK    2  A    between atoms: O_2  and  C_3
REMARK    3  A    between atoms: C_8  and  C_9
REMARK    4  A    between atoms: C_14  and  N_15
REMARK                            x       y       z     vdW  Elec       q    Type
REMARK                         _______ _______ _______ _____ _____    ______ ____
ROOT
ATOM      1  C   UNL     1       4.124   6.081  18.177  0.00  0.00    +0.000 C 
ATOM      2  O   UNL     1       4.182   5.573  19.295  0.00  0.00    +0.000 OA
ATOM      3  N   UNL     1       3.283   7.118  17.825  0.00  0.00    +0.000 N 
ATOM      4  C   UNL     1       2.400   7.751  18.727  0.00  0.00    +0.000 A 
ATOM      5  C   UNL     1       1.593   8.766  18.255  0.00  0.00    +0.000 A 
ATOM      6  C   UNL     1       0.724   9.383  19.149  0.00  0.00    +0.000 A 
ATOM      7  N   UNL     1       0.666   8.977  20.427  0.00  0.00    +0.000 NA
ATOM      8  C   UNL     1       1.489   7.992  20.795  0.00  0.00    +0.000 A 
ATOM      9  N   UNL     1       2.358   7.365  20.005  0.00  0.00    +0.000 NA
ATOM     10  H   UNL     1       3.307   7.438  16.865  0.00  0.00    +0.000 HD
ENDROOT
BRANCH   1  16
ATOM     11  C   UNL     1       6.134   6.168  16.528  0.00  0.00    +0.000 A 
ATOM     12  C   UNL     1       6.867   5.490  15.534  0.00  0.00    +0.000 A 
ATOM     13  C   UNL     1       6.560   4.176  15.169  0.00  0.00    +0.000 A 
ATOM     14  C   UNL     1       5.506   3.520  15.781  0.00  0.00    +0.000 A 
ATOM     15  C   UNL     1       4.750   4.187  16.741  0.00  0.00    +0.000 A 
ATOM     16  C   UNL     1       5.039   5.516  17.126  0.00  0.00    +0.000 A 
BRANCH  11  18
ATOM     17  C   UNL     1       7.675   7.599  17.631  0.00  0.00    +0.000 C 
ATOM     18  O   UNL     1       6.439   7.449  16.925  0.00  0.00    +0.000 OA
ENDBRANCH  11  18
ENDBRANCH   1  16
BRANCH   6  19
ATOM     19  N   UNL     1      -0.127  10.390  18.752  0.00  0.00    +0.000 N 
ATOM     20  C   UNL     1       0.001  11.730  19.321  0.00  0.00    +0.000 C 
ATOM     21  C   UNL     1      -1.377  12.152  19.845  0.00  0.00    +0.000 C 
ATOM     22  C   UNL     1      -2.469  11.996  18.782  0.00  0.00    +0.000 C 
ATOM     23  C   UNL     1      -2.447  10.604  18.145  0.00  0.00    +0.000 C 
ATOM     24  C   UNL     1      -1.050  10.267  17.634  0.00  0.00    +0.000 C 
ENDBRANCH   6  19
TORSDOF 3
ENDMDL
MODEL 3
REMARK VINA RESULT:      -7.3      3.300      8.643
REMARK  Name = 
REMARK  4 active torsions:
REMARK  status: ('A' for Active; 'I' for Inactive)
REMARK    1  A    between atoms: C_1  and  O_2
REMARK    2  A    between atoms: O_2  and  C_3
REMARK    3  A    between atoms: C_8  and  C_9
REMARK    4  A    between atoms: C_14  and  N_15
REMARK                            x       y       z     vdW  Elec       q    Type
REMARK                         _______ _______ _______ _____ _____    ______ ____
ROOT
ATOM      1  C   UNL     1       4.567   4.726  18.488  0.00  0.00    +0.000 C 
ATOM      2  O   UNL     1       5.379   5.540  18.923  0.00  0.00    +0.000 OA
ATOM      3  N   UNL     1       4.576   4.211  17.207  0.00  0.00    +0.000 N 
ATOM      4  C   UNL     1       5.552   4.536  16.239  0.00  0.00    +0.000 A 
ATOM      5  C   UNL     1       5.447   3.972  14.984  0.00  0.00    +0.000 A 
ATOM      6  C   UNL     1       6.411   4.298  14.035  0.00  0.00    +0.000 A 
ATOM      7  N   UNL     1       7.397   5.157  14.339  0.00  0.00    +0.000 NA
ATOM      8  C   UNL     1       7.421   5.647  15.581  0.00  0.00    +0.000 A 
ATOM      9  N   UNL     1       6.548   5.371  16.547  0.00  0.00    +0.000 NA
ATOM     10  H   UNL     1       3.839   3.565  16.954  0.00  0.00    +0.000 HD
ENDROOT
BRANCH   1  16
ATOM     11  C   UNL     1       3.303   2.971  19.933  0.00  0.00    +0.000 A 
ATOM     12  C   UNL     1       2.213   2.722  20.791  0.00  0.00    +0.000 A 
ATOM     13  C   UNL     1       1.348   3.745  21.188  0.00  0.00    +0.000 A 
ATOM     14  C   UNL     1       1.548   5.034  20.724  0.00  0.00    +0.000 A 
ATOM     15  C   UNL     1       2.600   5.291  19.849  0.00  0.00    +0.000 A 
ATOM     16  C   UNL     1       3.487   4.273  19.431  0.00  0.00    +0.000 A 
BRANCH  11  18
ATOM     17  C   UNL     1       3.723   1.105  18.527  0.00  0.00    +0.000 C 
ATOM     18  O   UNL     1       4.185   1.985  19.556  0.00  0.00    +0.000 OA
ENDBRANCH  11  18
ENDBRANCH   1  16
BRANCH   6  19
ATOM     19  N   UNL     1       6.366   3.793  12.755  0.00  0.00    +0.000 N 
ATOM     20  C   UNL     1       5.088   3.405  12.160  0.00  0.00    +0.000 C 
ATOM     21  C   UNL     1       5.230   1.972  11.634  0.00  0.00    +0.000 C 
ATOM     22  C   UNL     1       6.451   1.813  10.721  0.00  0.00    +0.000 C 
ATOM     23  C   UNL     1       7.723   2.364  11.372  0.00  0.00    +0.000 C 
ATOM     24  C   UNL     1       7.506   3.796  11.851  0.00  0.00    +0.000 C 
ENDBRANCH   6  19
TORSDOF 3
ENDMDL
MODEL 4
REMARK VINA RESULT:      -7.1      2.812      8.560
REMARK  Name = 
REMARK  4 active torsions:
REMARK  status: ('A' for Active; 'I' for Inactive)
REMARK    1  A    between atoms: C_1  and  O_2
REMARK    2  A    between atoms: O_2  and  C_3
REMARK    3  A    between atoms: C_8  and  C_9
REMARK    4  A    between atoms: C_14  and  N_15
REMARK                            x       y       z     vdW  Elec       q    Type
REMARK                         _______ _______ _______ _____ _____    ______ ____
ROOT
ATOM      1  C   UNL     1       4.459   4.622  18.606  0.00  0.00    +0.000 C 
ATOM      2  O   UNL     1       5.314   5.358  19.093  0.00  0.00    +0.000 OA
ATOM      3  N   UNL     1       4.463   4.165  17.302  0.00  0.00    +0.000 N 
ATOM      4  C   UNL     1       5.481   4.465  16.370  0.00  0.00    +0.000 A 
ATOM      5  C   UNL     1       5.368   3.966  15.089  0.00  0.00    +0.000 A 
ATOM      6  C   UNL     1       6.373   4.266  14.176  0.00  0.00    +0.000 A 
ATOM      7  N   UNL     1       7.408   5.040  14.538  0.00  0.00    +0.000 NA
ATOM      8  C   UNL     1       7.436   5.472  15.802  0.00  0.00    +0.000 A 
ATOM      9  N   UNL     1       6.524   5.215  16.736  0.00  0.00    +0.000 NA
ATOM     10  H   UNL     1       3.690   3.584  17.006  0.00  0.00    +0.000 HD
ENDROOT
BRANCH   1  16
ATOM     11  C   UNL     1       2.125   4.902  19.718  0.00  0.00    +0.000 A 
ATOM     12  C   UNL     1       1.184   4.371  20.623  0.00  0.00    +0.000 A 
ATOM     13  C   UNL     1       1.401   3.152  21.269  0.00  0.00    +0.000 A 
ATOM     14  C   UNL     1       2.569   2.446  21.035  0.00  0.00    +0.000 A 
ATOM     15  C   UNL     1       3.524   2.972  20.170  0.00  0.00    +0.000 A 
ATOM     16  C   UNL     1       3.329   4.204  19.505  0.00  0.00    +0.000 A 
BRANCH  11  18
ATOM     17  C   UNL     1       2.212   7.273  19.785  0.00  0.00    +0.000 C 
ATOM     18  O   UNL     1       1.917   6.085  19.046  0.00  0.00    +0.000 OA
ENDBRANCH  11  18
ENDBRANCH   1  16
BRANCH   6  19
ATOM     19  N   UNL     1       6.323   3.823  12.873  0.00  0.00    +0.000 N 
ATOM     20  C   UNL     1       5.045   3.448  12.271  0.00  0.00    +0.000 C 
ATOM     21  C   UNL     1       5.201   2.043  11.675  0.00  0.00    +0.000 C 
ATOM     22  C   UNL     1       6.415   1.944  10.746  0.00  0.00    +0.000 C 
ATOM     23  C   UNL     1       7.686   2.479  11.412  0.00  0.00    +0.000 C 
ATOM     24  C   UNL     1       7.455   3.883  11.962  0.00  0.00    +0.000 C 
ENDBRANCH   6  19
TORSDOF 3
ENDMDL
MODEL 5
REMARK VINA RESULT:      -7.1      1.787      2.432
REMARK  Name = 
REMARK  4 active torsions:
REMARK  status: ('A' for Active; 'I' for Inactive)
REMARK    1  A    between atoms: C_1  and  O_2
REMARK    2  A    between atoms: O_2  and  C_3
REMARK    3  A    between atoms: C_8  and  C_9
REMARK    4  A    between atoms: C_14  and  N_15
REMARK                            x       y       z     vdW  Elec       q    Type
REMARK                         _______ _______ _______ _____ _____    ______ ____
ROOT
ATOM      1  C   UNL     1       4.212   5.951  18.271  0.00  0.00    +0.000 C 
ATOM      2  O   UNL     1       4.052   5.314  19.311  0.00  0.00    +0.000 OA
ATOM      3  N   UNL     1       3.527   7.104  17.941  0.00  0.00    +0.000 N 
ATOM      4  C   UNL     1       2.574   7.718  18.783  0.00  0.00    +0.000 A 
ATOM      5  C   UNL     1       1.941   8.859  18.337  0.00  0.00    +0.000 A 
ATOM      6  C   UNL     1       1.002   9.457  19.171  0.00  0.00    +0.000 A 
ATOM      7  N   UNL     1       0.713   8.915  20.365  0.00  0.00    +0.000 NA
ATOM      8  C   UNL     1       1.382   7.813  20.715  0.00  0.00    +0.000 A 
ATOM      9  N   UNL     1       2.304   7.194  19.981  0.00  0.00    +0.000 NA
ATOM     10  H   UNL     1       3.726   7.527  17.044  0.00  0.00    +0.000 HD
ENDROOT
BRANCH   1  16
ATOM     11  C   UNL     1       6.481   4.866  17.609  0.00  0.00    +0.000 A 
ATOM     12  C   UNL     1       7.316   4.439  16.557  0.00  0.00    +0.000 A 
ATOM     13  C   UNL     1       6.902   4.506  15.224  0.00  0.00    +0.000 A 
ATOM     14  C   UNL     1       5.651   5.014  14.916  0.00  0.00    +0.000 A 
ATOM     15  C   UNL     1       4.828   5.471  15.940  0.00  0.00    +0.000 A 
ATOM     16  C   UNL     1       5.224   5.417  17.296  0.00  0.00    +0.000 A 
BRANCH  11  18
ATOM     17  C   UNL     1       7.814   5.749  19.364  0.00  0.00    +0.000 C 
ATOM     18  O   UNL     1       6.856   4.780  18.930  0.00  0.00    +0.000 OA
ENDBRANCH  11  18
ENDBRANCH   1  16
BRANCH   6  19
ATOM     19  N   UNL     1       0.312  10.587  18.791  0.00  0.00    +0.000 N 
ATOM     20  C   UNL     1       0.949  11.900  18.868  0.00  0.00    +0.000 C 
ATOM     21  C   UNL     1       0.020  12.829  19.658  0.00  0.00    +0.000 C 
ATOM     22  C   UNL     1      -1.407  12.827  19.098  0.00  0.00    +0.000 C 
ATOM     23  C   UNL     1      -1.949  11.405  18.928  0.00  0.00    +0.000 C 
ATOM     24  C   UNL     1      -0.977  10.551  18.118  0.00  0.00    +0.000 C 
ENDBRANCH   6  19
TORSDOF 3
ENDMDL
MODEL 6
REMARK VINA RESULT:      -7.1      1.627      2.304
REMARK  Name = 
REMARK  4 active torsions:
REMARK  status: ('A' for Active; 'I' for Inactive)
REMARK    1  A    between atoms: C_1  and  O_2
REMARK    2  A    between atoms: O_2  and  C_3
REMARK    3  A    between atoms: C_8  and  C_9
REMARK    4  A    between atoms: C_14  and  N_15
REMARK                            x       y       z     vdW  Elec       q    Type
REMARK                         _______ _______ _______ _____ _____    ______ ____
ROOT
ATOM      1  C   UNL     1       3.993   5.801  18.039  0.00  0.00    +0.000 C 
ATOM      2  O   UNL     1       3.832   5.000  18.958  0.00  0.00    +0.000 OA
ATOM      3  N   UNL     1       3.376   7.033  17.950  0.00  0.00    +0.000 N 
ATOM      4  C   UNL     1       2.500   7.543  18.932  0.00  0.00    +0.000 A 
ATOM      5  C   UNL     1       1.927   8.781  18.725  0.00  0.00    +0.000 A 
ATOM      6  C   UNL     1       1.064   9.277  19.696  0.00  0.00    +0.000 A 
ATOM      7  N   UNL     1       0.785   8.550  20.790  0.00  0.00    +0.000 NA
ATOM      8  C   UNL     1       1.392   7.366  20.908  0.00  0.00    +0.000 A 
ATOM      9  N   UNL     1       2.241   6.832  20.033  0.00  0.00    +0.000 NA
ATOM     10  H   UNL     1       3.568   7.596  17.132  0.00  0.00    +0.000 HD
ENDROOT
BRANCH   1  16
ATOM     11  C   UNL     1       6.009   6.138  16.430  0.00  0.00    +0.000 A 
ATOM     12  C   UNL     1       6.766   5.603  15.369  0.00  0.00    +0.000 A 
ATOM     13  C   UNL     1       6.499   4.334  14.848  0.00  0.00    +0.000 A 
ATOM     14  C   UNL     1       5.459   3.581  15.368  0.00  0.00    +0.000 A 
ATOM     15  C   UNL     1       4.680   4.108  16.394  0.00  0.00    +0.000 A 
ATOM     16  C   UNL     1       4.929   5.389  16.937  0.00  0.00    +0.000 A 
BRANCH  11  18
ATOM     17  C   UNL     1       7.554   7.503  17.607  0.00  0.00    +0.000 C 
ATOM     18  O   UNL     1       6.276   7.371  16.979  0.00  0.00    +0.000 OA
ENDBRANCH  11  18
ENDBRANCH   1  16
BRANCH   6  19
ATOM     19  N   UNL     1       0.437  10.495  19.554  0.00  0.00    +0.000 N 
ATOM     20  C   UNL     1      -1.003  10.558  19.310  0.00  0.00    +0.000 C 
ATOM     21  C   UNL     1      -1.232  11.438  18.075  0.00  0.00    +0.000 C 
ATOM     22  C   UNL     1      -0.530  12.794  18.198  0.00  0.00    +0.000 C 
ATOM     23  C   UNL     1       0.944  12.639  18.584  0.00  0.00    +0.000 C 
ATOM     24  C   UNL     1       1.086  11.767  19.828  0.00  0.00    +0.000 C 
ENDBRANCH   6  19
TORSDOF 3
ENDMDL
MODEL 7
REMARK VINA RESULT:      -7.1      2.628      7.861
REMARK  Name = 
REMARK  4 active torsions:
REMARK  status: ('A' for Active; 'I' for Inactive)
REMARK    1  A    between atoms: C_1  and  O_2
REMARK    2  A    between atoms: O_2  and  C_3
REMARK    3  A    between atoms: C_8  and  C_9
REMARK    4  A    between atoms: C_14  and  N_15
REMARK                            x       y       z     vdW  Elec       q    Type
REMARK                         _______ _______ _______ _____ _____    ______ ____
ROOT
ATOM      1  C   UNL     1       0.876   8.877  20.342  0.00  0.00    +0.000 C 
ATOM      2  O   UNL     1       0.321   8.334  21.296  0.00  0.00    +0.000 OA
ATOM      3  N   UNL     1       1.830   8.280  19.542  0.00  0.00    +0.000 N 
ATOM      4  C   UNL     1       2.265   6.947  19.703  0.00  0.00    +0.000 A 
ATOM      5  C   UNL     1       3.238   6.465  18.852  0.00  0.00    +0.000 A 
ATOM      6  C   UNL     1       3.663   5.151  19.018  0.00  0.00    +0.000 A 
ATOM      7  N   UNL     1       3.148   4.390  19.997  0.00  0.00    +0.000 NA
ATOM      8  C   UNL     1       2.205   4.940  20.767  0.00  0.00    +0.000 A 
ATOM      9  N   UNL     1       1.735   6.181  20.661  0.00  0.00    +0.000 NA
ATOM     10  H   UNL     1       2.235   8.836  18.800  0.00  0.00    +0.000 HD
ENDROOT
BRANCH   1  16
ATOM     11  C   UNL     1      -0.098  10.773  18.852  0.00  0.00    +0.000 A 
ATOM     12  C   UNL     1      -0.380  12.150  18.738  0.00  0.00    +0.000 A 
ATOM     13  C   UNL     1      -0.143  13.033  19.794  0.00  0.00    +0.000 A 
ATOM     14  C   UNL     1       0.392  12.561  20.980  0.00  0.00    +0.000 A 
ATOM     15  C   UNL     1       0.707  11.210  21.098  0.00  0.00    +0.000 A 
ATOM     16  C   UNL     1       0.480  10.297  20.044  0.00  0.00    +0.000 A 
BRANCH  11  18
ATOM     17  C   UNL     1      -1.670   9.938  17.281  0.00  0.00    +0.000 C 
ATOM     18  O   UNL     1      -0.353   9.881  17.836  0.00  0.00    +0.000 OA
ENDBRANCH  11  18
ENDBRANCH   1  16
BRANCH   6  19
ATOM     19  N   UNL     1       4.645   4.602  18.223  0.00  0.00    +0.000 N 
ATOM     20  C   UNL     1       6.052   4.723  18.600  0.00  0.00    +0.000 C 
ATOM     21  C   UNL     1       6.813   5.293  17.397  0.00  0.00    +0.000 C 
ATOM     22  C   UNL     1       6.547   4.494  16.117  0.00  0.00    +0.000 C 
ATOM     23  C   UNL     1       5.048   4.302  15.869  0.00  0.00    +0.000 C 
ATOM     24  C   UNL     1       4.368   3.717  17.103  0.00  0.00    +0.000 C 
ENDBRANCH   6  19
TORSDOF 3
ENDMDL
MODEL 8
REMARK VINA RESULT:      -7.1      1.831      3.124
REMARK  Name = 
REMARK  4 active torsions:
REMARK  status: ('A' for Active; 'I' for Inactive)
REMARK    1  A    between atoms: C_1  and  O_2
REMARK    2  A    between atoms: O_2  and  C_3
REMARK    3  A    between atoms: C_8  and  C_9
REMARK    4  A    between atoms: C_14  and  N_15
REMARK                            x       y       z     vdW  Elec       q    Type
REMARK                         _______ _______ _______ _____ _____    ______ ____
ROOT
ATOM      1  C   UNL     1       3.964   6.094  18.446  0.00  0.00    +0.000 C 
ATOM      2  O   UNL     1       4.010   5.655  19.593  0.00  0.00    +0.000 OA
ATOM      3  N   UNL     1       3.133   7.114  18.025  0.00  0.00    +0.000 N 
ATOM      4  C   UNL     1       2.249   7.807  18.880  0.00  0.00    +0.000 A 
ATOM      5  C   UNL     1       1.454   8.798  18.342  0.00  0.00    +0.000 A 
ATOM      6  C   UNL     1       0.584   9.475  19.190  0.00  0.00    +0.000 A 
ATOM      7  N   UNL     1       0.514   9.149  20.490  0.00  0.00    +0.000 NA
ATOM      8  C   UNL     1       1.328   8.182  20.923  0.00  0.00    +0.000 A 
ATOM      9  N   UNL     1       2.196   7.501  20.180  0.00  0.00    +0.000 NA
ATOM     10  H   UNL     1       3.166   7.374  17.048  0.00  0.00    +0.000 HD
ENDROOT
BRANCH   1  16
ATOM     11  C   UNL     1       4.657   4.253  16.745  0.00  0.00    +0.000 A 
ATOM     12  C   UNL     1       5.645   3.791  15.852  0.00  0.00    +0.000 A 
ATOM     13  C   UNL     1       6.807   4.526  15.606  0.00  0.00    +0.000 A 
ATOM     14  C   UNL     1       7.013   5.729  16.259  0.00  0.00    +0.000 A 
ATOM     15  C   UNL     1       6.063   6.184  17.170  0.00  0.00    +0.000 A 
ATOM     16  C   UNL     1       4.880   5.458  17.438  0.00  0.00    +0.000 A 
BRANCH  11  18
ATOM     17  C   UNL     1       3.601   2.449  17.871  0.00  0.00    +0.000 C 
ATOM     18  O   UNL     1       3.491   3.561  16.978  0.00  0.00    +0.000 OA
ENDBRANCH  11  18
ENDBRANCH   1  16
BRANCH   6  19
ATOM     19  N   UNL     1      -0.257  10.462  18.726  0.00  0.00    +0.000 N 
ATOM     20  C   UNL     1      -0.106  11.838  19.194  0.00  0.00    +0.000 C 
ATOM     21  C   UNL     1      -1.474  12.317  19.695  0.00  0.00    +0.000 C 
ATOM     22  C   UNL     1      -2.576  12.099  18.654  0.00  0.00    +0.000 C 
ATOM     23  C   UNL     1      -2.578  10.663  18.121  0.00  0.00    +0.000 C 
ATOM     24  C   UNL     1      -1.190  10.270  17.627  0.00  0.00    +0.000 C 
ENDBRANCH   6  19
TORSDOF 3
ENDMDL
MODEL 9
REMARK VINA RESULT:      -7.1      2.622      8.189
REMARK  Name = 
REMARK  4 active torsions:
REMARK  status: ('A' for Active; 'I' for Inactive)
REMARK    1  A    between atoms: C_1  and  O_2
REMARK    2  A    between atoms: O_2  and  C_3
REMARK    3  A    between atoms: C_8  and  C_9
REMARK    4  A    between atoms: C_14  and  N_15
REMARK                            x       y       z     vdW  Elec       q    Type
REMARK                         _______ _______ _______ _____ _____    ______ ____
ROOT
ATOM      1  C   UNL     1       0.456   8.756  21.010  0.00  0.00    +0.000 C 
ATOM      2  O   UNL     1       0.038   7.944  21.834  0.00  0.00    +0.000 OA
ATOM      3  N   UNL     1       1.430   8.491  20.067  0.00  0.00    +0.000 N 
ATOM      4  C   UNL     1       2.046   7.230  19.910  0.00  0.00    +0.000 A 
ATOM      5  C   UNL     1       3.020   7.090  18.943  0.00  0.00    +0.000 A 
ATOM      6  C   UNL     1       3.624   5.846  18.795  0.00  0.00    +0.000 A 
ATOM      7  N   UNL     1       3.275   4.824  19.593  0.00  0.00    +0.000 NA
ATOM      8  C   UNL     1       2.318   5.052  20.496  0.00  0.00    +0.000 A 
ATOM      9  N   UNL     1       1.683   6.206  20.686  0.00  0.00    +0.000 NA
ATOM     10  H   UNL     1       1.711   9.248  19.458  0.00  0.00    +0.000 HD
ENDROOT
BRANCH   1  16
ATOM     11  C   UNL     1      -0.501  10.926  19.945  0.00  0.00    +0.000 A 
ATOM     12  C   UNL     1      -1.026  12.215  20.174  0.00  0.00    +0.000 A 
ATOM     13  C   UNL     1      -1.238  12.696  21.468  0.00  0.00    +0.000 A 
ATOM     14  C   UNL     1      -0.918  11.906  22.559  0.00  0.00    +0.000 A 
ATOM     15  C   UNL     1      -0.368  10.644  22.351  0.00  0.00    +0.000 A 
ATOM     16  C   UNL     1      -0.141  10.135  21.052  0.00  0.00    +0.000 A 
BRANCH  11  18
ATOM     17  C   UNL     1      -1.496  10.295  17.884  0.00  0.00    +0.000 C 
ATOM     18  O   UNL     1      -0.314  10.421  18.679  0.00  0.00    +0.000 OA
ENDBRANCH  11  18
ENDBRANCH   1  16
BRANCH   6  19
ATOM     19  N   UNL     1       4.619   5.630  17.867  0.00  0.00    +0.000 N 
ATOM     20  C   UNL     1       5.259   6.760  17.197  0.00  0.00    +0.000 C 
ATOM     21  C   UNL     1       5.193   6.509  15.686  0.00  0.00    +0.000 C 
ATOM     22  C   UNL     1       5.741   5.129  15.307  0.00  0.00    +0.000 C 
ATOM     23  C   UNL     1       5.110   4.017  16.149  0.00  0.00    +0.000 C 
ATOM     24  C   UNL     1       5.232   4.331  17.637  0.00  0.00    +0.000 C 
ENDBRANCH   6  19
TORSDOF 3
ENDMDL
