MODEL 1
REMARK VINA RESULT:      -7.8      0.000      0.000
REMARK  Name = 
REMARK  15 active torsions:
REMARK  status: ('A' for Active; 'I' for Inactive)
REMARK    1  A    between atoms: C_1  and  C_2
REMARK    2  A    between atoms: C_2  and  O_3
REMARK    3  A    between atoms: O_3  and  C_4
REMARK    4  A    between atoms: C_4  and  C_6
REMARK    5  A    between atoms: C_8  and  C_9
REMARK    6  A    between atoms: N_11  and  C_12
REMARK    7  A    between atoms: C_12  and  C_13
REMARK    8  A    between atoms: C_12  and  C_17
REMARK    9  A    between atoms: C_13  and  C_14
REMARK   10  A    between atoms: C_14  and  C_15
REMARK   11  A    between atoms: C_14  and  C_16
REMARK   12  A    between atoms: N_19  and  C_20
REMARK   13  A    between atoms: C_20  and  C_21
REMARK   14  A    between atoms: C_21  and  C_22
REMARK   15  A    between atoms: C_21  and  C_23
REMARK                            x       y       z     vdW  Elec       q    Type
REMARK                         _______ _______ _______ _____ _____    ______ ____
ROOT
ATOM      1  C   UNL     1       4.045   3.856  17.192  0.00  0.00    +0.000 C 
ATOM      2  O   UNL     1       3.586   4.941  17.527  0.00  0.00    +0.000 OA
ATOM      3  N   UNL     1       5.290   3.704  16.633  0.00  0.00    +0.000 N 
ATOM      4  H   UNL     1       5.608   2.796  16.303  0.00  0.00    +0.000 HD
ENDROOT
BRANCH   1   7
ATOM      5  C   UNL     1       3.307   1.877  18.750  0.00  0.00    +0.000 C 
ATOM      6  N   UNL     1       4.141   1.388  17.654  0.00  0.00    +0.000 NA
ATOM      7  C   UNL     1       3.299   2.580  17.412  0.00  0.00    +0.000 C 
ATOM      8  H   UNL     1       3.730   0.570  17.204  0.00  0.00    +0.000 HD
BRANCH   5   9
ATOM      9  C   UNL     1       3.931   2.573  19.900  0.00  0.00    +0.000 C 
ATOM     10  O   UNL     1       5.081   2.984  19.812  0.00  0.00    +0.000 OA
BRANCH   9  11
ATOM     11  O   UNL     1       3.119   2.707  20.982  0.00  0.00    +0.000 OA
BRANCH  11  13
ATOM     12  C   UNL     1       2.176   4.925  20.700  0.00  0.00    +0.000 C 
ATOM     13  C   UNL     1       1.909   3.430  20.738  0.00  0.00    +0.000 C 
ENDBRANCH  11  13
ENDBRANCH   9  11
ENDBRANCH   5   9
ENDBRANCH   1   7
BRANCH   3  14
ATOM     14  C   UNL     1       6.160   4.848  16.354  0.00  0.00    +0.000 C 
BRANCH  14  15
ATOM     15  C   UNL     1       6.684   4.677  14.913  0.00  0.00    +0.000 C 
ATOM     16  O   UNL     1       7.678   5.281  14.506  0.00  0.00    +0.000 OA
ATOM     17  N   UNL     1       5.918   3.855  14.115  0.00  0.00    +0.000 N 
ATOM     18  H   UNL     1       5.181   3.306  14.538  0.00  0.00    +0.000 HD
BRANCH  17  19
ATOM     19  C   UNL     1       6.213   3.636  12.713  0.00  0.00    +0.000 C 
BRANCH  19  20
ATOM     20  C   UNL     1       5.296   2.588  12.068  0.00  0.00    +0.000 C 
ATOM     21  C   UNL     1       4.216   3.234  11.198  0.00  0.00    +0.000 C 
ATOM     22  C   UNL     1       6.129   1.621  11.224  0.00  0.00    +0.000 C 
ENDBRANCH  19  20
ENDBRANCH  17  19
ENDBRANCH  14  15
BRANCH  14  23
ATOM     23  C   UNL     1       7.323   4.905  17.370  0.00  0.00    +0.000 C 
BRANCH  23  24
ATOM     24  C   UNL     1       7.260   6.035  18.422  0.00  0.00    +0.000 C 
ATOM     25  C   UNL     1       8.093   5.758  19.674  0.00  0.00    +0.000 C 
ATOM     26  C   UNL     1       7.709   7.367  17.807  0.00  0.00    +0.000 C 
ENDBRANCH  23  24
ENDBRANCH  14  23
ENDBRANCH   3  14
TORSDOF 10
ENDMDL
MODEL 2
REMARK VINA RESULT:      -7.3      3.096      7.860
REMARK  Name = 
REMARK  15 active torsions:
REMARK  status: ('A' for Active; 'I' for Inactive)
REMARK    1  A    between atoms: C_1  and  C_2
REMARK    2  A    between atoms: C_2  and  O_3
REMARK    3  A    between atoms: O_3  and  C_4
REMARK    4  A    between atoms: C_4  and  C_6
REMARK    5  A    between atoms: C_8  and  C_9
REMARK    6  A    between atoms: N_11  and  C_12
REMARK    7  A    between atoms: C_12  and  C_13
REMARK    8  A    between atoms: C_12  and  C_17
REMARK    9  A    between atoms: C_13  and  C_14
REMARK   10  A    between atoms: C_14  and  C_15
REMARK   11  A    between atoms: C_14  and  C_16
REMARK   12  A    between atoms: N_19  and  C_20
REMARK   13  A    between atoms: C_20  and  C_21
REMARK   14  A    between atoms: C_21  and  C_22
REMARK   15  A    between atoms: C_21  and  C_23
REMARK                            x       y       z     vdW  Elec       q    Type
REMARK                         _______ _______ _______ _____ _____    ______ ____
ROOT
ATOM      1  C   UNL     1       5.004   4.873  18.927  0.00  0.00    +0.000 C 
ATOM      2  O   UNL     1       4.549   3.761  18.686  0.00  0.00    +0.000 OA
ATOM      3  N   UNL     1       4.237   5.920  19.375  0.00  0.00    +0.000 N 
ATOM      4  H   UNL     1       4.638   6.847  19.496  0.00  0.00    +0.000 HD
ENDROOT
BRANCH   1   7
ATOM      5  C   UNL     1       7.077   5.579  17.482  0.00  0.00    +0.000 C 
ATOM      6  N   UNL     1       7.239   4.218  17.986  0.00  0.00    +0.000 NA
ATOM      7  C   UNL     1       6.462   5.175  18.801  0.00  0.00    +0.000 C 
ATOM      8  H   UNL     1       8.162   4.075  18.395  0.00  0.00    +0.000 HD
BRANCH   5   9
ATOM      9  C   UNL     1       6.170   5.843  16.340  0.00  0.00    +0.000 C 
ATOM     10  O   UNL     1       5.716   6.967  16.170  0.00  0.00    +0.000 OA
BRANCH   9  11
ATOM     11  O   UNL     1       5.936   4.763  15.548  0.00  0.00    +0.000 OA
BRANCH  11  13
ATOM     12  C   UNL     1       6.201   3.784  13.342  0.00  0.00    +0.000 C 
ATOM     13  C   UNL     1       6.829   4.630  14.437  0.00  0.00    +0.000 C 
ENDBRANCH  11  13
ENDBRANCH   9  11
ENDBRANCH   5   9
ENDBRANCH   1   7
BRANCH   3  14
ATOM     14  C   UNL     1       2.790   5.797  19.562  0.00  0.00    +0.000 C 
BRANCH  14  15
ATOM     15  C   UNL     1       2.239   7.222  19.776  0.00  0.00    +0.000 C 
ATOM     16  O   UNL     1       2.149   8.030  18.850  0.00  0.00    +0.000 OA
ATOM     17  N   UNL     1       1.926   7.528  21.082  0.00  0.00    +0.000 N 
ATOM     18  H   UNL     1       1.920   6.790  21.774  0.00  0.00    +0.000 HD
BRANCH  17  19
ATOM     19  C   UNL     1       1.467   8.843  21.485  0.00  0.00    +0.000 C 
BRANCH  19  20
ATOM     20  C   UNL     1      -0.063   8.963  21.497  0.00  0.00    +0.000 C 
ATOM     21  C   UNL     1      -0.582   9.501  22.832  0.00  0.00    +0.000 C 
ATOM     22  C   UNL     1      -0.518   9.879  20.358  0.00  0.00    +0.000 C 
ENDBRANCH  19  20
ENDBRANCH  17  19
ENDBRANCH  14  15
BRANCH  14  23
ATOM     23  C   UNL     1       2.476   4.888  20.773  0.00  0.00    +0.000 C 
BRANCH  23  24
ATOM     24  C   UNL     1       1.268   3.937  20.621  0.00  0.00    +0.000 C 
ATOM     25  C   UNL     1       1.052   3.439  19.191  0.00  0.00    +0.000 C 
ATOM     26  C   UNL     1       1.415   2.728  21.554  0.00  0.00    +0.000 C 
ENDBRANCH  23  24
ENDBRANCH  14  23
ENDBRANCH   3  14
TORSDOF 10
ENDMDL
MODEL 3
REMARK VINA RESULT:      -6.9      0.769      1.206
REMARK  Name = 
REMARK  15 active torsions:
REMARK  status: ('A' for Active; 'I' for Inactive)
REMARK    1  A    between atoms: C_1  and  C_2
REMARK    2  A    between atoms: C_2  and  O_3
REMARK    3  A    between atoms: O_3  and  C_4
REMARK    4  A    between atoms: C_4  and  C_6
REMARK    5  A    between atoms: C_8  and  C_9
REMARK    6  A    between atoms: N_11  and  C_12
REMARK    7  A    between atoms: C_12  and  C_13
REMARK    8  A    between atoms: C_12  and  C_17
REMARK    9  A    between atoms: C_13  and  C_14
REMARK   10  A    between atoms: C_14  and  C_15
REMARK   11  A    between atoms: C_14  and  C_16
REMARK   12  A    between atoms: N_19  and  C_20
REMARK   13  A    between atoms: C_20  and  C_21
REMARK   14  A    between atoms: C_21  and  C_22
REMARK   15  A    between atoms: C_21  and  C_23
REMARK                            x       y       z     vdW  Elec       q    Type
REMARK                         _______ _______ _______ _____ _____    ______ ____
ROOT
ATOM      1  C   UNL     1       3.735   3.724  17.393  0.00  0.00    +0.000 C 
ATOM      2  O   UNL     1       3.203   4.815  17.557  0.00  0.00    +0.000 OA
ATOM      3  N   UNL     1       5.044   3.575  17.005  0.00  0.00    +0.000 N 
ATOM      4  H   UNL     1       5.430   2.654  16.811  0.00  0.00    +0.000 HD
ENDROOT
BRANCH   1   7
ATOM      5  C   UNL     1       3.123   1.722  18.976  0.00  0.00    +0.000 C 
ATOM      6  N   UNL     1       3.870   1.251  17.813  0.00  0.00    +0.000 NA
ATOM      7  C   UNL     1       3.011   2.443  17.653  0.00  0.00    +0.000 C 
ATOM      8  H   UNL     1       3.427   0.437  17.384  0.00  0.00    +0.000 HD
BRANCH   5   9
ATOM      9  C   UNL     1       3.833   2.404  20.084  0.00  0.00    +0.000 C 
ATOM     10  O   UNL     1       5.042   2.260  20.212  0.00  0.00    +0.000 OA
BRANCH   9  11
ATOM     11  O   UNL     1       3.035   3.171  20.873  0.00  0.00    +0.000 OA
BRANCH  11  13
ATOM     12  C   UNL     1       0.808   4.004  20.386  0.00  0.00    +0.000 C 
ATOM     13  C   UNL     1       1.648   2.823  20.843  0.00  0.00    +0.000 C 
ENDBRANCH  11  13
ENDBRANCH   9  11
ENDBRANCH   5   9
ENDBRANCH   1   7
BRANCH   3  14
ATOM     14  C   UNL     1       5.903   4.724  16.716  0.00  0.00    +0.000 C 
BRANCH  14  15
ATOM     15  C   UNL     1       6.080   4.783  15.185  0.00  0.00    +0.000 C 
ATOM     16  O   UNL     1       6.902   5.530  14.653  0.00  0.00    +0.000 OA
ATOM     17  N   UNL     1       5.205   3.991  14.473  0.00  0.00    +0.000 N 
ATOM     18  H   UNL     1       4.630   3.323  14.970  0.00  0.00    +0.000 HD
BRANCH  17  19
ATOM     19  C   UNL     1       5.171   3.974  13.024  0.00  0.00    +0.000 C 
BRANCH  19  20
ATOM     20  C   UNL     1       6.242   3.061  12.413  0.00  0.00    +0.000 C 
ATOM     21  C   UNL     1       5.629   1.992  11.507  0.00  0.00    +0.000 C 
ATOM     22  C   UNL     1       7.245   3.900  11.618  0.00  0.00    +0.000 C 
ENDBRANCH  19  20
ENDBRANCH  17  19
ENDBRANCH  14  15
BRANCH  14  23
ATOM     23  C   UNL     1       7.265   4.577  17.431  0.00  0.00    +0.000 C 
BRANCH  23  24
ATOM     24  C   UNL     1       7.803   5.834  18.150  0.00  0.00    +0.000 C 
ATOM     25  C   UNL     1       7.124   7.132  17.710  0.00  0.00    +0.000 C 
ATOM     26  C   UNL     1       7.663   5.686  19.670  0.00  0.00    +0.000 C 
ENDBRANCH  23  24
ENDBRANCH  14  23
ENDBRANCH   3  14
TORSDOF 10
ENDMDL
MODEL 4
REMARK VINA RESULT:      -6.9      0.877      1.153
REMARK  Name = 
REMARK  15 active torsions:
REMARK  status: ('A' for Active; 'I' for Inactive)
REMARK    1  A    between atoms: C_1  and  C_2
REMARK    2  A    between atoms: C_2  and  O_3
REMARK    3  A    between atoms: O_3  and  C_4
REMARK    4  A    between atoms: C_4  and  C_6
REMARK    5  A    between atoms: C_8  and  C_9
REMARK    6  A    between atoms: N_11  and  C_12
REMARK    7  A    between atoms: C_12  and  C_13
REMARK    8  A    between atoms: C_12  and  C_17
REMARK    9  A    between atoms: C_13  and  C_14
REMARK   10  A    between atoms: C_14  and  C_15
REMARK   11  A    between atoms: C_14  and  C_16
REMARK   12  A    between atoms: N_19  and  C_20
REMARK   13  A    between atoms: C_20  and  C_21
REMARK   14  A    between atoms: C_21  and  C_22
REMARK   15  A    between atoms: C_21  and  C_23
REMARK                            x       y       z     vdW  Elec       q    Type
REMARK                         _______ _______ _______ _____ _____    ______ ____
ROOT
ATOM      1  C   UNL     1       3.117   3.627  17.328  0.00  0.00    +0.000 C 
ATOM      2  O   UNL     1       2.255   4.470  17.547  0.00  0.00    +0.000 OA
ATOM      3  N   UNL     1       4.352   3.929  16.810  0.00  0.00    +0.000 N 
ATOM      4  H   UNL     1       5.015   3.194  16.576  0.00  0.00    +0.000 HD
ENDROOT
BRANCH   1   7
ATOM      5  C   UNL     1       3.404   1.590  18.958  0.00  0.00    +0.000 C 
ATOM      6  N   UNL     1       4.146   1.369  17.719  0.00  0.00    +0.000 NA
ATOM      7  C   UNL     1       2.914   2.184  17.658  0.00  0.00    +0.000 C 
ATOM      8  H   UNL     1       3.972   0.439  17.337  0.00  0.00    +0.000 HD
BRANCH   5   9
ATOM      9  C   UNL     1       3.941   2.512  19.988  0.00  0.00    +0.000 C 
ATOM     10  O   UNL     1       4.989   3.111  19.781  0.00  0.00    +0.000 OA
BRANCH   9  11
ATOM     11  O   UNL     1       3.171   2.618  21.102  0.00  0.00    +0.000 OA
BRANCH  11  13
ATOM     12  C   UNL     1       2.105   4.795  20.965  0.00  0.00    +0.000 C 
ATOM     13  C   UNL     1       1.921   3.288  20.906  0.00  0.00    +0.000 C 
ENDBRANCH  11  13
ENDBRANCH   9  11
ENDBRANCH   5   9
ENDBRANCH   1   7
BRANCH   3  14
ATOM     14  C   UNL     1       4.723   5.295  16.437  0.00  0.00    +0.000 C 
BRANCH  14  15
ATOM     15  C   UNL     1       5.560   5.200  15.144  0.00  0.00    +0.000 C 
ATOM     16  O   UNL     1       6.182   6.165  14.699  0.00  0.00    +0.000 OA
ATOM     17  N   UNL     1       5.495   3.981  14.506  0.00  0.00    +0.000 N 
ATOM     18  H   UNL     1       5.057   3.200  14.977  0.00  0.00    +0.000 HD
BRANCH  17  19
ATOM     19  C   UNL     1       6.154   3.729  13.239  0.00  0.00    +0.000 C 
BRANCH  19  20
ATOM     20  C   UNL     1       5.380   2.745  12.351  0.00  0.00    +0.000 C 
ATOM     21  C   UNL     1       4.332   3.455  11.492  0.00  0.00    +0.000 C 
ATOM     22  C   UNL     1       6.357   1.984  11.450  0.00  0.00    +0.000 C 
ENDBRANCH  19  20
ENDBRANCH  17  19
ENDBRANCH  14  15
BRANCH  14  23
ATOM     23  C   UNL     1       5.525   5.969  17.574  0.00  0.00    +0.000 C 
BRANCH  23  24
ATOM     24  C   UNL     1       7.061   5.997  17.407  0.00  0.00    +0.000 C 
ATOM     25  C   UNL     1       7.701   7.323  17.823  0.00  0.00    +0.000 C 
ATOM     26  C   UNL     1       7.710   4.857  18.202  0.00  0.00    +0.000 C 
ENDBRANCH  23  24
ENDBRANCH  14  23
ENDBRANCH   3  14
TORSDOF 10
ENDMDL
MODEL 5
REMARK VINA RESULT:      -6.9      3.480      7.412
REMARK  Name = 
REMARK  15 active torsions:
REMARK  status: ('A' for Active; 'I' for Inactive)
REMARK    1  A    between atoms: C_1  and  C_2
REMARK    2  A    between atoms: C_2  and  O_3
REMARK    3  A    between atoms: O_3  and  C_4
REMARK    4  A    between atoms: C_4  and  C_6
REMARK    5  A    between atoms: C_8  and  C_9
REMARK    6  A    between atoms: N_11  and  C_12
REMARK    7  A    between atoms: C_12  and  C_13
REMARK    8  A    between atoms: C_12  and  C_17
REMARK    9  A    between atoms: C_13  and  C_14
REMARK   10  A    between atoms: C_14  and  C_15
REMARK   11  A    between atoms: C_14  and  C_16
REMARK   12  A    between atoms: N_19  and  C_20
REMARK   13  A    between atoms: C_20  and  C_21
REMARK   14  A    between atoms: C_21  and  C_22
REMARK   15  A    between atoms: C_21  and  C_23
REMARK                            x       y       z     vdW  Elec       q    Type
REMARK                         _______ _______ _______ _____ _____    ______ ____
ROOT
ATOM      1  C   UNL     1       5.022   4.729  18.469  0.00  0.00    +0.000 C 
ATOM      2  O   UNL     1       4.515   4.045  17.588  0.00  0.00    +0.000 OA
ATOM      3  N   UNL     1       4.298   5.552  19.295  0.00  0.00    +0.000 N 
ATOM      4  H   UNL     1       4.762   6.158  19.967  0.00  0.00    +0.000 HD
ENDROOT
BRANCH   1   7
ATOM      5  C   UNL     1       7.484   5.451  17.914  0.00  0.00    +0.000 C 
ATOM      6  N   UNL     1       7.315   4.011  17.736  0.00  0.00    +0.000 NA
ATOM      7  C   UNL     1       6.488   4.688  18.757  0.00  0.00    +0.000 C 
ATOM      8  H   UNL     1       8.066   3.485  18.183  0.00  0.00    +0.000 HD
BRANCH   5   9
ATOM      9  C   UNL     1       6.960   6.389  16.892  0.00  0.00    +0.000 C 
ATOM     10  O   UNL     1       6.527   5.954  15.833  0.00  0.00    +0.000 OA
BRANCH   9  11
ATOM     11  O   UNL     1       6.998   7.697  17.260  0.00  0.00    +0.000 OA
BRANCH  11  13
ATOM     12  C   UNL     1       8.388   9.530  18.034  0.00  0.00    +0.000 C 
ATOM     13  C   UNL     1       8.082   8.044  18.127  0.00  0.00    +0.000 C 
ENDBRANCH  11  13
ENDBRANCH   9  11
ENDBRANCH   5   9
ENDBRANCH   1   7
BRANCH   3  14
ATOM     14  C   UNL     1       2.849   5.707  19.158  0.00  0.00    +0.000 C 
BRANCH  14  15
ATOM     15  C   UNL     1       2.590   7.158  18.703  0.00  0.00    +0.000 C 
ATOM     16  O   UNL     1       3.144   7.639  17.713  0.00  0.00    +0.000 OA
ATOM     17  N   UNL     1       1.752   7.879  19.526  0.00  0.00    +0.000 N 
ATOM     18  H   UNL     1       1.246   7.397  20.259  0.00  0.00    +0.000 HD
BRANCH  17  19
ATOM     19  C   UNL     1       1.454   9.280  19.301  0.00  0.00    +0.000 C 
BRANCH  19  20
ATOM     20  C   UNL     1       0.479   9.856  20.337  0.00  0.00    +0.000 C 
ATOM     21  C   UNL     1      -0.780  10.425  19.680  0.00  0.00    +0.000 C 
ATOM     22  C   UNL     1       0.091   8.768  21.341  0.00  0.00    +0.000 C 
ENDBRANCH  19  20
ENDBRANCH  17  19
ENDBRANCH  14  15
BRANCH  14  23
ATOM     23  C   UNL     1       2.142   5.407  20.500  0.00  0.00    +0.000 C 
BRANCH  23  24
ATOM     24  C   UNL     1       1.322   4.100  20.567  0.00  0.00    +0.000 C 
ATOM     25  C   UNL     1       1.198   3.382  19.222  0.00  0.00    +0.000 C 
ATOM     26  C   UNL     1       1.928   3.137  21.594  0.00  0.00    +0.000 C 
ENDBRANCH  23  24
ENDBRANCH  14  23
ENDBRANCH   3  14
TORSDOF 10
ENDMDL
MODEL 6
REMARK VINA RESULT:      -6.9      3.280      7.139
REMARK  Name = 
REMARK  15 active torsions:
REMARK  status: ('A' for Active; 'I' for Inactive)
REMARK    1  A    between atoms: C_1  and  C_2
REMARK    2  A    between atoms: C_2  and  O_3
REMARK    3  A    between atoms: O_3  and  C_4
REMARK    4  A    between atoms: C_4  and  C_6
REMARK    5  A    between atoms: C_8  and  C_9
REMARK    6  A    between atoms: N_11  and  C_12
REMARK    7  A    between atoms: C_12  and  C_13
REMARK    8  A    between atoms: C_12  and  C_17
REMARK    9  A    between atoms: C_13  and  C_14
REMARK   10  A    between atoms: C_14  and  C_15
REMARK   11  A    between atoms: C_14  and  C_16
REMARK   12  A    between atoms: N_19  and  C_20
REMARK   13  A    between atoms: C_20  and  C_21
REMARK   14  A    between atoms: C_21  and  C_22
REMARK   15  A    between atoms: C_21  and  C_23
REMARK                            x       y       z     vdW  Elec       q    Type
REMARK                         _______ _______ _______ _____ _____    ______ ____
ROOT
ATOM      1  C   UNL     1       5.202   6.011  18.006  0.00  0.00    +0.000 C 
ATOM      2  O   UNL     1       5.187   7.085  17.417  0.00  0.00    +0.000 OA
ATOM      3  N   UNL     1       4.073   5.271  18.253  0.00  0.00    +0.000 N 
ATOM      4  H   UNL     1       4.116   4.419  18.807  0.00  0.00    +0.000 HD
ENDROOT
BRANCH   1   7
ATOM      5  C   UNL     1       7.422   4.704  17.507  0.00  0.00    +0.000 C 
ATOM      6  N   UNL     1       6.533   3.909  18.350  0.00  0.00    +0.000 NA
ATOM      7  C   UNL     1       6.475   5.382  18.470  0.00  0.00    +0.000 C 
ATOM      8  H   UNL     1       7.028   3.510  19.149  0.00  0.00    +0.000 HD
BRANCH   5   9
ATOM      9  C   UNL     1       7.149   4.829  16.055  0.00  0.00    +0.000 C 
ATOM     10  O   UNL     1       7.640   5.754  15.421  0.00  0.00    +0.000 OA
BRANCH   9  11
ATOM     11  O   UNL     1       6.359   3.847  15.546  0.00  0.00    +0.000 OA
BRANCH  11  13
ATOM     12  C   UNL     1       6.076   3.659  13.143  0.00  0.00    +0.000 C 
ATOM     13  C   UNL     1       5.545   4.246  14.439  0.00  0.00    +0.000 C 
ENDBRANCH  11  13
ENDBRANCH   9  11
ENDBRANCH   5   9
ENDBRANCH   1   7
BRANCH   3  14
ATOM     14  C   UNL     1       2.740   5.735  17.860  0.00  0.00    +0.000 C 
BRANCH  14  15
ATOM     15  C   UNL     1       2.307   6.795  18.893  0.00  0.00    +0.000 C 
ATOM     16  O   UNL     1       2.109   6.510  20.075  0.00  0.00    +0.000 OA
ATOM     17  N   UNL     1       2.098   8.054  18.373  0.00  0.00    +0.000 N 
ATOM     18  H   UNL     1       2.382   8.247  17.421  0.00  0.00    +0.000 HD
BRANCH  17  19
ATOM     19  C   UNL     1       1.615   9.159  19.177  0.00  0.00    +0.000 C 
BRANCH  19  20
ATOM     20  C   UNL     1       0.993  10.281  18.336  0.00  0.00    +0.000 C 
ATOM     21  C   UNL     1      -0.527  10.142  18.236  0.00  0.00    +0.000 C 
ATOM     22  C   UNL     1       1.349  11.641  18.943  0.00  0.00    +0.000 C 
ENDBRANCH  19  20
ENDBRANCH  17  19
ENDBRANCH  14  15
BRANCH  14  23
ATOM     23  C   UNL     1       1.745   4.553  17.820  0.00  0.00    +0.000 C 
BRANCH  23  24
ATOM     24  C   UNL     1       2.067   3.353  18.738  0.00  0.00    +0.000 C 
ATOM     25  C   UNL     1       0.939   3.000  19.709  0.00  0.00    +0.000 C 
ATOM     26  C   UNL     1       2.414   2.114  17.903  0.00  0.00    +0.000 C 
ENDBRANCH  23  24
ENDBRANCH  14  23
ENDBRANCH   3  14
TORSDOF 10
ENDMDL
MODEL 7
REMARK VINA RESULT:      -6.8      3.045      7.477
REMARK  Name = 
REMARK  15 active torsions:
REMARK  status: ('A' for Active; 'I' for Inactive)
REMARK    1  A    between atoms: C_1  and  C_2
REMARK    2  A    between atoms: C_2  and  O_3
REMARK    3  A    between atoms: O_3  and  C_4
REMARK    4  A    between atoms: C_4  and  C_6
REMARK    5  A    between atoms: C_8  and  C_9
REMARK    6  A    between atoms: N_11  and  C_12
REMARK    7  A    between atoms: C_12  and  C_13
REMARK    8  A    between atoms: C_12  and  C_17
REMARK    9  A    between atoms: C_13  and  C_14
REMARK   10  A    between atoms: C_14  and  C_15
REMARK   11  A    between atoms: C_14  and  C_16
REMARK   12  A    between atoms: N_19  and  C_20
REMARK   13  A    between atoms: C_20  and  C_21
REMARK   14  A    between atoms: C_21  and  C_22
REMARK   15  A    between atoms: C_21  and  C_23
REMARK                            x       y       z     vdW  Elec       q    Type
REMARK                         _______ _______ _______ _____ _____    ______ ____
ROOT
ATOM      1  C   UNL     1       4.250   4.380  17.782  0.00  0.00    +0.000 C 
ATOM      2  O   UNL     1       3.425   3.937  16.993  0.00  0.00    +0.000 OA
ATOM      3  N   UNL     1       3.919   5.165  18.858  0.00  0.00    +0.000 N 
ATOM      4  H   UNL     1       4.639   5.572  19.450  0.00  0.00    +0.000 HD
ENDROOT
BRANCH   1   7
ATOM      5  C   UNL     1       6.634   4.877  16.804  0.00  0.00    +0.000 C 
ATOM      6  N   UNL     1       6.146   3.581  16.340  0.00  0.00    +0.000 NA
ATOM      7  C   UNL     1       5.705   4.057  17.669  0.00  0.00    +0.000 C 
ATOM      8  H   UNL     1       6.853   2.852  16.444  0.00  0.00    +0.000 HD
BRANCH   5   9
ATOM      9  C   UNL     1       6.108   6.125  16.201  0.00  0.00    +0.000 C 
ATOM     10  O   UNL     1       5.549   6.085  15.113  0.00  0.00    +0.000 OA
BRANCH   9  11
ATOM     11  O   UNL     1       6.291   7.236  16.962  0.00  0.00    +0.000 OA
BRANCH  11  13
ATOM     12  C   UNL     1       8.012   8.730  17.798  0.00  0.00    +0.000 C 
ATOM     13  C   UNL     1       7.544   7.292  17.650  0.00  0.00    +0.000 C 
ENDBRANCH  11  13
ENDBRANCH   9  11
ENDBRANCH   5   9
ENDBRANCH   1   7
BRANCH   3  14
ATOM     14  C   UNL     1       2.538   5.572  19.126  0.00  0.00    +0.000 C 
BRANCH  14  15
ATOM     15  C   UNL     1       2.461   7.094  18.890  0.00  0.00    +0.000 C 
ATOM     16  O   UNL     1       3.126   7.652  18.016  0.00  0.00    +0.000 OA
ATOM     17  N   UNL     1       1.650   7.773  19.773  0.00  0.00    +0.000 N 
ATOM     18  H   UNL     1       1.050   7.247  20.396  0.00  0.00    +0.000 HD
BRANCH  17  19
ATOM     19  C   UNL     1       1.514   9.217  19.754  0.00  0.00    +0.000 C 
BRANCH  19  20
ATOM     20  C   UNL     1       0.655   9.749  20.909  0.00  0.00    +0.000 C 
ATOM     21  C   UNL     1       1.088   9.166  22.256  0.00  0.00    +0.000 C 
ATOM     22  C   UNL     1       0.741  11.276  20.955  0.00  0.00    +0.000 C 
ENDBRANCH  19  20
ENDBRANCH  17  19
ENDBRANCH  14  15
BRANCH  14  23
ATOM     23  C   UNL     1       2.136   5.208  20.573  0.00  0.00    +0.000 C 
BRANCH  23  24
ATOM     24  C   UNL     1       1.314   3.913  20.753  0.00  0.00    +0.000 C 
ATOM     25  C   UNL     1       0.941   3.233  19.435  0.00  0.00    +0.000 C 
ATOM     26  C   UNL     1       2.073   2.913  21.635  0.00  0.00    +0.000 C 
ENDBRANCH  23  24
ENDBRANCH  14  23
ENDBRANCH   3  14
TORSDOF 10
ENDMDL
MODEL 8
REMARK VINA RESULT:      -6.7      2.959      7.205
REMARK  Name = 
REMARK  15 active torsions:
REMARK  status: ('A' for Active; 'I' for Inactive)
REMARK    1  A    between atoms: C_1  and  C_2
REMARK    2  A    between atoms: C_2  and  O_3
REMARK    3  A    between atoms: O_3  and  C_4
REMARK    4  A    between atoms: C_4  and  C_6
REMARK    5  A    between atoms: C_8  and  C_9
REMARK    6  A    between atoms: N_11  and  C_12
REMARK    7  A    between atoms: C_12  and  C_13
REMARK    8  A    between atoms: C_12  and  C_17
REMARK    9  A    between atoms: C_13  and  C_14
REMARK   10  A    between atoms: C_14  and  C_15
REMARK   11  A    between atoms: C_14  and  C_16
REMARK   12  A    between atoms: N_19  and  C_20
REMARK   13  A    between atoms: C_20  and  C_21
REMARK   14  A    between atoms: C_21  and  C_22
REMARK   15  A    between atoms: C_21  and  C_23
REMARK                            x       y       z     vdW  Elec       q    Type
REMARK                         _______ _______ _______ _____ _____    ______ ____
ROOT
ATOM      1  C   UNL     1       5.552   4.847  19.170  0.00  0.00    +0.000 C 
ATOM      2  O   UNL     1       5.514   3.645  18.939  0.00  0.00    +0.000 OA
ATOM      3  N   UNL     1       4.429   5.615  19.355  0.00  0.00    +0.000 N 
ATOM      4  H   UNL     1       4.498   6.623  19.474  0.00  0.00    +0.000 HD
ENDROOT
BRANCH   1   7
ATOM      5  C   UNL     1       7.635   6.054  18.124  0.00  0.00    +0.000 C 
ATOM      6  N   UNL     1       8.045   4.858  18.856  0.00  0.00    +0.000 NA
ATOM      7  C   UNL     1       6.844   5.583  19.322  0.00  0.00    +0.000 C 
ATOM      8  H   UNL     1       8.833   5.046  19.475  0.00  0.00    +0.000 HD
BRANCH   5   9
ATOM      9  C   UNL     1       7.014   5.926  16.784  0.00  0.00    +0.000 C 
ATOM     10  O   UNL     1       6.261   6.801  16.376  0.00  0.00    +0.000 OA
BRANCH   9  11
ATOM     11  O   UNL     1       7.376   4.806  16.103  0.00  0.00    +0.000 OA
BRANCH  11  13
ATOM     12  C   UNL     1       6.216   4.168  14.069  0.00  0.00    +0.000 C 
ATOM     13  C   UNL     1       6.284   4.043  15.582  0.00  0.00    +0.000 C 
ENDBRANCH  11  13
ENDBRANCH   9  11
ENDBRANCH   5   9
ENDBRANCH   1   7
BRANCH   3  14
ATOM     14  C   UNL     1       3.081   5.055  19.249  0.00  0.00    +0.000 C 
BRANCH  14  15
ATOM     15  C   UNL     1       2.136   6.001  20.019  0.00  0.00    +0.000 C 
ATOM     16  O   UNL     1       1.298   5.577  20.815  0.00  0.00    +0.000 OA
ATOM     17  N   UNL     1       2.263   7.333  19.691  0.00  0.00    +0.000 N 
ATOM     18  H   UNL     1       3.041   7.627  19.113  0.00  0.00    +0.000 HD
BRANCH  17  19
ATOM     19  C   UNL     1       1.409   8.360  20.255  0.00  0.00    +0.000 C 
BRANCH  19  20
ATOM     20  C   UNL     1       1.206   9.552  19.311  0.00  0.00    +0.000 C 
ATOM     21  C   UNL     1       1.483   9.176  17.853  0.00  0.00    +0.000 C 
ATOM     22  C   UNL     1      -0.224  10.081  19.446  0.00  0.00    +0.000 C 
ENDBRANCH  19  20
ENDBRANCH  17  19
ENDBRANCH  14  15
BRANCH  14  23
ATOM     23  C   UNL     1       3.040   3.625  19.835  0.00  0.00    +0.000 C 
BRANCH  23  24
ATOM     24  C   UNL     1       2.274   2.567  19.010  0.00  0.00    +0.000 C 
ATOM     25  C   UNL     1       0.769   2.546  19.280  0.00  0.00    +0.000 C 
ATOM     26  C   UNL     1       2.510   2.781  17.509  0.00  0.00    +0.000 C 
ENDBRANCH  23  24
ENDBRANCH  14  23
ENDBRANCH   3  14
TORSDOF 10
ENDMDL
MODEL 9
REMARK VINA RESULT:      -6.7      3.045      7.416
REMARK  Name = 
REMARK  15 active torsions:
REMARK  status: ('A' for Active; 'I' for Inactive)
REMARK    1  A    between atoms: C_1  and  C_2
REMARK    2  A    between atoms: C_2  and  O_3
REMARK    3  A    between atoms: O_3  and  C_4
REMARK    4  A    between atoms: C_4  and  C_6
REMARK    5  A    between atoms: C_8  and  C_9
REMARK    6  A    between atoms: N_11  and  C_12
REMARK    7  A    between atoms: C_12  and  C_13
REMARK    8  A    between atoms: C_12  and  C_17
REMARK    9  A    between atoms: C_13  and  C_14
REMARK   10  A    between atoms: C_14  and  C_15
REMARK   11  A    between atoms: C_14  and  C_16
REMARK   12  A    between atoms: N_19  and  C_20
REMARK   13  A    between atoms: C_20  and  C_21
REMARK   14  A    between atoms: C_21  and  C_22
REMARK   15  A    between atoms: C_21  and  C_23
REMARK                            x       y       z     vdW  Elec       q    Type
REMARK                         _______ _______ _______ _____ _____    ______ ____
ROOT
ATOM      1  C   UNL     1       4.037   4.341  17.736  0.00  0.00    +0.000 C 
ATOM      2  O   UNL     1       3.196   3.966  16.929  0.00  0.00    +0.000 OA
ATOM      3  N   UNL     1       3.730   5.060  18.864  0.00  0.00    +0.000 N 
ATOM      4  H   UNL     1       4.462   5.415  19.474  0.00  0.00    +0.000 HD
ENDROOT
BRANCH   1   7
ATOM      5  C   UNL     1       6.434   4.891  16.819  0.00  0.00    +0.000 C 
ATOM      6  N   UNL     1       5.918   3.666  16.214  0.00  0.00    +0.000 NA
ATOM      7  C   UNL     1       5.485   4.001  17.587  0.00  0.00    +0.000 C 
ATOM      8  H   UNL     1       6.608   2.915  16.236  0.00  0.00    +0.000 HD
BRANCH   5   9
ATOM      9  C   UNL     1       5.936   6.210  16.359  0.00  0.00    +0.000 C 
ATOM     10  O   UNL     1       5.360   6.300  15.282  0.00  0.00    +0.000 OA
BRANCH   9  11
ATOM     11  O   UNL     1       6.163   7.230  17.227  0.00  0.00    +0.000 OA
BRANCH  11  13
ATOM     12  C   UNL     1       8.019   8.702  17.756  0.00  0.00    +0.000 C 
ATOM     13  C   UNL     1       7.490   7.278  17.761  0.00  0.00    +0.000 C 
ENDBRANCH  11  13
ENDBRANCH   9  11
ENDBRANCH   5   9
ENDBRANCH   1   7
BRANCH   3  14
ATOM     14  C   UNL     1       2.359   5.473  19.172  0.00  0.00    +0.000 C 
BRANCH  14  15
ATOM     15  C   UNL     1       2.373   7.008  19.326  0.00  0.00    +0.000 C 
ATOM     16  O   UNL     1       2.910   7.741  18.495  0.00  0.00    +0.000 OA
ATOM     17  N   UNL     1       1.802   7.474  20.490  0.00  0.00    +0.000 N 
ATOM     18  H   UNL     1       1.284   6.833  21.077  0.00  0.00    +0.000 HD
BRANCH  17  19
ATOM     19  C   UNL     1       1.791   8.881  20.844  0.00  0.00    +0.000 C 
BRANCH  19  20
ATOM     20  C   UNL     1       0.378   9.415  21.118  0.00  0.00    +0.000 C 
ATOM     21  C   UNL     1      -0.279   9.963  19.850  0.00  0.00    +0.000 C 
ATOM     22  C   UNL     1      -0.489   8.301  21.709  0.00  0.00    +0.000 C 
ENDBRANCH  19  20
ENDBRANCH  17  19
ENDBRANCH  14  15
BRANCH  14  23
ATOM     23  C   UNL     1       1.862   4.785  20.463  0.00  0.00    +0.000 C 
BRANCH  23  24
ATOM     24  C   UNL     1       1.816   3.241  20.444  0.00  0.00    +0.000 C 
ATOM     25  C   UNL     1       1.419   2.621  21.785  0.00  0.00    +0.000 C 
ATOM     26  C   UNL     1       0.852   2.746  19.359  0.00  0.00    +0.000 C 
ENDBRANCH  23  24
ENDBRANCH  14  23
ENDBRANCH   3  14
TORSDOF 10
ENDMDL
