MODEL 1
REMARK VINA RESULT:      -8.3      0.000      0.000
REMARK  Name = 
REMARK  9 active torsions:
REMARK  status: ('A' for Active; 'I' for Inactive)
REMARK    1  A    between atoms: C_1  and  O_2
REMARK    2  A    between atoms: O_2  and  C_3
REMARK    3  A    between atoms: C_7  and  C_8
REMARK    4  A    between atoms: C_8  and  O_9
REMARK    5  A    between atoms: O_9  and  C_10
REMARK    6  A    between atoms: C_10  and  C_12
REMARK    7  A    between atoms: C_12  and  N_13
REMARK    8  A    between atoms: N_13  and  S_14
REMARK    9  A    between atoms: S_14  and  C_17
REMARK                            x       y       z     vdW  Elec       q    Type
REMARK                         _______ _______ _______ _____ _____    ______ ____
ROOT
ATOM      1  O   UNL     1       5.427   3.207  19.905  0.00  0.00    +0.000 OA
ENDROOT
BRANCH   1   2
ATOM      2  C   UNL     1       4.607   2.175  20.254  0.00  0.00    +0.000 C 
ATOM      3  O   UNL     1       4.438   1.781  21.403  0.00  0.00    +0.000 OA
BRANCH   2   4
ATOM      4  C   UNL     1       3.770   1.679  19.102  0.00  0.00    +0.000 C 
BRANCH   4   5
ATOM      5  N   UNL     1       2.322   1.725  19.322  0.00  0.00    +0.000 NA
ATOM      6  H   UNL     1       1.989   1.787  20.283  0.00  0.00    +0.000 HD
BRANCH   5   7
ATOM      7  S   UNL     1       1.424   2.677  18.271  0.00  0.00    +0.000 S 
ATOM      8  O   UNL     1       2.065   2.569  16.982  0.00  0.00    +0.000 OA
ATOM      9  O   UNL     1       0.030   2.351  18.464  0.00  0.00    +0.000 OA
BRANCH   7  10
ATOM     10  C   UNL     1       1.727   4.311  18.886  0.00  0.00    +0.000 A 
ATOM     11  C   UNL     1       2.091   5.319  17.988  0.00  0.00    +0.000 A 
ATOM     12  C   UNL     1       2.322   6.610  18.461  0.00  0.00    +0.000 A 
ATOM     13  C   UNL     1       2.181   6.890  19.822  0.00  0.00    +0.000 A 
ATOM     14  C   UNL     1       1.804   5.883  20.713  0.00  0.00    +0.000 A 
ATOM     15  C   UNL     1       1.573   4.588  20.247  0.00  0.00    +0.000 A 
ENDBRANCH   7  10
ENDBRANCH   5   7
ENDBRANCH   4   5
ENDBRANCH   2   4
ENDBRANCH   1   2
BRANCH   1  16
ATOM     16  C   UNL     1       4.882   4.064  18.891  0.00  0.00    +0.000 C 
BRANCH  16  21
ATOM     17  C   UNL     1       6.544   4.347  13.853  0.00  0.00    +0.000 A 
ATOM     18  C   UNL     1       5.635   3.514  14.511  0.00  0.00    +0.000 A 
ATOM     19  C   UNL     1       5.421   3.623  15.895  0.00  0.00    +0.000 A 
ATOM     20  C   UNL     1       6.110   4.580  16.648  0.00  0.00    +0.000 A 
ATOM     21  C   UNL     1       5.920   4.807  18.088  0.00  0.00    +0.000 A 
ATOM     22  C   UNL     1       6.632   5.788  18.666  0.00  0.00    +0.000 A 
ATOM     23  C   UNL     1       7.645   6.593  17.978  0.00  0.00    +0.000 A 
ATOM     24  O   UNL     1       8.308   7.426  18.583  0.00  0.00    +0.000 OA
ATOM     25  O   UNL     1       7.784   6.377  16.624  0.00  0.00    +0.000 OA
ATOM     26  C   UNL     1       7.021   5.393  15.964  0.00  0.00    +0.000 A 
ATOM     27  C   UNL     1       7.243   5.293  14.590  0.00  0.00    +0.000 A 
BRANCH  17  29
ATOM     28  C   UNL     1       6.123   2.921  12.005  0.00  0.00    +0.000 C 
ATOM     29  O   UNL     1       6.660   4.143  12.506  0.00  0.00    +0.000 OA
ENDBRANCH  17  29
ENDBRANCH  16  21
ENDBRANCH   1  16
TORSDOF 8
ENDMDL
MODEL 2
REMARK VINA RESULT:      -7.7      3.863      7.704
REMARK  Name = 
REMARK  9 active torsions:
REMARK  status: ('A' for Active; 'I' for Inactive)
REMARK    1  A    between atoms: C_1  and  O_2
REMARK    2  A    between atoms: O_2  and  C_3
REMARK    3  A    between atoms: C_7  and  C_8
REMARK    4  A    between atoms: C_8  and  O_9
REMARK    5  A    between atoms: O_9  and  C_10
REMARK    6  A    between atoms: C_10  and  C_12
REMARK    7  A    between atoms: C_12  and  N_13
REMARK    8  A    between atoms: N_13  and  S_14
REMARK    9  A    between atoms: S_14  and  C_17
REMARK                            x       y       z     vdW  Elec       q    Type
REMARK                         _______ _______ _______ _____ _____    ______ ____
ROOT
ATOM      1  O   UNL     1       1.294   4.984  20.447  0.00  0.00    +0.000 OA
ENDROOT
BRANCH   1   2
ATOM      2  C   UNL     1       1.942   3.840  20.809  0.00  0.00    +0.000 C 
ATOM      3  O   UNL     1       1.972   3.391  21.949  0.00  0.00    +0.000 OA
BRANCH   2   4
ATOM      4  C   UNL     1       2.465   3.066  19.624  0.00  0.00    +0.000 C 
BRANCH   4   5
ATOM      5  N   UNL     1       3.214   3.860  18.648  0.00  0.00    +0.000 NA
ATOM      6  H   UNL     1       2.742   4.655  18.218  0.00  0.00    +0.000 HD
BRANCH   5   7
ATOM      7  S   UNL     1       4.820   4.188  19.008  0.00  0.00    +0.000 S 
ATOM      8  O   UNL     1       4.837   5.496  19.620  0.00  0.00    +0.000 OA
ATOM      9  O   UNL     1       5.370   3.026  19.668  0.00  0.00    +0.000 OA
BRANCH   7  10
ATOM     10  C   UNL     1       5.548   4.338  17.399  0.00  0.00    +0.000 A 
ATOM     11  C   UNL     1       4.740   4.174  16.270  0.00  0.00    +0.000 A 
ATOM     12  C   UNL     1       5.301   4.300  15.000  0.00  0.00    +0.000 A 
ATOM     13  C   UNL     1       6.659   4.597  14.863  0.00  0.00    +0.000 A 
ATOM     14  C   UNL     1       7.458   4.774  15.994  0.00  0.00    +0.000 A 
ATOM     15  C   UNL     1       6.904   4.647  17.269  0.00  0.00    +0.000 A 
ENDBRANCH   7  10
ENDBRANCH   5   7
ENDBRANCH   4   5
ENDBRANCH   2   4
ENDBRANCH   1   2
BRANCH   1  16
ATOM     16  C   UNL     1       1.756   6.156  21.134  0.00  0.00    +0.000 C 
BRANCH  16  21
ATOM     17  C   UNL     1      -0.325  10.976  21.947  0.00  0.00    +0.000 A 
ATOM     18  C   UNL     1      -0.307   9.804  22.709  0.00  0.00    +0.000 A 
ATOM     19  C   UNL     1       0.281   8.627  22.217  0.00  0.00    +0.000 A 
ATOM     20  C   UNL     1       0.874   8.603  20.950  0.00  0.00    +0.000 A 
ATOM     21  C   UNL     1       1.558   7.440  20.369  0.00  0.00    +0.000 A 
ATOM     22  C   UNL     1       2.109   7.581  19.152  0.00  0.00    +0.000 A 
ATOM     23  C   UNL     1       2.003   8.790  18.331  0.00  0.00    +0.000 A 
ATOM     24  O   UNL     1       2.471   8.827  17.199  0.00  0.00    +0.000 OA
ATOM     25  O   UNL     1       1.380   9.874  18.911  0.00  0.00    +0.000 OA
ATOM     26  C   UNL     1       0.832   9.788  20.206  0.00  0.00    +0.000 A 
ATOM     27  C   UNL     1       0.250  10.962  20.683  0.00  0.00    +0.000 A 
BRANCH  17  29
ATOM     28  C   UNL     1      -2.123  11.789  23.261  0.00  0.00    +0.000 C 
ATOM     29  O   UNL     1      -0.924  12.053  22.538  0.00  0.00    +0.000 OA
ENDBRANCH  17  29
ENDBRANCH  16  21
ENDBRANCH   1  16
TORSDOF 8
ENDMDL
MODEL 3
REMARK VINA RESULT:      -7.7      2.293      3.516
REMARK  Name = 
REMARK  9 active torsions:
REMARK  status: ('A' for Active; 'I' for Inactive)
REMARK    1  A    between atoms: C_1  and  O_2
REMARK    2  A    between atoms: O_2  and  C_3
REMARK    3  A    between atoms: C_7  and  C_8
REMARK    4  A    between atoms: C_8  and  O_9
REMARK    5  A    between atoms: O_9  and  C_10
REMARK    6  A    between atoms: C_10  and  C_12
REMARK    7  A    between atoms: C_12  and  N_13
REMARK    8  A    between atoms: N_13  and  S_14
REMARK    9  A    between atoms: S_14  and  C_17
REMARK                            x       y       z     vdW  Elec       q    Type
REMARK                         _______ _______ _______ _____ _____    ______ ____
ROOT
ATOM      1  O   UNL     1       2.556   6.428  18.692  0.00  0.00    +0.000 OA
ENDROOT
BRANCH   1   2
ATOM      2  C   UNL     1       2.060   7.291  19.626  0.00  0.00    +0.000 C 
ATOM      3  O   UNL     1       1.781   8.464  19.406  0.00  0.00    +0.000 OA
BRANCH   2   4
ATOM      4  C   UNL     1       1.705   6.607  20.922  0.00  0.00    +0.000 C 
BRANCH   4   5
ATOM      5  N   UNL     1       2.476   5.398  21.217  0.00  0.00    +0.000 NA
ATOM      6  H   UNL     1       3.059   5.396  22.053  0.00  0.00    +0.000 HD
BRANCH   5   7
ATOM      7  S   UNL     1       1.704   3.927  20.973  0.00  0.00    +0.000 S 
ATOM      8  O   UNL     1       2.015   3.113  22.125  0.00  0.00    +0.000 OA
ATOM      9  O   UNL     1       0.344   4.204  20.575  0.00  0.00    +0.000 OA
BRANCH   7  10
ATOM     10  C   UNL     1       2.587   3.259  19.589  0.00  0.00    +0.000 A 
ATOM     11  C   UNL     1       3.872   2.746  19.787  0.00  0.00    +0.000 A 
ATOM     12  C   UNL     1       4.571   2.209  18.706  0.00  0.00    +0.000 A 
ATOM     13  C   UNL     1       3.982   2.180  17.440  0.00  0.00    +0.000 A 
ATOM     14  C   UNL     1       2.693   2.682  17.251  0.00  0.00    +0.000 A 
ATOM     15  C   UNL     1       1.988   3.222  18.327  0.00  0.00    +0.000 A 
ENDBRANCH   7  10
ENDBRANCH   5   7
ENDBRANCH   4   5
ENDBRANCH   2   4
ENDBRANCH   1   2
BRANCH   1  16
ATOM     16  C   UNL     1       3.640   6.965  17.922  0.00  0.00    +0.000 C 
BRANCH  16  21
ATOM     17  C   UNL     1       6.557   4.188  14.458  0.00  0.00    +0.000 A 
ATOM     18  C   UNL     1       5.332   4.853  14.355  0.00  0.00    +0.000 A 
ATOM     19  C   UNL     1       4.747   5.475  15.471  0.00  0.00    +0.000 A 
ATOM     20  C   UNL     1       5.386   5.450  16.715  0.00  0.00    +0.000 A 
ATOM     21  C   UNL     1       4.884   6.112  17.927  0.00  0.00    +0.000 A 
ATOM     22  C   UNL     1       5.628   6.028  19.042  0.00  0.00    +0.000 A 
ATOM     23  C   UNL     1       6.866   5.251  19.153  0.00  0.00    +0.000 A 
ATOM     24  O   UNL     1       7.460   5.160  20.221  0.00  0.00    +0.000 OA
ATOM     25  O   UNL     1       7.328   4.663  17.996  0.00  0.00    +0.000 OA
ATOM     26  C   UNL     1       6.606   4.768  16.790  0.00  0.00    +0.000 A 
ATOM     27  C   UNL     1       7.196   4.147  15.690  0.00  0.00    +0.000 A 
BRANCH  17  29
ATOM     28  C   UNL     1       6.039   3.303  12.320  0.00  0.00    +0.000 C 
ATOM     29  O   UNL     1       7.021   3.627  13.301  0.00  0.00    +0.000 OA
ENDBRANCH  17  29
ENDBRANCH  16  21
ENDBRANCH   1  16
TORSDOF 8
ENDMDL
MODEL 4
REMARK VINA RESULT:      -7.5      4.238      5.005
REMARK  Name = 
REMARK  9 active torsions:
REMARK  status: ('A' for Active; 'I' for Inactive)
REMARK    1  A    between atoms: C_1  and  O_2
REMARK    2  A    between atoms: O_2  and  C_3
REMARK    3  A    between atoms: C_7  and  C_8
REMARK    4  A    between atoms: C_8  and  O_9
REMARK    5  A    between atoms: O_9  and  C_10
REMARK    6  A    between atoms: C_10  and  C_12
REMARK    7  A    between atoms: C_12  and  N_13
REMARK    8  A    between atoms: N_13  and  S_14
REMARK    9  A    between atoms: S_14  and  C_17
REMARK                            x       y       z     vdW  Elec       q    Type
REMARK                         _______ _______ _______ _____ _____    ______ ____
ROOT
ATOM      1  O   UNL     1       2.379   5.630  17.967  0.00  0.00    +0.000 OA
ENDROOT
BRANCH   1   2
ATOM      2  C   UNL     1       2.299   6.710  18.796  0.00  0.00    +0.000 C 
ATOM      3  O   UNL     1       2.235   6.644  20.018  0.00  0.00    +0.000 OA
BRANCH   2   4
ATOM      4  C   UNL     1       2.490   8.018  18.070  0.00  0.00    +0.000 C 
BRANCH   4   5
ATOM      5  N   UNL     1       1.263   8.786  17.843  0.00  0.00    +0.000 NA
ATOM      6  H   UNL     1       0.400   8.268  17.681  0.00  0.00    +0.000 HD
BRANCH   5   7
ATOM      7  S   UNL     1       1.026  10.140  18.806  0.00  0.00    +0.000 S 
ATOM      8  O   UNL     1       1.080   9.676  20.173  0.00  0.00    +0.000 OA
ATOM      9  O   UNL     1       1.893  11.187  18.317  0.00  0.00    +0.000 OA
BRANCH   7  10
ATOM     10  C   UNL     1      -0.656  10.569  18.451  0.00  0.00    +0.000 A 
ATOM     11  C   UNL     1      -1.291  11.536  19.236  0.00  0.00    +0.000 A 
ATOM     12  C   UNL     1      -2.611  11.888  18.958  0.00  0.00    +0.000 A 
ATOM     13  C   UNL     1      -3.287  11.280  17.897  0.00  0.00    +0.000 A 
ATOM     14  C   UNL     1      -2.644  10.324  17.108  0.00  0.00    +0.000 A 
ATOM     15  C   UNL     1      -1.323   9.966  17.381  0.00  0.00    +0.000 A 
ENDBRANCH   7  10
ENDBRANCH   5   7
ENDBRANCH   4   5
ENDBRANCH   2   4
ENDBRANCH   1   2
BRANCH   1  16
ATOM     16  C   UNL     1       3.165   4.551  18.493  0.00  0.00    +0.000 C 
BRANCH  16  21
ATOM     17  C   UNL     1       6.608   4.563  14.448  0.00  0.00    +0.000 A 
ATOM     18  C   UNL     1       5.242   4.283  14.536  0.00  0.00    +0.000 A 
ATOM     19  C   UNL     1       4.575   4.301  15.772  0.00  0.00    +0.000 A 
ATOM     20  C   UNL     1       5.266   4.611  16.948  0.00  0.00    +0.000 A 
ATOM     21  C   UNL     1       4.650   4.707  18.279  0.00  0.00    +0.000 A 
ATOM     22  C   UNL     1       5.438   5.047  19.312  0.00  0.00    +0.000 A 
ATOM     23  C   UNL     1       6.887   5.250  19.215  0.00  0.00    +0.000 A 
ATOM     24  O   UNL     1       7.558   5.492  20.211  0.00  0.00    +0.000 OA
ATOM     25  O   UNL     1       7.433   5.181  17.952  0.00  0.00    +0.000 OA
ATOM     26  C   UNL     1       6.635   4.876  16.832  0.00  0.00    +0.000 A 
ATOM     27  C   UNL     1       7.308   4.860  15.610  0.00  0.00    +0.000 A 
BRANCH  17  29
ATOM     28  C   UNL     1       6.535   3.593  12.285  0.00  0.00    +0.000 C 
ATOM     29  O   UNL     1       7.139   4.515  13.189  0.00  0.00    +0.000 OA
ENDBRANCH  17  29
ENDBRANCH  16  21
ENDBRANCH   1  16
TORSDOF 8
ENDMDL
MODEL 5
REMARK VINA RESULT:      -7.5      5.481      8.469
REMARK  Name = 
REMARK  9 active torsions:
REMARK  status: ('A' for Active; 'I' for Inactive)
REMARK    1  A    between atoms: C_1  and  O_2
REMARK    2  A    between atoms: O_2  and  C_3
REMARK    3  A    between atoms: C_7  and  C_8
REMARK    4  A    between atoms: C_8  and  O_9
REMARK    5  A    between atoms: O_9  and  C_10
REMARK    6  A    between atoms: C_10  and  C_12
REMARK    7  A    between atoms: C_12  and  N_13
REMARK    8  A    between atoms: N_13  and  S_14
REMARK    9  A    between atoms: S_14  and  C_17
REMARK                            x       y       z     vdW  Elec       q    Type
REMARK                         _______ _______ _______ _____ _____    ______ ____
ROOT
ATOM      1  O   UNL     1       8.364   9.085  18.013  0.00  0.00    +0.000 OA
ENDROOT
BRANCH   1   2
ATOM      2  C   UNL     1       8.049   7.761  18.107  0.00  0.00    +0.000 C 
ATOM      3  O   UNL     1       8.454   7.012  18.989  0.00  0.00    +0.000 OA
BRANCH   2   4
ATOM      4  C   UNL     1       6.988   7.343  17.120  0.00  0.00    +0.000 C 
BRANCH   4   5
ATOM      5  N   UNL     1       7.409   6.332  16.148  0.00  0.00    +0.000 NA
ATOM      6  H   UNL     1       8.335   6.427  15.733  0.00  0.00    +0.000 HD
BRANCH   5   7
ATOM      7  S   UNL     1       7.028   4.735  16.500  0.00  0.00    +0.000 S 
ATOM      8  O   UNL     1       6.637   4.129  15.250  0.00  0.00    +0.000 OA
ATOM      9  O   UNL     1       8.094   4.197  17.313  0.00  0.00    +0.000 OA
BRANCH   7  10
ATOM     10  C   UNL     1       5.570   4.903  17.494  0.00  0.00    +0.000 A 
ATOM     11  C   UNL     1       5.668   4.732  18.878  0.00  0.00    +0.000 A 
ATOM     12  C   UNL     1       4.529   4.872  19.670  0.00  0.00    +0.000 A 
ATOM     13  C   UNL     1       3.304   5.188  19.079  0.00  0.00    +0.000 A 
ATOM     14  C   UNL     1       3.214   5.371  17.698  0.00  0.00    +0.000 A 
ATOM     15  C   UNL     1       4.349   5.231  16.899  0.00  0.00    +0.000 A 
ENDBRANCH   7  10
ENDBRANCH   5   7
ENDBRANCH   4   5
ENDBRANCH   2   4
ENDBRANCH   1   2
BRANCH   1  16
ATOM     16  C   UNL     1       9.097   9.589  19.139  0.00  0.00    +0.000 C 
BRANCH  16  21
ATOM     17  C   UNL     1       9.383  13.978  22.118  0.00  0.00    +0.000 A 
ATOM     18  C   UNL     1       8.825  12.715  22.333  0.00  0.00    +0.000 A 
ATOM     19  C   UNL     1       8.842  11.733  21.328  0.00  0.00    +0.000 A 
ATOM     20  C   UNL     1       9.431  11.996  20.087  0.00  0.00    +0.000 A 
ATOM     21  C   UNL     1       9.545  11.022  18.992  0.00  0.00    +0.000 A 
ATOM     22  C   UNL     1      10.168  11.412  17.868  0.00  0.00    +0.000 A 
ATOM     23  C   UNL     1      10.668  12.769  17.628  0.00  0.00    +0.000 A 
ATOM     24  O   UNL     1      11.165  13.077  16.551  0.00  0.00    +0.000 OA
ATOM     25  O   UNL     1      10.572  13.654  18.680  0.00  0.00    +0.000 OA
ATOM     26  C   UNL     1       9.972  13.273  19.896  0.00  0.00    +0.000 A 
ATOM     27  C   UNL     1       9.960  14.256  20.886  0.00  0.00    +0.000 A 
BRANCH  17  29
ATOM     28  C   UNL     1       8.618  14.368  24.329  0.00  0.00    +0.000 C 
ATOM     29  O   UNL     1       9.304  14.844  23.173  0.00  0.00    +0.000 OA
ENDBRANCH  17  29
ENDBRANCH  16  21
ENDBRANCH   1  16
TORSDOF 8
ENDMDL
MODEL 6
REMARK VINA RESULT:      -7.4      5.387      6.994
REMARK  Name = 
REMARK  9 active torsions:
REMARK  status: ('A' for Active; 'I' for Inactive)
REMARK    1  A    between atoms: C_1  and  O_2
REMARK    2  A    between atoms: O_2  and  C_3
REMARK    3  A    between atoms: C_7  and  C_8
REMARK    4  A    between atoms: C_8  and  O_9
REMARK    5  A    between atoms: O_9  and  C_10
REMARK    6  A    between atoms: C_10  and  C_12
REMARK    7  A    between atoms: C_12  and  N_13
REMARK    8  A    between atoms: N_13  and  S_14
REMARK    9  A    between atoms: S_14  and  C_17
REMARK                            x       y       z     vdW  Elec       q    Type
REMARK                         _______ _______ _______ _____ _____    ______ ____
ROOT
ATOM      1  O   UNL     1       1.845   8.175  18.360  0.00  0.00    +0.000 OA
ENDROOT
BRANCH   1   2
ATOM      2  C   UNL     1       1.702   9.530  18.425  0.00  0.00    +0.000 C 
ATOM      3  O   UNL     1       1.952  10.300  17.504  0.00  0.00    +0.000 OA
BRANCH   2   4
ATOM      4  C   UNL     1       1.015   9.984  19.689  0.00  0.00    +0.000 C 
BRANCH   4   5
ATOM      5  N   UNL     1      -0.448  10.009  19.626  0.00  0.00    +0.000 NA
ATOM      6  H   UNL     1      -0.964   9.464  20.315  0.00  0.00    +0.000 HD
BRANCH   5   7
ATOM      7  S   UNL     1      -1.168  11.494  19.316  0.00  0.00    +0.000 S 
ATOM      8  O   UNL     1      -1.971  11.802  20.476  0.00  0.00    +0.000 OA
ATOM      9  O   UNL     1      -0.142  12.389  18.833  0.00  0.00    +0.000 OA
BRANCH   7  10
ATOM     10  C   UNL     1      -2.273  11.109  17.985  0.00  0.00    +0.000 A 
ATOM     11  C   UNL     1      -1.857  10.217  16.992  0.00  0.00    +0.000 A 
ATOM     12  C   UNL     1      -2.723   9.900  15.947  0.00  0.00    +0.000 A 
ATOM     13  C   UNL     1      -3.999  10.466  15.901  0.00  0.00    +0.000 A 
ATOM     14  C   UNL     1      -4.415  11.346  16.903  0.00  0.00    +0.000 A 
ATOM     15  C   UNL     1      -3.553  11.669  17.951  0.00  0.00    +0.000 A 
ENDBRANCH   7  10
ENDBRANCH   5   7
ENDBRANCH   4   5
ENDBRANCH   2   4
ENDBRANCH   1   2
BRANCH   1  16
ATOM     16  C   UNL     1       2.186   7.566  19.613  0.00  0.00    +0.000 C 
BRANCH  16  21
ATOM     17  C   UNL     1       5.000   4.057  16.788  0.00  0.00    +0.000 A 
ATOM     18  C   UNL     1       4.813   5.437  16.678  0.00  0.00    +0.000 A 
ATOM     19  C   UNL     1       3.949   6.124  17.547  0.00  0.00    +0.000 A 
ATOM     20  C   UNL     1       3.260   5.439  18.554  0.00  0.00    +0.000 A 
ATOM     21  C   UNL     1       2.376   6.072  19.543  0.00  0.00    +0.000 A 
ATOM     22  C   UNL     1       1.810   5.285  20.472  0.00  0.00    +0.000 A 
ATOM     23  C   UNL     1       1.948   3.827  20.517  0.00  0.00    +0.000 A 
ATOM     24  O   UNL     1       1.347   3.161  21.351  0.00  0.00    +0.000 OA
ATOM     25  O   UNL     1       2.803   3.262  19.595  0.00  0.00    +0.000 OA
ATOM     26  C   UNL     1       3.459   4.056  18.633  0.00  0.00    +0.000 A 
ATOM     27  C   UNL     1       4.314   3.363  17.775  0.00  0.00    +0.000 A 
BRANCH  17  29
ATOM     28  C   UNL     1       6.518   4.417  15.002  0.00  0.00    +0.000 C 
ATOM     29  O   UNL     1       5.867   3.507  15.885  0.00  0.00    +0.000 OA
ENDBRANCH  17  29
ENDBRANCH  16  21
ENDBRANCH   1  16
TORSDOF 8
ENDMDL
MODEL 7
REMARK VINA RESULT:      -7.4      5.449      8.425
REMARK  Name = 
REMARK  9 active torsions:
REMARK  status: ('A' for Active; 'I' for Inactive)
REMARK    1  A    between atoms: C_1  and  O_2
REMARK    2  A    between atoms: O_2  and  C_3
REMARK    3  A    between atoms: C_7  and  C_8
REMARK    4  A    between atoms: C_8  and  O_9
REMARK    5  A    between atoms: O_9  and  C_10
REMARK    6  A    between atoms: C_10  and  C_12
REMARK    7  A    between atoms: C_12  and  N_13
REMARK    8  A    between atoms: N_13  and  S_14
REMARK    9  A    between atoms: S_14  and  C_17
REMARK                            x       y       z     vdW  Elec       q    Type
REMARK                         _______ _______ _______ _____ _____    ______ ____
ROOT
ATOM      1  O   UNL     1       2.397   8.798  18.091  0.00  0.00    +0.000 OA
ENDROOT
BRANCH   1   2
ATOM      2  C   UNL     1       2.520   7.606  18.742  0.00  0.00    +0.000 C 
ATOM      3  O   UNL     1       2.092   7.384  19.870  0.00  0.00    +0.000 OA
BRANCH   2   4
ATOM      4  C   UNL     1       3.071   6.513  17.860  0.00  0.00    +0.000 C 
BRANCH   4   5
ATOM      5  N   UNL     1       4.418   6.055  18.209  0.00  0.00    +0.000 NA
ATOM      6  H   UNL     1       4.923   6.567  18.932  0.00  0.00    +0.000 HD
BRANCH   5   7
ATOM      7  S   UNL     1       4.650   4.396  18.320  0.00  0.00    +0.000 S 
ATOM      8  O   UNL     1       4.734   3.910  16.963  0.00  0.00    +0.000 OA
ATOM      9  O   UNL     1       5.699   4.162  19.284  0.00  0.00    +0.000 OA
BRANCH   7  10
ATOM     10  C   UNL     1       3.109   3.841  18.995  0.00  0.00    +0.000 A 
ATOM     11  C   UNL     1       2.807   4.132  20.328  0.00  0.00    +0.000 A 
ATOM     12  C   UNL     1       1.592   3.708  20.866  0.00  0.00    +0.000 A 
ATOM     13  C   UNL     1       0.685   3.006  20.070  0.00  0.00    +0.000 A 
ATOM     14  C   UNL     1       0.985   2.729  18.735  0.00  0.00    +0.000 A 
ATOM     15  C   UNL     1       2.200   3.149  18.191  0.00  0.00    +0.000 A 
ENDBRANCH   7  10
ENDBRANCH   5   7
ENDBRANCH   4   5
ENDBRANCH   2   4
ENDBRANCH   1   2
BRANCH   1  16
ATOM     16  C   UNL     1       1.049   9.120  17.718  0.00  0.00    +0.000 C 
BRANCH  16  21
ATOM     17  C   UNL     1      -3.714  11.386  18.348  0.00  0.00    +0.000 A 
ATOM     18  C   UNL     1      -3.221  10.438  17.448  0.00  0.00    +0.000 A 
ATOM     19  C   UNL     1      -1.872  10.047  17.469  0.00  0.00    +0.000 A 
ATOM     20  C   UNL     1      -0.988  10.596  18.405  0.00  0.00    +0.000 A 
ATOM     21  C   UNL     1       0.425  10.217  18.542  0.00  0.00    +0.000 A 
ATOM     22  C   UNL     1       1.141  10.809  19.512  0.00  0.00    +0.000 A 
ATOM     23  C   UNL     1       0.631  11.866  20.390  0.00  0.00    +0.000 A 
ATOM     24  O   UNL     1       1.359  12.413  21.209  0.00  0.00    +0.000 OA
ATOM     25  O   UNL     1      -0.704  12.183  20.257  0.00  0.00    +0.000 OA
ATOM     26  C   UNL     1      -1.507  11.551  19.287  0.00  0.00    +0.000 A 
ATOM     27  C   UNL     1      -2.844  11.947  19.274  0.00  0.00    +0.000 A 
BRANCH  17  29
ATOM     28  C   UNL     1      -5.458  12.218  16.974  0.00  0.00    +0.000 C 
ATOM     29  O   UNL     1      -5.044  11.678  18.227  0.00  0.00    +0.000 OA
ENDBRANCH  17  29
ENDBRANCH  16  21
ENDBRANCH   1  16
TORSDOF 8
ENDMDL
MODEL 8
REMARK VINA RESULT:      -7.4      5.412      6.947
REMARK  Name = 
REMARK  9 active torsions:
REMARK  status: ('A' for Active; 'I' for Inactive)
REMARK    1  A    between atoms: C_1  and  O_2
REMARK    2  A    between atoms: O_2  and  C_3
REMARK    3  A    between atoms: C_7  and  C_8
REMARK    4  A    between atoms: C_8  and  O_9
REMARK    5  A    between atoms: O_9  and  C_10
REMARK    6  A    between atoms: C_10  and  C_12
REMARK    7  A    between atoms: C_12  and  N_13
REMARK    8  A    between atoms: N_13  and  S_14
REMARK    9  A    between atoms: S_14  and  C_17
REMARK                            x       y       z     vdW  Elec       q    Type
REMARK                         _______ _______ _______ _____ _____    ______ ____
ROOT
ATOM      1  O   UNL     1       1.759   7.818  21.442  0.00  0.00    +0.000 OA
ENDROOT
BRANCH   1   2
ATOM      2  C   UNL     1       1.147   9.018  21.660  0.00  0.00    +0.000 C 
ATOM      3  O   UNL     1       1.197   9.641  22.715  0.00  0.00    +0.000 OA
BRANCH   2   4
ATOM      4  C   UNL     1       0.553   9.606  20.405  0.00  0.00    +0.000 C 
BRANCH   4   5
ATOM      5  N   UNL     1      -0.583  10.505  20.619  0.00  0.00    +0.000 NA
ATOM      6  H   UNL     1      -0.837  10.732  21.580  0.00  0.00    +0.000 HD
BRANCH   5   7
ATOM      7  S   UNL     1      -0.706  11.830  19.596  0.00  0.00    +0.000 S 
ATOM      8  O   UNL     1      -1.302  12.888  20.377  0.00  0.00    +0.000 OA
ATOM      9  O   UNL     1       0.566  11.992  18.930  0.00  0.00    +0.000 OA
BRANCH   7  10
ATOM     10  C   UNL     1      -1.912  11.289  18.415  0.00  0.00    +0.000 A 
ATOM     11  C   UNL     1      -1.546  10.338  17.458  0.00  0.00    +0.000 A 
ATOM     12  C   UNL     1      -2.491   9.899  16.532  0.00  0.00    +0.000 A 
ATOM     13  C   UNL     1      -3.793  10.402  16.570  0.00  0.00    +0.000 A 
ATOM     14  C   UNL     1      -4.157  11.342  17.537  0.00  0.00    +0.000 A 
ATOM     15  C   UNL     1      -3.216  11.788  18.466  0.00  0.00    +0.000 A 
ENDBRANCH   7  10
ENDBRANCH   5   7
ENDBRANCH   4   5
ENDBRANCH   2   4
ENDBRANCH   1   2
BRANCH   1  16
ATOM     16  C   UNL     1       2.002   7.534  20.057  0.00  0.00    +0.000 C 
BRANCH  16  21
ATOM     17  C   UNL     1       4.992   4.545  16.840  0.00  0.00    +0.000 A 
ATOM     18  C   UNL     1       4.792   5.923  16.947  0.00  0.00    +0.000 A 
ATOM     19  C   UNL     1       3.879   6.456  17.873  0.00  0.00    +0.000 A 
ATOM     20  C   UNL     1       3.153   5.612  18.720  0.00  0.00    +0.000 A 
ATOM     21  C   UNL     1       2.215   6.072  19.755  0.00  0.00    +0.000 A 
ATOM     22  C   UNL     1       1.616   5.141  20.516  0.00  0.00    +0.000 A 
ATOM     23  C   UNL     1       1.772   3.695  20.330  0.00  0.00    +0.000 A 
ATOM     24  O   UNL     1       1.141   2.900  21.016  0.00  0.00    +0.000 OA
ATOM     25  O   UNL     1       2.676   3.293  19.372  0.00  0.00    +0.000 OA
ATOM     26  C   UNL     1       3.366   4.236  18.584  0.00  0.00    +0.000 A 
ATOM     27  C   UNL     1       4.269   3.696  17.668  0.00  0.00    +0.000 A 
BRANCH  17  29
ATOM     28  C   UNL     1       5.548   4.370  14.541  0.00  0.00    +0.000 C 
ATOM     29  O   UNL     1       5.908   4.153  15.903  0.00  0.00    +0.000 OA
ENDBRANCH  17  29
ENDBRANCH  16  21
ENDBRANCH   1  16
TORSDOF 8
ENDMDL
MODEL 9
REMARK VINA RESULT:      -7.4      3.737      7.321
REMARK  Name = 
REMARK  9 active torsions:
REMARK  status: ('A' for Active; 'I' for Inactive)
REMARK    1  A    between atoms: C_1  and  O_2
REMARK    2  A    between atoms: O_2  and  C_3
REMARK    3  A    between atoms: C_7  and  C_8
REMARK    4  A    between atoms: C_8  and  O_9
REMARK    5  A    between atoms: O_9  and  C_10
REMARK    6  A    between atoms: C_10  and  C_12
REMARK    7  A    between atoms: C_12  and  N_13
REMARK    8  A    between atoms: N_13  and  S_14
REMARK    9  A    between atoms: S_14  and  C_17
REMARK                            x       y       z     vdW  Elec       q    Type
REMARK                         _______ _______ _______ _____ _____    ______ ____
ROOT
ATOM      1  O   UNL     1       0.887   5.022  20.567  0.00  0.00    +0.000 OA
ENDROOT
BRANCH   1   2
ATOM      2  C   UNL     1       1.355   3.741  20.605  0.00  0.00    +0.000 C 
ATOM      3  O   UNL     1       1.451   3.067  21.625  0.00  0.00    +0.000 OA
BRANCH   2   4
ATOM      4  C   UNL     1       1.567   3.156  19.231  0.00  0.00    +0.000 C 
BRANCH   4   5
ATOM      5  N   UNL     1       2.548   3.860  18.402  0.00  0.00    +0.000 NA
ATOM      6  H   UNL     1       2.530   4.879  18.405  0.00  0.00    +0.000 HD
BRANCH   5   7
ATOM      7  S   UNL     1       4.111   3.248  18.392  0.00  0.00    +0.000 S 
ATOM      8  O   UNL     1       4.433   2.942  19.766  0.00  0.00    +0.000 OA
ATOM      9  O   UNL     1       4.188   2.254  17.347  0.00  0.00    +0.000 OA
BRANCH   7  10
ATOM     10  C   UNL     1       5.069   4.661  17.917  0.00  0.00    +0.000 A 
ATOM     11  C   UNL     1       4.628   5.456  16.855  0.00  0.00    +0.000 A 
ATOM     12  C   UNL     1       5.369   6.575  16.481  0.00  0.00    +0.000 A 
ATOM     13  C   UNL     1       6.538   6.901  17.171  0.00  0.00    +0.000 A 
ATOM     14  C   UNL     1       6.968   6.112  18.241  0.00  0.00    +0.000 A 
ATOM     15  C   UNL     1       6.232   4.988  18.620  0.00  0.00    +0.000 A 
ENDBRANCH   7  10
ENDBRANCH   5   7
ENDBRANCH   4   5
ENDBRANCH   2   4
ENDBRANCH   1   2
BRANCH   1  16
ATOM     16  C   UNL     1       1.875   6.011  20.890  0.00  0.00    +0.000 C 
BRANCH  16  21
ATOM     17  C   UNL     1      -0.140  10.840  21.808  0.00  0.00    +0.000 A 
ATOM     18  C   UNL     1      -0.148   9.649  22.539  0.00  0.00    +0.000 A 
ATOM     19  C   UNL     1       0.427   8.475  22.023  0.00  0.00    +0.000 A 
ATOM     20  C   UNL     1       1.032   8.476  20.761  0.00  0.00    +0.000 A 
ATOM     21  C   UNL     1       1.704   7.317  20.156  0.00  0.00    +0.000 A 
ATOM     22  C   UNL     1       2.270   7.481  18.949  0.00  0.00    +0.000 A 
ATOM     23  C   UNL     1       2.191   8.713  18.159  0.00  0.00    +0.000 A 
ATOM     24  O   UNL     1       2.671   8.772  17.033  0.00  0.00    +0.000 OA
ATOM     25  O   UNL     1       1.579   9.790  18.761  0.00  0.00    +0.000 OA
ATOM     26  C   UNL     1       1.016   9.679  20.047  0.00  0.00    +0.000 A 
ATOM     27  C   UNL     1       0.447  10.850  20.549  0.00  0.00    +0.000 A 
BRANCH  17  29
ATOM     28  C   UNL     1      -1.897  11.633  23.189  0.00  0.00    +0.000 C 
ATOM     29  O   UNL     1      -0.729  11.911  22.420  0.00  0.00    +0.000 OA
ENDBRANCH  17  29
ENDBRANCH  16  21
ENDBRANCH   1  16
TORSDOF 8
ENDMDL
