MODEL 1
REMARK VINA RESULT:      -8.7      0.000      0.000
REMARK  Name = 
REMARK  13 active torsions:
REMARK  status: ('A' for Active; 'I' for Inactive)
REMARK    1  A    between atoms: C_1  and  C_2
REMARK    2  A    between atoms: C_2  and  C_3
REMARK    3  A    between atoms: C_3  and  C_4
REMARK    4  A    between atoms: C_4  and  C_5
REMARK    5  A    between atoms: C_9  and  C_10
REMARK    6  A    between atoms: C_10  and  O_11
REMARK    7  A    between atoms: N_12  and  C_13
REMARK    8  A    between atoms: C_13  and  C_14
REMARK    9  A    between atoms: C_17  and  N_18
REMARK   10  A    between atoms: C_19  and  C_21
REMARK   11  A    between atoms: C_21  and  C_22
REMARK   12  A    between atoms: C_21  and  N_29
REMARK   13  A    between atoms: C_22  and  C_23
REMARK                            x       y       z     vdW  Elec       q    Type
REMARK                         _______ _______ _______ _____ _____    ______ ____
ROOT
ATOM      1  C   UNL     1       1.164  10.088  19.001  0.00  0.00    +0.000 A 
ATOM      2  C   UNL     1       1.798   9.521  17.891  0.00  0.00    +0.000 A 
ATOM      3  C   UNL     1       2.320   8.229  17.955  0.00  0.00    +0.000 A 
ATOM      4  C   UNL     1       2.259   7.487  19.136  0.00  0.00    +0.000 A 
ATOM      5  C   UNL     1       1.559   8.020  20.223  0.00  0.00    +0.000 A 
ATOM      6  C   UNL     1       1.028   9.314  20.160  0.00  0.00    +0.000 A 
ENDROOT
BRANCH   4   7
ATOM      7  N   UNL     1       2.876   6.222  19.301  0.00  0.00    +0.000 N 
ATOM      8  C   UNL     1       2.531   5.053  18.641  0.00  0.00    +0.000 C 
ATOM      9  O   UNL     1       1.779   5.058  17.667  0.00  0.00    +0.000 OA
ATOM     10  H   UNL     1       3.685   6.219  19.908  0.00  0.00    +0.000 HD
BRANCH   8  11
ATOM     11  C   UNL     1       3.241   3.747  19.067  0.00  0.00    +0.000 C 
BRANCH  11  12
ATOM     12  N   UNL     1       2.696   3.189  20.314  0.00  0.00    +0.000 N 
ATOM     13  C   UNL     1       1.430   3.145  20.822  0.00  0.00    +0.000 A 
ATOM     14  N   UNL     1       1.463   2.566  22.002  0.00  0.00    +0.000 NA
ATOM     15  N   UNL     1       2.758   2.181  22.195  0.00  0.00    +0.000 NA
ATOM     16  N   UNL     1       3.500   2.480  21.139  0.00  0.00    +0.000 NA
ENDBRANCH  11  12
BRANCH  11  17
ATOM     17  C   UNL     1       4.798   3.792  19.064  0.00  0.00    +0.000 C 
BRANCH  17  18
ATOM     18  C   UNL     1       5.406   4.353  17.795  0.00  0.00    +0.000 A 
ATOM     19  C   UNL     1       5.153   3.730  16.565  0.00  0.00    +0.000 A 
ATOM     20  C   UNL     1       5.864   4.094  15.424  0.00  0.00    +0.000 A 
ATOM     21  C   UNL     1       6.819   5.102  15.493  0.00  0.00    +0.000 A 
ATOM     22  C   UNL     1       7.013   5.792  16.685  0.00  0.00    +0.000 A 
ATOM     23  C   UNL     1       6.291   5.438  17.822  0.00  0.00    +0.000 A 
ENDBRANCH  17  18
ENDBRANCH  11  17
ENDBRANCH   8  11
ENDBRANCH   4   7
BRANCH   1  24
ATOM     24  C   UNL     1       0.735  11.528  18.971  0.00  0.00    +0.000 C 
BRANCH  24  30
ATOM     25  C   UNL     1      -1.861  11.319  18.865  0.00  0.00    +0.000 A 
ATOM     26  N   UNL     1      -2.872  12.000  19.381  0.00  0.00    +0.000 NA
ATOM     27  C   UNL     1      -2.341  13.007  20.126  0.00  0.00    +0.000 A 
ATOM     28 CL   UNL     1      -3.318  14.111  20.974  0.00  0.00    +0.000 Cl
ATOM     29  C   UNL     1      -0.965  12.976  20.069  0.00  0.00    +0.000 A 
ATOM     30  N   UNL     1      -0.658  11.878  19.259  0.00  0.00    +0.000 N 
BRANCH  25  31
ATOM     31  C   UNL     1      -2.103  10.123  18.001  0.00  0.00    +0.000 C 
BRANCH  31  32
ATOM     32  C   UNL     1      -3.234  10.327  16.991  0.00  0.00    +0.000 C 
BRANCH  32  34
ATOM     33  C   UNL     1      -3.501  10.141  14.493  0.00  0.00    +0.000 C 
ATOM     34  C   UNL     1      -2.750  10.823  15.625  0.00  0.00    +0.000 C 
ENDBRANCH  32  34
ENDBRANCH  31  32
ENDBRANCH  25  31
BRANCH  29  35
ATOM     35  C   UNL     1       0.026  13.890  20.676  0.00  0.00    +0.000 C 
BRANCH  35  36
ATOM     36  O   UNL     1       0.382  13.361  21.943  0.00  0.00    +0.000 OA
ATOM     37  H   UNL     1      -0.216  12.611  22.107  0.00  0.00    +0.000 HD
ENDBRANCH  35  36
ENDBRANCH  29  35
ENDBRANCH  24  30
ENDBRANCH   1  24
TORSDOF 12
ENDMDL
MODEL 2
REMARK VINA RESULT:      -8.4      2.112      3.882
REMARK  Name = 
REMARK  13 active torsions:
REMARK  status: ('A' for Active; 'I' for Inactive)
REMARK    1  A    between atoms: C_1  and  C_2
REMARK    2  A    between atoms: C_2  and  C_3
REMARK    3  A    between atoms: C_3  and  C_4
REMARK    4  A    between atoms: C_4  and  C_5
REMARK    5  A    between atoms: C_9  and  C_10
REMARK    6  A    between atoms: C_10  and  O_11
REMARK    7  A    between atoms: N_12  and  C_13
REMARK    8  A    between atoms: C_13  and  C_14
REMARK    9  A    between atoms: C_17  and  N_18
REMARK   10  A    between atoms: C_19  and  C_21
REMARK   11  A    between atoms: C_21  and  C_22
REMARK   12  A    between atoms: C_21  and  N_29
REMARK   13  A    between atoms: C_22  and  C_23
REMARK                            x       y       z     vdW  Elec       q    Type
REMARK                         _______ _______ _______ _____ _____    ______ ____
ROOT
ATOM      1  C   UNL     1       1.409   9.654  19.160  0.00  0.00    +0.000 A 
ATOM      2  C   UNL     1       1.932   9.492  17.873  0.00  0.00    +0.000 A 
ATOM      3  C   UNL     1       2.479   8.271  17.479  0.00  0.00    +0.000 A 
ATOM      4  C   UNL     1       2.554   7.196  18.367  0.00  0.00    +0.000 A 
ATOM      5  C   UNL     1       1.964   7.331  19.627  0.00  0.00    +0.000 A 
ATOM      6  C   UNL     1       1.408   8.553  20.024  0.00  0.00    +0.000 A 
ENDROOT
BRANCH   4   7
ATOM      7  N   UNL     1       3.207   5.974  18.067  0.00  0.00    +0.000 N 
ATOM      8  C   UNL     1       4.330   5.471  18.705  0.00  0.00    +0.000 C 
ATOM      9  O   UNL     1       4.743   5.951  19.761  0.00  0.00    +0.000 OA
ATOM     10  H   UNL     1       2.746   5.406  17.369  0.00  0.00    +0.000 HD
BRANCH   8  11
ATOM     11  C   UNL     1       4.968   4.184  18.134  0.00  0.00    +0.000 C 
BRANCH  11  12
ATOM     12  N   UNL     1       5.776   4.440  16.932  0.00  0.00    +0.000 N 
ATOM     13  C   UNL     1       7.123   4.536  16.736  0.00  0.00    +0.000 A 
ATOM     14  N   UNL     1       7.353   4.818  15.472  0.00  0.00    +0.000 NA
ATOM     15  N   UNL     1       6.131   4.825  14.862  0.00  0.00    +0.000 NA
ATOM     16  N   UNL     1       5.173   4.515  15.723  0.00  0.00    +0.000 NA
ENDBRANCH  11  12
BRANCH  11  17
ATOM     17  C   UNL     1       4.005   2.972  17.960  0.00  0.00    +0.000 C 
BRANCH  17  18
ATOM     18  C   UNL     1       3.016   2.789  19.092  0.00  0.00    +0.000 A 
ATOM     19  C   UNL     1       1.642   2.917  18.846  0.00  0.00    +0.000 A 
ATOM     20  C   UNL     1       0.733   2.964  19.900  0.00  0.00    +0.000 A 
ATOM     21  C   UNL     1       1.183   2.861  21.211  0.00  0.00    +0.000 A 
ATOM     22  C   UNL     1       2.532   2.639  21.464  0.00  0.00    +0.000 A 
ATOM     23  C   UNL     1       3.440   2.576  20.409  0.00  0.00    +0.000 A 
ENDBRANCH  17  18
ENDBRANCH  11  17
ENDBRANCH   8  11
ENDBRANCH   4   7
BRANCH   1  24
ATOM     24  C   UNL     1       0.955  11.009  19.625  0.00  0.00    +0.000 C 
BRANCH  24  30
ATOM     25  C   UNL     1      -1.523  11.056  18.820  0.00  0.00    +0.000 A 
ATOM     26  N   UNL     1      -2.652  11.545  19.308  0.00  0.00    +0.000 NA
ATOM     27  C   UNL     1      -2.357  12.122  20.504  0.00  0.00    +0.000 A 
ATOM     28 CL   UNL     1      -3.549  12.859  21.467  0.00  0.00    +0.000 Cl
ATOM     29  C   UNL     1      -1.010  12.013  20.774  0.00  0.00    +0.000 A 
ATOM     30  N   UNL     1      -0.476  11.317  19.685  0.00  0.00    +0.000 N 
BRANCH  25  31
ATOM     31  C   UNL     1      -1.503  10.332  17.511  0.00  0.00    +0.000 C 
BRANCH  31  32
ATOM     32  C   UNL     1      -2.376  10.994  16.443  0.00  0.00    +0.000 C 
BRANCH  32  34
ATOM     33  C   UNL     1      -3.087   9.999  14.240  0.00  0.00    +0.000 C 
ATOM     34  C   UNL     1      -3.325  10.018  15.741  0.00  0.00    +0.000 C 
ENDBRANCH  32  34
ENDBRANCH  31  32
ENDBRANCH  25  31
BRANCH  29  35
ATOM     35  C   UNL     1      -0.232  12.529  21.921  0.00  0.00    +0.000 C 
BRANCH  35  36
ATOM     36  O   UNL     1      -0.171  13.941  21.800  0.00  0.00    +0.000 OA
ATOM     37  H   UNL     1       0.773  14.180  21.829  0.00  0.00    +0.000 HD
ENDBRANCH  35  36
ENDBRANCH  29  35
ENDBRANCH  24  30
ENDBRANCH   1  24
TORSDOF 12
ENDMDL
MODEL 3
REMARK VINA RESULT:      -8.3      2.267      4.166
REMARK  Name = 
REMARK  13 active torsions:
REMARK  status: ('A' for Active; 'I' for Inactive)
REMARK    1  A    between atoms: C_1  and  C_2
REMARK    2  A    between atoms: C_2  and  C_3
REMARK    3  A    between atoms: C_3  and  C_4
REMARK    4  A    between atoms: C_4  and  C_5
REMARK    5  A    between atoms: C_9  and  C_10
REMARK    6  A    between atoms: C_10  and  O_11
REMARK    7  A    between atoms: N_12  and  C_13
REMARK    8  A    between atoms: C_13  and  C_14
REMARK    9  A    between atoms: C_17  and  N_18
REMARK   10  A    between atoms: C_19  and  C_21
REMARK   11  A    between atoms: C_21  and  C_22
REMARK   12  A    between atoms: C_21  and  N_29
REMARK   13  A    between atoms: C_22  and  C_23
REMARK                            x       y       z     vdW  Elec       q    Type
REMARK                         _______ _______ _______ _____ _____    ______ ____
ROOT
ATOM      1  C   UNL     1       1.032   9.233  19.939  0.00  0.00    +0.000 A 
ATOM      2  C   UNL     1       1.310   8.131  20.754  0.00  0.00    +0.000 A 
ATOM      3  C   UNL     1       2.071   7.066  20.271  0.00  0.00    +0.000 A 
ATOM      4  C   UNL     1       2.540   7.055  18.957  0.00  0.00    +0.000 A 
ATOM      5  C   UNL     1       2.330   8.188  18.165  0.00  0.00    +0.000 A 
ATOM      6  C   UNL     1       1.572   9.262  18.647  0.00  0.00    +0.000 A 
ENDROOT
BRANCH   4   7
ATOM      7  N   UNL     1       3.212   5.952  18.372  0.00  0.00    +0.000 N 
ATOM      8  C   UNL     1       4.454   5.462  18.744  0.00  0.00    +0.000 C 
ATOM      9  O   UNL     1       5.002   5.816  19.788  0.00  0.00    +0.000 OA
ATOM     10  H   UNL     1       2.681   5.454  17.670  0.00  0.00    +0.000 HD
BRANCH   8  11
ATOM     11  C   UNL     1       5.072   4.334  17.886  0.00  0.00    +0.000 C 
BRANCH  11  12
ATOM     12  N   UNL     1       5.796   4.848  16.715  0.00  0.00    +0.000 N 
ATOM     13  C   UNL     1       7.093   4.723  16.312  0.00  0.00    +0.000 A 
ATOM     14  N   UNL     1       7.265   5.407  15.201  0.00  0.00    +0.000 NA
ATOM     15  N   UNL     1       6.036   5.903  14.874  0.00  0.00    +0.000 NA
ATOM     16  N   UNL     1       5.119   5.501  15.742  0.00  0.00    +0.000 NA
ENDBRANCH  11  12
BRANCH  11  17
ATOM     17  C   UNL     1       4.116   3.157  17.529  0.00  0.00    +0.000 C 
BRANCH  17  18
ATOM     18  C   UNL     1       3.101   2.825  18.602  0.00  0.00    +0.000 A 
ATOM     19  C   UNL     1       1.733   2.844  18.300  0.00  0.00    +0.000 A 
ATOM     20  C   UNL     1       0.779   2.752  19.312  0.00  0.00    +0.000 A 
ATOM     21  C   UNL     1       1.182   2.616  20.635  0.00  0.00    +0.000 A 
ATOM     22  C   UNL     1       2.534   2.500  20.939  0.00  0.00    +0.000 A 
ATOM     23  C   UNL     1       3.487   2.576  19.925  0.00  0.00    +0.000 A 
ENDBRANCH  17  18
ENDBRANCH  11  17
ENDBRANCH   8  11
ENDBRANCH   4   7
BRANCH   1  24
ATOM     24  C   UNL     1       0.093  10.306  20.414  0.00  0.00    +0.000 C 
BRANCH  24  30
ATOM     25  C   UNL     1      -0.948  11.526  18.360  0.00  0.00    +0.000 A 
ATOM     26  N   UNL     1      -0.953  12.775  17.923  0.00  0.00    +0.000 NA
ATOM     27  C   UNL     1      -0.242  13.517  18.815  0.00  0.00    +0.000 A 
ATOM     28 CL   UNL     1      -0.024  15.192  18.622  0.00  0.00    +0.000 Cl
ATOM     29  C   UNL     1       0.238  12.720  19.831  0.00  0.00    +0.000 A 
ATOM     30  N   UNL     1      -0.226  11.435  19.536  0.00  0.00    +0.000 N 
BRANCH  25  31
ATOM     31  C   UNL     1      -1.664  10.449  17.610  0.00  0.00    +0.000 C 
BRANCH  31  32
ATOM     32  C   UNL     1      -3.032  10.888  17.081  0.00  0.00    +0.000 C 
BRANCH  32  34
ATOM     33  C   UNL     1      -5.235  12.008  17.569  0.00  0.00    +0.000 C 
ATOM     34  C   UNL     1      -3.952  11.453  18.167  0.00  0.00    +0.000 C 
ENDBRANCH  32  34
ENDBRANCH  31  32
ENDBRANCH  25  31
BRANCH  29  35
ATOM     35  C   UNL     1       1.093  13.074  20.985  0.00  0.00    +0.000 C 
BRANCH  35  36
ATOM     36  O   UNL     1       0.238  13.448  22.054  0.00  0.00    +0.000 OA
ATOM     37  H   UNL     1       0.817  13.667  22.806  0.00  0.00    +0.000 HD
ENDBRANCH  35  36
ENDBRANCH  29  35
ENDBRANCH  24  30
ENDBRANCH   1  24
TORSDOF 12
ENDMDL
MODEL 4
REMARK VINA RESULT:      -8.3      2.638      4.811
REMARK  Name = 
REMARK  13 active torsions:
REMARK  status: ('A' for Active; 'I' for Inactive)
REMARK    1  A    between atoms: C_1  and  C_2
REMARK    2  A    between atoms: C_2  and  C_3
REMARK    3  A    between atoms: C_3  and  C_4
REMARK    4  A    between atoms: C_4  and  C_5
REMARK    5  A    between atoms: C_9  and  C_10
REMARK    6  A    between atoms: C_10  and  O_11
REMARK    7  A    between atoms: N_12  and  C_13
REMARK    8  A    between atoms: C_13  and  C_14
REMARK    9  A    between atoms: C_17  and  N_18
REMARK   10  A    between atoms: C_19  and  C_21
REMARK   11  A    between atoms: C_21  and  C_22
REMARK   12  A    between atoms: C_21  and  N_29
REMARK   13  A    between atoms: C_22  and  C_23
REMARK                            x       y       z     vdW  Elec       q    Type
REMARK                         _______ _______ _______ _____ _____    ______ ____
ROOT
ATOM      1  C   UNL     1       0.512   9.822  19.409  0.00  0.00    +0.000 A 
ATOM      2  C   UNL     1       0.904   9.044  20.503  0.00  0.00    +0.000 A 
ATOM      3  C   UNL     1       1.787   7.978  20.334  0.00  0.00    +0.000 A 
ATOM      4  C   UNL     1       2.270   7.637  19.070  0.00  0.00    +0.000 A 
ATOM      5  C   UNL     1       1.942   8.459  17.987  0.00  0.00    +0.000 A 
ATOM      6  C   UNL     1       1.061   9.534  18.154  0.00  0.00    +0.000 A 
ENDROOT
BRANCH   4   7
ATOM      7  N   UNL     1       3.070   6.494  18.816  0.00  0.00    +0.000 N 
ATOM      8  C   UNL     1       3.884   6.297  17.712  0.00  0.00    +0.000 C 
ATOM      9  O   UNL     1       4.160   7.216  16.939  0.00  0.00    +0.000 OA
ATOM     10  H   UNL     1       3.083   5.810  19.560  0.00  0.00    +0.000 HD
BRANCH   8  11
ATOM     11  C   UNL     1       4.569   4.920  17.556  0.00  0.00    +0.000 C 
BRANCH  11  12
ATOM     12  N   UNL     1       5.678   4.947  16.591  0.00  0.00    +0.000 N 
ATOM     13  C   UNL     1       6.917   5.518  16.634  0.00  0.00    +0.000 A 
ATOM     14  N   UNL     1       7.533   5.289  15.495  0.00  0.00    +0.000 NA
ATOM     15  N   UNL     1       6.690   4.502  14.764  0.00  0.00    +0.000 NA
ATOM     16  N   UNL     1       5.594   4.219  15.454  0.00  0.00    +0.000 NA
ENDBRANCH  11  12
BRANCH  11  17
ATOM     17  C   UNL     1       3.612   3.711  17.333  0.00  0.00    +0.000 C 
BRANCH  17  18
ATOM     18  C   UNL     1       2.840   3.287  18.564  0.00  0.00    +0.000 A 
ATOM     19  C   UNL     1       1.438   3.317  18.555  0.00  0.00    +0.000 A 
ATOM     20  C   UNL     1       0.715   3.137  19.732  0.00  0.00    +0.000 A 
ATOM     21  C   UNL     1       1.383   2.902  20.929  0.00  0.00    +0.000 A 
ATOM     22  C   UNL     1       2.768   2.776  20.935  0.00  0.00    +0.000 A 
ATOM     23  C   UNL     1       3.490   2.940  19.755  0.00  0.00    +0.000 A 
ENDBRANCH  17  18
ENDBRANCH  11  17
ENDBRANCH   8  11
ENDBRANCH   4   7
BRANCH   1  24
ATOM     24  C   UNL     1      -0.549  10.874  19.573  0.00  0.00    +0.000 C 
BRANCH  24  30
ATOM     25  C   UNL     1       0.510  13.254  19.674  0.00  0.00    +0.000 A 
ATOM     26  N   UNL     1       0.566  14.210  20.587  0.00  0.00    +0.000 NA
ATOM     27  C   UNL     1      -0.118  13.768  21.676  0.00  0.00    +0.000 A 
ATOM     28 CL   UNL     1      -0.294  14.718  23.075  0.00  0.00    +0.000 Cl
ATOM     29  C   UNL     1      -0.605  12.498  21.458  0.00  0.00    +0.000 A 
ATOM     30  N   UNL     1      -0.203  12.172  20.159  0.00  0.00    +0.000 N 
BRANCH  25  31
ATOM     31  C   UNL     1       1.154  13.432  18.336  0.00  0.00    +0.000 C 
BRANCH  31  32
ATOM     32  C   UNL     1       2.612  12.969  18.301  0.00  0.00    +0.000 C 
BRANCH  32  34
ATOM     33  C   UNL     1       3.237  15.320  17.648  0.00  0.00    +0.000 C 
ATOM     34  C   UNL     1       3.618  14.109  18.484  0.00  0.00    +0.000 C 
ENDBRANCH  32  34
ENDBRANCH  31  32
ENDBRANCH  25  31
BRANCH  29  35
ATOM     35  C   UNL     1      -1.360  11.606  22.364  0.00  0.00    +0.000 C 
BRANCH  35  36
ATOM     36  O   UNL     1      -0.421  10.944  23.196  0.00  0.00    +0.000 OA
ATOM     37  H   UNL     1      -0.936  10.474  23.876  0.00  0.00    +0.000 HD
ENDBRANCH  35  36
ENDBRANCH  29  35
ENDBRANCH  24  30
ENDBRANCH   1  24
TORSDOF 12
ENDMDL
MODEL 5
REMARK VINA RESULT:      -8.2      3.486     10.120
REMARK  Name = 
REMARK  13 active torsions:
REMARK  status: ('A' for Active; 'I' for Inactive)
REMARK    1  A    between atoms: C_1  and  C_2
REMARK    2  A    between atoms: C_2  and  C_3
REMARK    3  A    between atoms: C_3  and  C_4
REMARK    4  A    between atoms: C_4  and  C_5
REMARK    5  A    between atoms: C_9  and  C_10
REMARK    6  A    between atoms: C_10  and  O_11
REMARK    7  A    between atoms: N_12  and  C_13
REMARK    8  A    between atoms: C_13  and  C_14
REMARK    9  A    between atoms: C_17  and  N_18
REMARK   10  A    between atoms: C_19  and  C_21
REMARK   11  A    between atoms: C_21  and  C_22
REMARK   12  A    between atoms: C_21  and  N_29
REMARK   13  A    between atoms: C_22  and  C_23
REMARK                            x       y       z     vdW  Elec       q    Type
REMARK                         _______ _______ _______ _____ _____    ______ ____
ROOT
ATOM      1  C   UNL     1       2.533   7.143  19.481  0.00  0.00    +0.000 A 
ATOM      2  C   UNL     1       1.771   7.420  20.621  0.00  0.00    +0.000 A 
ATOM      3  C   UNL     1       0.909   8.516  20.647  0.00  0.00    +0.000 A 
ATOM      4  C   UNL     1       0.813   9.383  19.557  0.00  0.00    +0.000 A 
ATOM      5  C   UNL     1       1.514   9.065  18.390  0.00  0.00    +0.000 A 
ATOM      6  C   UNL     1       2.376   7.963  18.357  0.00  0.00    +0.000 A 
ENDROOT
BRANCH   4   7
ATOM      7  N   UNL     1       0.050  10.578  19.569  0.00  0.00    +0.000 N 
ATOM      8  C   UNL     1      -1.164  10.777  18.930  0.00  0.00    +0.000 C 
ATOM      9  O   UNL     1      -1.811   9.839  18.463  0.00  0.00    +0.000 OA
ATOM     10  H   UNL     1       0.415  11.310  20.163  0.00  0.00    +0.000 HD
BRANCH   8  11
ATOM     11  C   UNL     1      -1.767  12.200  18.953  0.00  0.00    +0.000 C 
BRANCH  11  12
ATOM     12  N   UNL     1      -0.745  13.243  19.127  0.00  0.00    +0.000 N 
ATOM     13  C   UNL     1      -0.595  14.234  20.053  0.00  0.00    +0.000 A 
ATOM     14  N   UNL     1       0.473  14.941  19.754  0.00  0.00    +0.000 NA
ATOM     15  N   UNL     1       1.034  14.333  18.668  0.00  0.00    +0.000 NA
ATOM     16  N   UNL     1       0.348  13.251  18.328  0.00  0.00    +0.000 NA
ENDBRANCH  11  12
BRANCH  11  17
ATOM     17  C   UNL     1      -2.991  12.400  19.895  0.00  0.00    +0.000 C 
BRANCH  17  18
ATOM     18  C   UNL     1      -4.333  12.136  19.245  0.00  0.00    +0.000 A 
ATOM     19  C   UNL     1      -4.406  11.902  17.865  0.00  0.00    +0.000 A 
ATOM     20  C   UNL     1      -5.637  11.868  17.214  0.00  0.00    +0.000 A 
ATOM     21  C   UNL     1      -6.811  12.042  17.938  0.00  0.00    +0.000 A 
ATOM     22  C   UNL     1      -6.757  12.180  19.321  0.00  0.00    +0.000 A 
ATOM     23  C   UNL     1      -5.526  12.199  19.974  0.00  0.00    +0.000 A 
ENDBRANCH  17  18
ENDBRANCH  11  17
ENDBRANCH   8  11
ENDBRANCH   4   7
BRANCH   1  24
ATOM     24  C   UNL     1       3.565   6.051  19.510  0.00  0.00    +0.000 C 
BRANCH  24  30
ATOM     25  C   UNL     1       2.879   4.306  17.700  0.00  0.00    +0.000 A 
ATOM     26  N   UNL     1       3.497   3.727  16.683  0.00  0.00    +0.000 NA
ATOM     27  C   UNL     1       4.764   4.223  16.646  0.00  0.00    +0.000 A 
ATOM     28 CL   UNL     1       5.887   3.738  15.465  0.00  0.00    +0.000 Cl
ATOM     29  C   UNL     1       4.960   5.123  17.670  0.00  0.00    +0.000 A 
ATOM     30  N   UNL     1       3.736   5.180  18.345  0.00  0.00    +0.000 N 
BRANCH  25  31
ATOM     31  C   UNL     1       1.449   3.992  18.008  0.00  0.00    +0.000 C 
BRANCH  31  32
ATOM     32  C   UNL     1       1.284   3.008  19.167  0.00  0.00    +0.000 C 
BRANCH  32  34
ATOM     33  C   UNL     1       2.015   3.233  21.567  0.00  0.00    +0.000 C 
ATOM     34  C   UNL     1       1.020   3.689  20.513  0.00  0.00    +0.000 C 
ENDBRANCH  32  34
ENDBRANCH  31  32
ENDBRANCH  25  31
BRANCH  29  35
ATOM     35  C   UNL     1       6.177   5.870  18.051  0.00  0.00    +0.000 C 
BRANCH  35  36
ATOM     36  O   UNL     1       6.402   6.862  17.062  0.00  0.00    +0.000 OA
ATOM     37  H   UNL     1       5.934   7.662  17.361  0.00  0.00    +0.000 HD
ENDBRANCH  35  36
ENDBRANCH  29  35
ENDBRANCH  24  30
ENDBRANCH   1  24
TORSDOF 12
ENDMDL
MODEL 6
REMARK VINA RESULT:      -8.2      2.192      3.870
REMARK  Name = 
REMARK  13 active torsions:
REMARK  status: ('A' for Active; 'I' for Inactive)
REMARK    1  A    between atoms: C_1  and  C_2
REMARK    2  A    between atoms: C_2  and  C_3
REMARK    3  A    between atoms: C_3  and  C_4
REMARK    4  A    between atoms: C_4  and  C_5
REMARK    5  A    between atoms: C_9  and  C_10
REMARK    6  A    between atoms: C_10  and  O_11
REMARK    7  A    between atoms: N_12  and  C_13
REMARK    8  A    between atoms: C_13  and  C_14
REMARK    9  A    between atoms: C_17  and  N_18
REMARK   10  A    between atoms: C_19  and  C_21
REMARK   11  A    between atoms: C_21  and  C_22
REMARK   12  A    between atoms: C_21  and  N_29
REMARK   13  A    between atoms: C_22  and  C_23
REMARK                            x       y       z     vdW  Elec       q    Type
REMARK                         _______ _______ _______ _____ _____    ______ ____
ROOT
ATOM      1  C   UNL     1       0.568   9.040  20.158  0.00  0.00    +0.000 A 
ATOM      2  C   UNL     1       1.345   9.082  18.996  0.00  0.00    +0.000 A 
ATOM      3  C   UNL     1       2.331   8.122  18.768  0.00  0.00    +0.000 A 
ATOM      4  C   UNL     1       2.593   7.122  19.706  0.00  0.00    +0.000 A 
ATOM      5  C   UNL     1       1.766   7.031  20.830  0.00  0.00    +0.000 A 
ATOM      6  C   UNL     1       0.772   7.989  21.060  0.00  0.00    +0.000 A 
ENDROOT
BRANCH   4   7
ATOM      7  N   UNL     1       3.658   6.195  19.589  0.00  0.00    +0.000 N 
ATOM      8  C   UNL     1       3.891   5.349  18.516  0.00  0.00    +0.000 C 
ATOM      9  O   UNL     1       3.299   5.487  17.444  0.00  0.00    +0.000 OA
ATOM     10  H   UNL     1       4.334   6.226  20.340  0.00  0.00    +0.000 HD
BRANCH   8  11
ATOM     11  C   UNL     1       5.032   4.314  18.645  0.00  0.00    +0.000 C 
BRANCH  11  12
ATOM     12  N   UNL     1       5.983   4.380  17.526  0.00  0.00    +0.000 N 
ATOM     13  C   UNL     1       7.298   4.737  17.460  0.00  0.00    +0.000 A 
ATOM     14  N   UNL     1       7.700   4.666  16.210  0.00  0.00    +0.000 NA
ATOM     15  N   UNL     1       6.635   4.188  15.501  0.00  0.00    +0.000 NA
ATOM     16  N   UNL     1       5.612   3.931  16.304  0.00  0.00    +0.000 NA
ENDBRANCH  11  12
BRANCH  11  17
ATOM     17  C   UNL     1       4.587   2.856  18.968  0.00  0.00    +0.000 C 
BRANCH  17  18
ATOM     18  C   UNL     1       3.155   2.727  19.440  0.00  0.00    +0.000 A 
ATOM     19  C   UNL     1       2.138   2.443  18.518  0.00  0.00    +0.000 A 
ATOM     20  C   UNL     1       0.798   2.529  18.888  0.00  0.00    +0.000 A 
ATOM     21  C   UNL     1       0.458   2.877  20.190  0.00  0.00    +0.000 A 
ATOM     22  C   UNL     1       1.456   3.069  21.139  0.00  0.00    +0.000 A 
ATOM     23  C   UNL     1       2.797   2.967  20.772  0.00  0.00    +0.000 A 
ENDBRANCH  17  18
ENDBRANCH  11  17
ENDBRANCH   8  11
ENDBRANCH   4   7
BRANCH   1  24
ATOM     24  C   UNL     1      -0.390  10.156  20.466  0.00  0.00    +0.000 C 
BRANCH  24  30
ATOM     25  C   UNL     1      -1.111  11.508  18.358  0.00  0.00    +0.000 A 
ATOM     26  N   UNL     1      -0.887  12.735  17.918  0.00  0.00    +0.000 NA
ATOM     27  C   UNL     1      -0.108  13.360  18.842  0.00  0.00    +0.000 A 
ATOM     28 CL   UNL     1       0.394  14.973  18.654  0.00  0.00    +0.000 Cl
ATOM     29  C   UNL     1       0.183  12.506  19.883  0.00  0.00    +0.000 A 
ATOM     30  N   UNL     1      -0.473  11.312  19.570  0.00  0.00    +0.000 N 
BRANCH  25  31
ATOM     31  C   UNL     1      -1.959  10.555  17.577  0.00  0.00    +0.000 C 
BRANCH  31  32
ATOM     32  C   UNL     1      -3.445  10.918  17.592  0.00  0.00    +0.000 C 
BRANCH  32  34
ATOM     33  C   UNL     1      -3.075  10.581  15.124  0.00  0.00    +0.000 C 
ATOM     34  C   UNL     1      -4.065  11.008  16.195  0.00  0.00    +0.000 C 
ENDBRANCH  32  34
ENDBRANCH  31  32
ENDBRANCH  25  31
BRANCH  29  35
ATOM     35  C   UNL     1       1.026  12.727  21.078  0.00  0.00    +0.000 C 
BRANCH  35  36
ATOM     36  O   UNL     1       0.212  13.325  22.075  0.00  0.00    +0.000 OA
ATOM     37  H   UNL     1      -0.267  14.052  21.640  0.00  0.00    +0.000 HD
ENDBRANCH  35  36
ENDBRANCH  29  35
ENDBRANCH  24  30
ENDBRANCH   1  24
TORSDOF 12
ENDMDL
MODEL 7
REMARK VINA RESULT:      -8.2      3.335     10.076
REMARK  Name = 
REMARK  13 active torsions:
REMARK  status: ('A' for Active; 'I' for Inactive)
REMARK    1  A    between atoms: C_1  and  C_2
REMARK    2  A    between atoms: C_2  and  C_3
REMARK    3  A    between atoms: C_3  and  C_4
REMARK    4  A    between atoms: C_4  and  C_5
REMARK    5  A    between atoms: C_9  and  C_10
REMARK    6  A    between atoms: C_10  and  O_11
REMARK    7  A    between atoms: N_12  and  C_13
REMARK    8  A    between atoms: C_13  and  C_14
REMARK    9  A    between atoms: C_17  and  N_18
REMARK   10  A    between atoms: C_19  and  C_21
REMARK   11  A    between atoms: C_21  and  C_22
REMARK   12  A    between atoms: C_21  and  N_29
REMARK   13  A    between atoms: C_22  and  C_23
REMARK                            x       y       z     vdW  Elec       q    Type
REMARK                         _______ _______ _______ _____ _____    ______ ____
ROOT
ATOM      1  C   UNL     1       2.613   7.071  19.560  0.00  0.00    +0.000 A 
ATOM      2  C   UNL     1       2.547   7.748  18.338  0.00  0.00    +0.000 A 
ATOM      3  C   UNL     1       1.737   8.875  18.195  0.00  0.00    +0.000 A 
ATOM      4  C   UNL     1       0.947   9.332  19.251  0.00  0.00    +0.000 A 
ATOM      5  C   UNL     1       1.069   8.705  20.495  0.00  0.00    +0.000 A 
ATOM      6  C   UNL     1       1.885   7.577  20.644  0.00  0.00    +0.000 A 
ENDROOT
BRANCH   4   7
ATOM      7  N   UNL     1       0.015  10.394  19.132  0.00  0.00    +0.000 N 
ATOM      8  C   UNL     1       0.308  11.747  19.192  0.00  0.00    +0.000 C 
ATOM      9  O   UNL     1       1.466  12.162  19.135  0.00  0.00    +0.000 OA
ATOM     10  H   UNL     1      -0.930  10.108  18.913  0.00  0.00    +0.000 HD
BRANCH   8  11
ATOM     11  C   UNL     1      -0.875  12.743  19.178  0.00  0.00    +0.000 C 
BRANCH  11  12
ATOM     12  N   UNL     1      -0.470  14.105  19.558  0.00  0.00    +0.000 N 
ATOM     13  C   UNL     1      -0.192  14.675  20.766  0.00  0.00    +0.000 A 
ATOM     14  N   UNL     1       0.089  15.947  20.585  0.00  0.00    +0.000 NA
ATOM     15  N   UNL     1       0.054  16.150  19.235  0.00  0.00    +0.000 NA
ATOM     16  N   UNL     1      -0.203  15.018  18.596  0.00  0.00    +0.000 NA
ENDBRANCH  11  12
BRANCH  11  17
ATOM     17  C   UNL     1      -2.162  12.273  19.919  0.00  0.00    +0.000 C 
BRANCH  17  18
ATOM     18  C   UNL     1      -3.343  11.998  19.012  0.00  0.00    +0.000 A 
ATOM     19  C   UNL     1      -3.130  11.477  17.728  0.00  0.00    +0.000 A 
ATOM     20  C   UNL     1      -4.171  11.415  16.804  0.00  0.00    +0.000 A 
ATOM     21  C   UNL     1      -5.442  11.851  17.160  0.00  0.00    +0.000 A 
ATOM     22  C   UNL     1      -5.688  12.281  18.460  0.00  0.00    +0.000 A 
ATOM     23  C   UNL     1      -4.650  12.328  19.388  0.00  0.00    +0.000 A 
ENDBRANCH  17  18
ENDBRANCH  11  17
ENDBRANCH   8  11
ENDBRANCH   4   7
BRANCH   1  24
ATOM     24  C   UNL     1       3.370   5.778  19.667  0.00  0.00    +0.000 C 
BRANCH  24  30
ATOM     25  C   UNL     1       2.820   4.165  17.695  0.00  0.00    +0.000 A 
ATOM     26  N   UNL     1       3.514   3.647  16.694  0.00  0.00    +0.000 NA
ATOM     27  C   UNL     1       4.782   4.130  16.791  0.00  0.00    +0.000 A 
ATOM     28 CL   UNL     1       5.992   3.711  15.673  0.00  0.00    +0.000 Cl
ATOM     29  C   UNL     1       4.901   4.958  17.885  0.00  0.00    +0.000 A 
ATOM     30  N   UNL     1       3.628   4.984  18.463  0.00  0.00    +0.000 N 
BRANCH  25  31
ATOM     31  C   UNL     1       1.368   3.848  17.867  0.00  0.00    +0.000 C 
BRANCH  31  32
ATOM     32  C   UNL     1       1.101   2.827  18.975  0.00  0.00    +0.000 C 
BRANCH  32  34
ATOM     33  C   UNL     1       1.630   2.836  21.437  0.00  0.00    +0.000 C 
ATOM     34  C   UNL     1       0.797   3.465  20.333  0.00  0.00    +0.000 C 
ENDBRANCH  32  34
ENDBRANCH  31  32
ENDBRANCH  25  31
BRANCH  29  35
ATOM     35  C   UNL     1       6.090   5.664  18.411  0.00  0.00    +0.000 C 
BRANCH  35  36
ATOM     36  O   UNL     1       6.789   4.761  19.252  0.00  0.00    +0.000 OA
ATOM     37  H   UNL     1       7.686   4.676  18.882  0.00  0.00    +0.000 HD
ENDBRANCH  35  36
ENDBRANCH  29  35
ENDBRANCH  24  30
ENDBRANCH   1  24
TORSDOF 12
ENDMDL
MODEL 8
REMARK VINA RESULT:      -8.2      2.064      2.756
REMARK  Name = 
REMARK  13 active torsions:
REMARK  status: ('A' for Active; 'I' for Inactive)
REMARK    1  A    between atoms: C_1  and  C_2
REMARK    2  A    between atoms: C_2  and  C_3
REMARK    3  A    between atoms: C_3  and  C_4
REMARK    4  A    between atoms: C_4  and  C_5
REMARK    5  A    between atoms: C_9  and  C_10
REMARK    6  A    between atoms: C_10  and  O_11
REMARK    7  A    between atoms: N_12  and  C_13
REMARK    8  A    between atoms: C_13  and  C_14
REMARK    9  A    between atoms: C_17  and  N_18
REMARK   10  A    between atoms: C_19  and  C_21
REMARK   11  A    between atoms: C_21  and  C_22
REMARK   12  A    between atoms: C_21  and  N_29
REMARK   13  A    between atoms: C_22  and  C_23
REMARK                            x       y       z     vdW  Elec       q    Type
REMARK                         _______ _______ _______ _____ _____    ______ ____
ROOT
ATOM      1  C   UNL     1       0.997   9.622  19.921  0.00  0.00    +0.000 A 
ATOM      2  C   UNL     1       1.337   9.611  18.565  0.00  0.00    +0.000 A 
ATOM      3  C   UNL     1       1.982   8.507  18.006  0.00  0.00    +0.000 A 
ATOM      4  C   UNL     1       2.336   7.407  18.789  0.00  0.00    +0.000 A 
ATOM      5  C   UNL     1       1.929   7.383  20.127  0.00  0.00    +0.000 A 
ATOM      6  C   UNL     1       1.276   8.487  20.690  0.00  0.00    +0.000 A 
ENDROOT
BRANCH   4   7
ATOM      7  N   UNL     1       3.098   6.312  18.308  0.00  0.00    +0.000 N 
ATOM      8  C   UNL     1       4.211   6.391  17.487  0.00  0.00    +0.000 C 
ATOM      9  O   UNL     1       4.782   7.461  17.273  0.00  0.00    +0.000 OA
ATOM     10  H   UNL     1       2.823   5.410  18.672  0.00  0.00    +0.000 HD
BRANCH   8  11
ATOM     11  C   UNL     1       4.817   5.069  16.963  0.00  0.00    +0.000 C 
BRANCH  11  12
ATOM     12  N   UNL     1       4.588   3.942  17.878  0.00  0.00    +0.000 N 
ATOM     13  C   UNL     1       3.869   2.789  17.752  0.00  0.00    +0.000 A 
ATOM     14  N   UNL     1       3.945   2.111  18.876  0.00  0.00    +0.000 NA
ATOM     15  N   UNL     1       4.784   2.821  19.686  0.00  0.00    +0.000 NA
ATOM     16  N   UNL     1       5.247   3.894  19.059  0.00  0.00    +0.000 NA
ENDBRANCH  11  12
BRANCH  11  17
ATOM     17  C   UNL     1       6.293   5.151  16.472  0.00  0.00    +0.000 C 
BRANCH  17  18
ATOM     18  C   UNL     1       6.507   4.683  15.048  0.00  0.00    +0.000 A 
ATOM     19  C   UNL     1       7.533   5.243  14.275  0.00  0.00    +0.000 A 
ATOM     20  C   UNL     1       7.616   4.986  12.908  0.00  0.00    +0.000 A 
ATOM     21  C   UNL     1       6.688   4.147  12.302  0.00  0.00    +0.000 A 
ATOM     22  C   UNL     1       5.722   3.510  13.074  0.00  0.00    +0.000 A 
ATOM     23  C   UNL     1       5.650   3.755  14.444  0.00  0.00    +0.000 A 
ENDBRANCH  17  18
ENDBRANCH  11  17
ENDBRANCH   8  11
ENDBRANCH   4   7
BRANCH   1  24
ATOM     24  C   UNL     1       0.436  10.868  20.548  0.00  0.00    +0.000 C 
BRANCH  24  30
ATOM     25  C   UNL     1      -0.769  12.417  18.833  0.00  0.00    +0.000 A 
ATOM     26  N   UNL     1      -0.521  13.612  18.322  0.00  0.00    +0.000 NA
ATOM     27  C   UNL     1       0.634  14.059  18.885  0.00  0.00    +0.000 A 
ATOM     28 CL   UNL     1       1.295  15.578  18.501  0.00  0.00    +0.000 Cl
ATOM     29  C   UNL     1       1.139  13.121  19.759  0.00  0.00    +0.000 A 
ATOM     30  N   UNL     1       0.225  12.064  19.727  0.00  0.00    +0.000 N 
BRANCH  25  31
ATOM     31  C   UNL     1      -1.990  11.650  18.433  0.00  0.00    +0.000 C 
BRANCH  31  32
ATOM     32  C   UNL     1      -1.700  10.538  17.423  0.00  0.00    +0.000 C 
BRANCH  32  34
ATOM     33  C   UNL     1      -3.625  10.614  15.800  0.00  0.00    +0.000 C 
ATOM     34  C   UNL     1      -2.960   9.829  16.919  0.00  0.00    +0.000 C 
ENDBRANCH  32  34
ENDBRANCH  31  32
ENDBRANCH  25  31
BRANCH  29  35
ATOM     35  C   UNL     1       2.385  13.147  20.556  0.00  0.00    +0.000 C 
BRANCH  35  36
ATOM     36  O   UNL     1       2.177  14.024  21.651  0.00  0.00    +0.000 OA
ATOM     37  H   UNL     1       1.816  14.849  21.280  0.00  0.00    +0.000 HD
ENDBRANCH  35  36
ENDBRANCH  29  35
ENDBRANCH  24  30
ENDBRANCH   1  24
TORSDOF 12
ENDMDL
MODEL 9
REMARK VINA RESULT:      -8.1      1.602      1.924
REMARK  Name = 
REMARK  13 active torsions:
REMARK  status: ('A' for Active; 'I' for Inactive)
REMARK    1  A    between atoms: C_1  and  C_2
REMARK    2  A    between atoms: C_2  and  C_3
REMARK    3  A    between atoms: C_3  and  C_4
REMARK    4  A    between atoms: C_4  and  C_5
REMARK    5  A    between atoms: C_9  and  C_10
REMARK    6  A    between atoms: C_10  and  O_11
REMARK    7  A    between atoms: N_12  and  C_13
REMARK    8  A    between atoms: C_13  and  C_14
REMARK    9  A    between atoms: C_17  and  N_18
REMARK   10  A    between atoms: C_19  and  C_21
REMARK   11  A    between atoms: C_21  and  C_22
REMARK   12  A    between atoms: C_21  and  N_29
REMARK   13  A    between atoms: C_22  and  C_23
REMARK                            x       y       z     vdW  Elec       q    Type
REMARK                         _______ _______ _______ _____ _____    ______ ____
ROOT
ATOM      1  C   UNL     1       1.086  10.650  19.529  0.00  0.00    +0.000 A 
ATOM      2  C   UNL     1       0.974   9.574  20.415  0.00  0.00    +0.000 A 
ATOM      3  C   UNL     1       1.377   8.295  20.031  0.00  0.00    +0.000 A 
ATOM      4  C   UNL     1       1.866   8.050  18.747  0.00  0.00    +0.000 A 
ATOM      5  C   UNL     1       2.051   9.136  17.886  0.00  0.00    +0.000 A 
ATOM      6  C   UNL     1       1.653  10.422  18.269  0.00  0.00    +0.000 A 
ENDROOT
BRANCH   4   7
ATOM      7  N   UNL     1       2.176   6.756  18.258  0.00  0.00    +0.000 N 
ATOM      8  C   UNL     1       3.202   5.939  18.706  0.00  0.00    +0.000 C 
ATOM      9  O   UNL     1       3.817   6.183  19.745  0.00  0.00    +0.000 OA
ATOM     10  H   UNL     1       1.529   6.394  17.571  0.00  0.00    +0.000 HD
BRANCH   8  11
ATOM     11  C   UNL     1       3.458   4.618  17.945  0.00  0.00    +0.000 C 
BRANCH  11  12
ATOM     12  N   UNL     1       2.568   3.532  18.383  0.00  0.00    +0.000 N 
ATOM     13  C   UNL     1       2.714   2.176  18.396  0.00  0.00    +0.000 A 
ATOM     14  N   UNL     1       1.608   1.630  18.852  0.00  0.00    +0.000 NA
ATOM     15  N   UNL     1       0.791   2.669  19.194  0.00  0.00    +0.000 NA
ATOM     16  N   UNL     1       1.396   3.831  18.990  0.00  0.00    +0.000 NA
ENDBRANCH  11  12
BRANCH  11  17
ATOM     17  C   UNL     1       4.947   4.169  17.853  0.00  0.00    +0.000 C 
BRANCH  17  18
ATOM     18  C   UNL     1       5.614   4.474  16.528  0.00  0.00    +0.000 A 
ATOM     19  C   UNL     1       4.978   4.124  15.330  0.00  0.00    +0.000 A 
ATOM     20  C   UNL     1       5.657   4.200  14.116  0.00  0.00    +0.000 A 
ATOM     21  C   UNL     1       6.972   4.649  14.082  0.00  0.00    +0.000 A 
ATOM     22  C   UNL     1       7.583   5.089  15.251  0.00  0.00    +0.000 A 
ATOM     23  C   UNL     1       6.898   5.028  16.463  0.00  0.00    +0.000 A 
ENDBRANCH  17  18
ENDBRANCH  11  17
ENDBRANCH   8  11
ENDBRANCH   4   7
BRANCH   1  24
ATOM     24  C   UNL     1       0.516  11.992  19.895  0.00  0.00    +0.000 C 
BRANCH  24  30
ATOM     25  C   UNL     1      -1.966  12.046  19.104  0.00  0.00    +0.000 A 
ATOM     26  N   UNL     1      -3.125  12.300  19.690  0.00  0.00    +0.000 NA
ATOM     27  C   UNL     1      -2.865  12.571  20.997  0.00  0.00    +0.000 A 
ATOM     28 CL   UNL     1      -4.102  12.937  22.105  0.00  0.00    +0.000 Cl
ATOM     29  C   UNL     1      -1.511  12.504  21.244  0.00  0.00    +0.000 A 
ATOM     30  N   UNL     1      -0.934  12.158  20.018  0.00  0.00    +0.000 N 
BRANCH  25  31
ATOM     31  C   UNL     1      -1.902  11.689  17.653  0.00  0.00    +0.000 C 
BRANCH  31  32
ATOM     32  C   UNL     1      -1.893  10.180  17.403  0.00  0.00    +0.000 C 
BRANCH  32  34
ATOM     33  C   UNL     1      -3.091  10.816  15.281  0.00  0.00    +0.000 C 
ATOM     34  C   UNL     1      -2.888   9.733  16.328  0.00  0.00    +0.000 C 
ENDBRANCH  32  34
ENDBRANCH  31  32
ENDBRANCH  25  31
BRANCH  29  35
ATOM     35  C   UNL     1      -0.764  12.766  22.493  0.00  0.00    +0.000 C 
BRANCH  35  36
ATOM     36  O   UNL     1      -0.612  11.529  23.170  0.00  0.00    +0.000 OA
ATOM     37  H   UNL     1       0.315  11.490  23.469  0.00  0.00    +0.000 HD
ENDBRANCH  35  36
ENDBRANCH  29  35
ENDBRANCH  24  30
ENDBRANCH   1  24
TORSDOF 12
ENDMDL
