MODEL 1
REMARK VINA RESULT:      -8.1      0.000      0.000
REMARK  Name = 
REMARK  11 active torsions:
REMARK  status: ('A' for Active; 'I' for Inactive)
REMARK    1  A    between atoms: C_1  and  C_2
REMARK    2  A    between atoms: C_2  and  C_3
REMARK    3  A    between atoms: C_3  and  C_4
REMARK    4  A    between atoms: C_4  and  C_5
REMARK    5  A    between atoms: C_5  and  C_6
REMARK    6  A    between atoms: N_8  and  C_9
REMARK    7  A    between atoms: C_9  and  C_10
REMARK    8  A    between atoms: C_9  and  C_24
REMARK    9  A    between atoms: C_13  and  O_14
REMARK   10  A    between atoms: O_14  and  C_15
REMARK   11  A    between atoms: C_15  and  C_16
REMARK                            x       y       z     vdW  Elec       q    Type
REMARK                         _______ _______ _______ _____ _____    ______ ____
ROOT
ATOM      1  C   UNL     1       2.860   4.925  19.216  0.00  0.00    +0.000 C 
ENDROOT
BRANCH   1   2
ATOM      2  C   UNL     1       2.373   6.357  19.392  0.00  0.00    +0.000 A 
ATOM      3  C   UNL     1       2.428   7.247  18.309  0.00  0.00    +0.000 A 
ATOM      4  C   UNL     1       1.978   8.553  18.433  0.00  0.00    +0.000 A 
ATOM      5  C   UNL     1       1.423   8.991  19.635  0.00  0.00    +0.000 A 
ATOM      6  C   UNL     1       1.387   8.130  20.733  0.00  0.00    +0.000 A 
ATOM      7  C   UNL     1       1.854   6.815  20.613  0.00  0.00    +0.000 A 
BRANCH   5   8
ATOM      8  O   UNL     1       0.886  10.238  19.815  0.00  0.00    +0.000 OA
BRANCH   8   9
ATOM      9  C   UNL     1       0.592  10.927  18.595  0.00  0.00    +0.000 C 
BRANCH   9  10
ATOM     10  C   UNL     1      -0.886  10.864  18.329  0.00  0.00    +0.000 A 
ATOM     11  C   UNL     1      -1.762  11.757  18.959  0.00  0.00    +0.000 A 
ATOM     12  C   UNL     1      -3.135  11.669  18.724  0.00  0.00    +0.000 A 
ATOM     13  C   UNL     1      -3.635  10.698  17.861  0.00  0.00    +0.000 A 
ATOM     14  C   UNL     1      -2.772   9.816  17.214  0.00  0.00    +0.000 A 
ATOM     15  C   UNL     1      -1.398   9.901  17.448  0.00  0.00    +0.000 A 
ENDBRANCH   9  10
ENDBRANCH   8   9
ENDBRANCH   5   8
ENDBRANCH   1   2
BRANCH   1  18
ATOM     16  C   UNL     1       5.730   4.764  17.039  0.00  0.00    +0.000 A 
ATOM     17  C   UNL     1       4.386   4.536  17.228  0.00  0.00    +0.000 A 
ATOM     18  N   UNL     1       4.156   4.917  18.522  0.00  0.00    +0.000 N 
ATOM     19  N   UNL     1       5.307   5.291  19.121  0.00  0.00    +0.000 NA
ATOM     20  N   UNL     1       6.276   5.209  18.215  0.00  0.00    +0.000 NA
BRANCH  16  21
ATOM     21  C   UNL     1       6.532   4.657  15.792  0.00  0.00    +0.000 C 
BRANCH  21  22
ATOM     22  C   UNL     1       5.700   4.692  14.512  0.00  0.00    +0.000 C 
BRANCH  22  23
ATOM     23  C   UNL     1       6.286   3.746  13.458  0.00  0.00    +0.000 C 
BRANCH  23  25
ATOM     24  C   UNL     1       5.708   2.221  11.538  0.00  0.00    +0.000 C 
ATOM     25  C   UNL     1       5.274   3.428  12.358  0.00  0.00    +0.000 C 
ENDBRANCH  23  25
ENDBRANCH  22  23
ENDBRANCH  21  22
ENDBRANCH  16  21
ENDBRANCH   1  18
BRANCH   1  26
ATOM     26  C   UNL     1       1.773   4.100  18.546  0.00  0.00    +0.000 C 
ATOM     27  C   UNL     1       1.841   2.597  18.400  0.00  0.00    +0.000 C 
ATOM     28  C   UNL     1       0.895   3.205  19.395  0.00  0.00    +0.000 C 
ENDBRANCH   1  26
TORSDOF 10
ENDMDL
MODEL 2
REMARK VINA RESULT:      -7.7      1.658      2.358
REMARK  Name = 
REMARK  11 active torsions:
REMARK  status: ('A' for Active; 'I' for Inactive)
REMARK    1  A    between atoms: C_1  and  C_2
REMARK    2  A    between atoms: C_2  and  C_3
REMARK    3  A    between atoms: C_3  and  C_4
REMARK    4  A    between atoms: C_4  and  C_5
REMARK    5  A    between atoms: C_5  and  C_6
REMARK    6  A    between atoms: N_8  and  C_9
REMARK    7  A    between atoms: C_9  and  C_10
REMARK    8  A    between atoms: C_9  and  C_24
REMARK    9  A    between atoms: C_13  and  O_14
REMARK   10  A    between atoms: O_14  and  C_15
REMARK   11  A    between atoms: C_15  and  C_16
REMARK                            x       y       z     vdW  Elec       q    Type
REMARK                         _______ _______ _______ _____ _____    ______ ____
ROOT
ATOM      1  C   UNL     1       2.951   4.511  19.077  0.00  0.00    +0.000 C 
ENDROOT
BRANCH   1   2
ATOM      2  C   UNL     1       2.434   5.930  19.273  0.00  0.00    +0.000 A 
ATOM      3  C   UNL     1       1.874   6.300  20.505  0.00  0.00    +0.000 A 
ATOM      4  C   UNL     1       1.409   7.589  20.720  0.00  0.00    +0.000 A 
ATOM      5  C   UNL     1       1.528   8.553  19.718  0.00  0.00    +0.000 A 
ATOM      6  C   UNL     1       2.054   8.195  18.476  0.00  0.00    +0.000 A 
ATOM      7  C   UNL     1       2.512   6.891  18.254  0.00  0.00    +0.000 A 
BRANCH   5   8
ATOM      8  O   UNL     1       1.165   9.864  19.878  0.00  0.00    +0.000 OA
BRANCH   8   9
ATOM      9  C   UNL     1      -0.241  10.099  19.739  0.00  0.00    +0.000 C 
BRANCH   9  10
ATOM     10  C   UNL     1      -0.720  10.955  20.878  0.00  0.00    +0.000 A 
ATOM     11  C   UNL     1      -1.067  12.295  20.665  0.00  0.00    +0.000 A 
ATOM     12  C   UNL     1      -1.483  13.086  21.737  0.00  0.00    +0.000 A 
ATOM     13  C   UNL     1      -1.558  12.544  23.018  0.00  0.00    +0.000 A 
ATOM     14  C   UNL     1      -1.233  11.207  23.238  0.00  0.00    +0.000 A 
ATOM     15  C   UNL     1      -0.816  10.414  22.168  0.00  0.00    +0.000 A 
ENDBRANCH   9  10
ENDBRANCH   8   9
ENDBRANCH   5   8
ENDBRANCH   1   2
BRANCH   1  18
ATOM     16  C   UNL     1       5.975   4.747  17.126  0.00  0.00    +0.000 A 
ATOM     17  C   UNL     1       4.599   4.743  17.163  0.00  0.00    +0.000 A 
ATOM     18  N   UNL     1       4.296   4.545  18.483  0.00  0.00    +0.000 N 
ATOM     19  N   UNL     1       5.419   4.364  19.208  0.00  0.00    +0.000 NA
ATOM     20  N   UNL     1       6.455   4.496  18.385  0.00  0.00    +0.000 NA
BRANCH  16  21
ATOM     21  C   UNL     1       6.880   5.045  15.985  0.00  0.00    +0.000 C 
BRANCH  21  22
ATOM     22  C   UNL     1       6.187   5.047  14.624  0.00  0.00    +0.000 C 
BRANCH  22  23
ATOM     23  C   UNL     1       6.126   3.629  14.045  0.00  0.00    +0.000 C 
BRANCH  23  25
ATOM     24  C   UNL     1       5.340   2.894  11.767  0.00  0.00    +0.000 C 
ATOM     25  C   UNL     1       6.429   3.616  12.547  0.00  0.00    +0.000 C 
ENDBRANCH  23  25
ENDBRANCH  22  23
ENDBRANCH  21  22
ENDBRANCH  16  21
ENDBRANCH   1  18
BRANCH   1  26
ATOM     26  C   UNL     1       1.928   3.703  18.294  0.00  0.00    +0.000 C 
ATOM     27  C   UNL     1       2.156   2.275  17.854  0.00  0.00    +0.000 C 
ATOM     28  C   UNL     1       1.205   2.564  18.980  0.00  0.00    +0.000 C 
ENDBRANCH   1  26
TORSDOF 10
ENDMDL
MODEL 3
REMARK VINA RESULT:      -7.7      1.575      2.852
REMARK  Name = 
REMARK  11 active torsions:
REMARK  status: ('A' for Active; 'I' for Inactive)
REMARK    1  A    between atoms: C_1  and  C_2
REMARK    2  A    between atoms: C_2  and  C_3
REMARK    3  A    between atoms: C_3  and  C_4
REMARK    4  A    between atoms: C_4  and  C_5
REMARK    5  A    between atoms: C_5  and  C_6
REMARK    6  A    between atoms: N_8  and  C_9
REMARK    7  A    between atoms: C_9  and  C_10
REMARK    8  A    between atoms: C_9  and  C_24
REMARK    9  A    between atoms: C_13  and  O_14
REMARK   10  A    between atoms: O_14  and  C_15
REMARK   11  A    between atoms: C_15  and  C_16
REMARK                            x       y       z     vdW  Elec       q    Type
REMARK                         _______ _______ _______ _____ _____    ______ ____
ROOT
ATOM      1  C   UNL     1       2.774   4.481  19.462  0.00  0.00    +0.000 C 
ENDROOT
BRANCH   1   2
ATOM      2  C   UNL     1       2.330   5.936  19.535  0.00  0.00    +0.000 A 
ATOM      3  C   UNL     1       1.733   6.422  20.707  0.00  0.00    +0.000 A 
ATOM      4  C   UNL     1       1.332   7.746  20.811  0.00  0.00    +0.000 A 
ATOM      5  C   UNL     1       1.555   8.629  19.754  0.00  0.00    +0.000 A 
ATOM      6  C   UNL     1       2.119   8.157  18.568  0.00  0.00    +0.000 A 
ATOM      7  C   UNL     1       2.512   6.818  18.459  0.00  0.00    +0.000 A 
BRANCH   5   8
ATOM      8  O   UNL     1       1.259   9.965  19.805  0.00  0.00    +0.000 OA
BRANCH   8   9
ATOM      9  C   UNL     1       0.957  10.544  18.531  0.00  0.00    +0.000 C 
BRANCH   9  10
ATOM     10  C   UNL     1      -0.531  10.698  18.391  0.00  0.00    +0.000 A 
ATOM     11  C   UNL     1      -1.253   9.873  17.519  0.00  0.00    +0.000 A 
ATOM     12  C   UNL     1      -2.630  10.045  17.377  0.00  0.00    +0.000 A 
ATOM     13  C   UNL     1      -3.290  11.033  18.105  0.00  0.00    +0.000 A 
ATOM     14  C   UNL     1      -2.585  11.847  18.989  0.00  0.00    +0.000 A 
ATOM     15  C   UNL     1      -1.207  11.677  19.132  0.00  0.00    +0.000 A 
ENDBRANCH   9  10
ENDBRANCH   8   9
ENDBRANCH   5   8
ENDBRANCH   1   2
BRANCH   1  18
ATOM     16  C   UNL     1       5.804   4.366  17.510  0.00  0.00    +0.000 A 
ATOM     17  C   UNL     1       4.428   4.406  17.541  0.00  0.00    +0.000 A 
ATOM     18  N   UNL     1       4.119   4.397  18.875  0.00  0.00    +0.000 N 
ATOM     19  N   UNL     1       5.237   4.284  19.623  0.00  0.00    +0.000 NA
ATOM     20  N   UNL     1       6.276   4.274  18.794  0.00  0.00    +0.000 NA
BRANCH  16  21
ATOM     21  C   UNL     1       6.718   4.480  16.344  0.00  0.00    +0.000 C 
BRANCH  21  22
ATOM     22  C   UNL     1       7.206   5.902  16.072  0.00  0.00    +0.000 C 
BRANCH  22  23
ATOM     23  C   UNL     1       6.706   6.862  17.159  0.00  0.00    +0.000 C 
BRANCH  23  25
ATOM     24  C   UNL     1       7.994   8.921  17.830  0.00  0.00    +0.000 C 
ATOM     25  C   UNL     1       7.858   7.415  17.998  0.00  0.00    +0.000 C 
ENDBRANCH  23  25
ENDBRANCH  22  23
ENDBRANCH  21  22
ENDBRANCH  16  21
ENDBRANCH   1  18
BRANCH   1  26
ATOM     26  C   UNL     1       1.712   3.663  18.745  0.00  0.00    +0.000 C 
ATOM     27  C   UNL     1       1.724   2.153  18.686  0.00  0.00    +0.000 C 
ATOM     28  C   UNL     1       0.726   2.855  19.561  0.00  0.00    +0.000 C 
ENDBRANCH   1  26
TORSDOF 10
ENDMDL
MODEL 4
REMARK VINA RESULT:      -7.6      2.506      3.720
REMARK  Name = 
REMARK  11 active torsions:
REMARK  status: ('A' for Active; 'I' for Inactive)
REMARK    1  A    between atoms: C_1  and  C_2
REMARK    2  A    between atoms: C_2  and  C_3
REMARK    3  A    between atoms: C_3  and  C_4
REMARK    4  A    between atoms: C_4  and  C_5
REMARK    5  A    between atoms: C_5  and  C_6
REMARK    6  A    between atoms: N_8  and  C_9
REMARK    7  A    between atoms: C_9  and  C_10
REMARK    8  A    between atoms: C_9  and  C_24
REMARK    9  A    between atoms: C_13  and  O_14
REMARK   10  A    between atoms: O_14  and  C_15
REMARK   11  A    between atoms: C_15  and  C_16
REMARK                            x       y       z     vdW  Elec       q    Type
REMARK                         _______ _______ _______ _____ _____    ______ ____
ROOT
ATOM      1  C   UNL     1       3.128   5.382  18.459  0.00  0.00    +0.000 C 
ENDROOT
BRANCH   1   2
ATOM      2  C   UNL     1       2.442   6.691  18.824  0.00  0.00    +0.000 A 
ATOM      3  C   UNL     1       2.024   6.911  20.145  0.00  0.00    +0.000 A 
ATOM      4  C   UNL     1       1.410   8.100  20.512  0.00  0.00    +0.000 A 
ATOM      5  C   UNL     1       1.234   9.116  19.573  0.00  0.00    +0.000 A 
ATOM      6  C   UNL     1       1.615   8.904  18.247  0.00  0.00    +0.000 A 
ATOM      7  C   UNL     1       2.223   7.700  17.873  0.00  0.00    +0.000 A 
BRANCH   5   8
ATOM      8  O   UNL     1       0.708  10.345  19.873  0.00  0.00    +0.000 OA
BRANCH   8   9
ATOM      9  C   UNL     1       0.392  11.139  18.724  0.00  0.00    +0.000 C 
BRANCH   9  10
ATOM     10  C   UNL     1      -1.086  11.073  18.462  0.00  0.00    +0.000 A 
ATOM     11  C   UNL     1      -1.966  11.938  19.124  0.00  0.00    +0.000 A 
ATOM     12  C   UNL     1      -3.339  11.848  18.892  0.00  0.00    +0.000 A 
ATOM     13  C   UNL     1      -3.836  10.901  18.000  0.00  0.00    +0.000 A 
ATOM     14  C   UNL     1      -2.969  10.047  17.321  0.00  0.00    +0.000 A 
ATOM     15  C   UNL     1      -1.595  10.136  17.552  0.00  0.00    +0.000 A 
ENDBRANCH   9  10
ENDBRANCH   8   9
ENDBRANCH   5   8
ENDBRANCH   1   2
BRANCH   1  18
ATOM     16  C   UNL     1       6.315   6.379  17.096  0.00  0.00    +0.000 A 
ATOM     17  C   UNL     1       5.360   6.525  18.077  0.00  0.00    +0.000 A 
ATOM     18  N   UNL     1       4.367   5.655  17.714  0.00  0.00    +0.000 N 
ATOM     19  N   UNL     1       4.659   5.060  16.539  0.00  0.00    +0.000 NA
ATOM     20  N   UNL     1       5.857   5.491  16.157  0.00  0.00    +0.000 NA
BRANCH  16  21
ATOM     21  C   UNL     1       7.675   6.972  17.018  0.00  0.00    +0.000 C 
BRANCH  21  22
ATOM     22  C   UNL     1       8.087   7.751  18.266  0.00  0.00    +0.000 C 
BRANCH  22  23
ATOM     23  C   UNL     1       8.238   9.243  17.947  0.00  0.00    +0.000 C 
BRANCH  23  25
ATOM     24  C   UNL     1       9.677  11.257  18.420  0.00  0.00    +0.000 C 
ATOM     25  C   UNL     1       9.117   9.955  18.975  0.00  0.00    +0.000 C 
ENDBRANCH  23  25
ENDBRANCH  22  23
ENDBRANCH  21  22
ENDBRANCH  16  21
ENDBRANCH   1  18
BRANCH   1  26
ATOM     26  C   UNL     1       2.140   4.475  17.742  0.00  0.00    +0.000 C 
ATOM     27  C   UNL     1       2.294   2.974  17.664  0.00  0.00    +0.000 C 
ATOM     28  C   UNL     1       1.244   3.568  18.558  0.00  0.00    +0.000 C 
ENDBRANCH   1  26
TORSDOF 10
ENDMDL
MODEL 5
REMARK VINA RESULT:      -7.6      1.623      2.546
REMARK  Name = 
REMARK  11 active torsions:
REMARK  status: ('A' for Active; 'I' for Inactive)
REMARK    1  A    between atoms: C_1  and  C_2
REMARK    2  A    between atoms: C_2  and  C_3
REMARK    3  A    between atoms: C_3  and  C_4
REMARK    4  A    between atoms: C_4  and  C_5
REMARK    5  A    between atoms: C_5  and  C_6
REMARK    6  A    between atoms: N_8  and  C_9
REMARK    7  A    between atoms: C_9  and  C_10
REMARK    8  A    between atoms: C_9  and  C_24
REMARK    9  A    between atoms: C_13  and  O_14
REMARK   10  A    between atoms: O_14  and  C_15
REMARK   11  A    between atoms: C_15  and  C_16
REMARK                            x       y       z     vdW  Elec       q    Type
REMARK                         _______ _______ _______ _____ _____    ______ ____
ROOT
ATOM      1  C   UNL     1       2.802   4.576  19.267  0.00  0.00    +0.000 C 
ENDROOT
BRANCH   1   2
ATOM      2  C   UNL     1       2.372   6.028  19.433  0.00  0.00    +0.000 A 
ATOM      3  C   UNL     1       2.503   6.918  18.357  0.00  0.00    +0.000 A 
ATOM      4  C   UNL     1       2.105   8.242  18.472  0.00  0.00    +0.000 A 
ATOM      5  C   UNL     1       1.529   8.700  19.658  0.00  0.00    +0.000 A 
ATOM      6  C   UNL     1       1.419   7.837  20.750  0.00  0.00    +0.000 A 
ATOM      7  C   UNL     1       1.832   6.504  20.638  0.00  0.00    +0.000 A 
BRANCH   5   8
ATOM      8  O   UNL     1       1.041   9.968  19.826  0.00  0.00    +0.000 OA
BRANCH   8   9
ATOM      9  C   UNL     1       0.793  10.664  18.599  0.00  0.00    +0.000 C 
BRANCH   9  10
ATOM     10  C   UNL     1       1.250  12.090  18.731  0.00  0.00    +0.000 A 
ATOM     11  C   UNL     1       2.487  12.493  18.213  0.00  0.00    +0.000 A 
ATOM     12  C   UNL     1       2.911  13.813  18.368  0.00  0.00    +0.000 A 
ATOM     13  C   UNL     1       2.104  14.733  19.033  0.00  0.00    +0.000 A 
ATOM     14  C   UNL     1       0.863  14.348  19.536  0.00  0.00    +0.000 A 
ATOM     15  C   UNL     1       0.437  13.028  19.384  0.00  0.00    +0.000 A 
ENDBRANCH   9  10
ENDBRANCH   8   9
ENDBRANCH   5   8
ENDBRANCH   1   2
BRANCH   1  18
ATOM     16  C   UNL     1       5.756   4.505  17.200  0.00  0.00    +0.000 A 
ATOM     17  C   UNL     1       4.382   4.513  17.284  0.00  0.00    +0.000 A 
ATOM     18  N   UNL     1       4.126   4.516  18.628  0.00  0.00    +0.000 N 
ATOM     19  N   UNL     1       5.274   4.441  19.334  0.00  0.00    +0.000 NA
ATOM     20  N   UNL     1       6.280   4.444  18.465  0.00  0.00    +0.000 NA
BRANCH  16  21
ATOM     21  C   UNL     1       6.622   4.624  15.997  0.00  0.00    +0.000 C 
BRANCH  21  22
ATOM     22  C   UNL     1       6.335   3.581  14.919  0.00  0.00    +0.000 C 
BRANCH  22  23
ATOM     23  C   UNL     1       5.741   4.242  13.670  0.00  0.00    +0.000 C 
BRANCH  23  25
ATOM     24  C   UNL     1       4.533   3.292  11.673  0.00  0.00    +0.000 C 
ATOM     25  C   UNL     1       5.844   3.333  12.446  0.00  0.00    +0.000 C 
ENDBRANCH  23  25
ENDBRANCH  22  23
ENDBRANCH  21  22
ENDBRANCH  16  21
ENDBRANCH   1  18
BRANCH   1  26
ATOM     26  C   UNL     1       1.709   3.804  18.545  0.00  0.00    +0.000 C 
ATOM     27  C   UNL     1       1.688   2.297  18.439  0.00  0.00    +0.000 C 
ATOM     28  C   UNL     1       0.721   2.992  19.354  0.00  0.00    +0.000 C 
ENDBRANCH   1  26
TORSDOF 10
ENDMDL
MODEL 6
REMARK VINA RESULT:      -7.6      1.553      2.072
REMARK  Name = 
REMARK  11 active torsions:
REMARK  status: ('A' for Active; 'I' for Inactive)
REMARK    1  A    between atoms: C_1  and  C_2
REMARK    2  A    between atoms: C_2  and  C_3
REMARK    3  A    between atoms: C_3  and  C_4
REMARK    4  A    between atoms: C_4  and  C_5
REMARK    5  A    between atoms: C_5  and  C_6
REMARK    6  A    between atoms: N_8  and  C_9
REMARK    7  A    between atoms: C_9  and  C_10
REMARK    8  A    between atoms: C_9  and  C_24
REMARK    9  A    between atoms: C_13  and  O_14
REMARK   10  A    between atoms: O_14  and  C_15
REMARK   11  A    between atoms: C_15  and  C_16
REMARK                            x       y       z     vdW  Elec       q    Type
REMARK                         _______ _______ _______ _____ _____    ______ ____
ROOT
ATOM      1  C   UNL     1       2.980   4.543  19.080  0.00  0.00    +0.000 C 
ENDROOT
BRANCH   1   2
ATOM      2  C   UNL     1       2.552   5.992  19.266  0.00  0.00    +0.000 A 
ATOM      3  C   UNL     1       2.648   6.888  18.191  0.00  0.00    +0.000 A 
ATOM      4  C   UNL     1       2.252   8.211  18.325  0.00  0.00    +0.000 A 
ATOM      5  C   UNL     1       1.711   8.661  19.529  0.00  0.00    +0.000 A 
ATOM      6  C   UNL     1       1.636   7.793  20.619  0.00  0.00    +0.000 A 
ATOM      7  C   UNL     1       2.047   6.462  20.489  0.00  0.00    +0.000 A 
BRANCH   5   8
ATOM      8  O   UNL     1       1.226   9.928  19.718  0.00  0.00    +0.000 OA
BRANCH   8   9
ATOM      9  C   UNL     1      -0.187  10.046  19.521  0.00  0.00    +0.000 C 
BRANCH   9  10
ATOM     10  C   UNL     1      -0.797  10.764  20.692  0.00  0.00    +0.000 A 
ATOM     11  C   UNL     1      -0.571  10.315  21.999  0.00  0.00    +0.000 A 
ATOM     12  C   UNL     1      -1.167  10.974  23.076  0.00  0.00    +0.000 A 
ATOM     13  C   UNL     1      -1.983  12.081  22.853  0.00  0.00    +0.000 A 
ATOM     14  C   UNL     1      -2.200  12.547  21.558  0.00  0.00    +0.000 A 
ATOM     15  C   UNL     1      -1.606  11.890  20.480  0.00  0.00    +0.000 A 
ENDBRANCH   9  10
ENDBRANCH   8   9
ENDBRANCH   5   8
ENDBRANCH   1   2
BRANCH   1  18
ATOM     16  C   UNL     1       6.009   4.440  17.126  0.00  0.00    +0.000 A 
ATOM     17  C   UNL     1       4.633   4.399  17.162  0.00  0.00    +0.000 A 
ATOM     18  N   UNL     1       4.327   4.488  18.493  0.00  0.00    +0.000 N 
ATOM     19  N   UNL     1       5.450   4.510  19.241  0.00  0.00    +0.000 NA
ATOM     20  N   UNL     1       6.487   4.490  18.410  0.00  0.00    +0.000 NA
BRANCH  16  21
ATOM     21  C   UNL     1       6.913   4.507  15.948  0.00  0.00    +0.000 C 
BRANCH  21  22
ATOM     22  C   UNL     1       6.198   4.797  14.630  0.00  0.00    +0.000 C 
BRANCH  22  23
ATOM     23  C   UNL     1       5.850   3.491  13.904  0.00  0.00    +0.000 C 
BRANCH  23  25
ATOM     24  C   UNL     1       6.881   2.852  11.696  0.00  0.00    +0.000 C 
ATOM     25  C   UNL     1       5.809   3.681  12.389  0.00  0.00    +0.000 C 
ENDBRANCH  23  25
ENDBRANCH  22  23
ENDBRANCH  21  22
ENDBRANCH  16  21
ENDBRANCH   1  18
BRANCH   1  26
ATOM     26  C   UNL     1       1.912   3.797  18.295  0.00  0.00    +0.000 C 
ATOM     27  C   UNL     1       1.939   2.304  18.066  0.00  0.00    +0.000 C 
ATOM     28  C   UNL     1       0.952   2.889  19.034  0.00  0.00    +0.000 C 
ENDBRANCH   1  26
TORSDOF 10
ENDMDL
MODEL 7
REMARK VINA RESULT:      -7.5      0.901      1.150
REMARK  Name = 
REMARK  11 active torsions:
REMARK  status: ('A' for Active; 'I' for Inactive)
REMARK    1  A    between atoms: C_1  and  C_2
REMARK    2  A    between atoms: C_2  and  C_3
REMARK    3  A    between atoms: C_3  and  C_4
REMARK    4  A    between atoms: C_4  and  C_5
REMARK    5  A    between atoms: C_5  and  C_6
REMARK    6  A    between atoms: N_8  and  C_9
REMARK    7  A    between atoms: C_9  and  C_10
REMARK    8  A    between atoms: C_9  and  C_24
REMARK    9  A    between atoms: C_13  and  O_14
REMARK   10  A    between atoms: O_14  and  C_15
REMARK   11  A    between atoms: C_15  and  C_16
REMARK                            x       y       z     vdW  Elec       q    Type
REMARK                         _______ _______ _______ _____ _____    ______ ____
ROOT
ATOM      1  C   UNL     1       2.677   5.472  19.758  0.00  0.00    +0.000 C 
ENDROOT
BRANCH   1   2
ATOM      2  C   UNL     1       2.213   6.893  19.469  0.00  0.00    +0.000 A 
ATOM      3  C   UNL     1       2.327   7.411  18.171  0.00  0.00    +0.000 A 
ATOM      4  C   UNL     1       1.899   8.697  17.873  0.00  0.00    +0.000 A 
ATOM      5  C   UNL     1       1.308   9.484  18.861  0.00  0.00    +0.000 A 
ATOM      6  C   UNL     1       1.214   8.998  20.167  0.00  0.00    +0.000 A 
ATOM      7  C   UNL     1       1.657   7.706  20.470  0.00  0.00    +0.000 A 
BRANCH   5   8
ATOM      8  O   UNL     1       0.791  10.731  18.631  0.00  0.00    +0.000 OA
BRANCH   8   9
ATOM      9  C   UNL     1      -0.424  10.998  19.342  0.00  0.00    +0.000 C 
BRANCH   9  10
ATOM     10  C   UNL     1      -1.590  10.888  18.400  0.00  0.00    +0.000 A 
ATOM     11  C   UNL     1      -2.707  11.720  18.549  0.00  0.00    +0.000 A 
ATOM     12  C   UNL     1      -3.794  11.588  17.685  0.00  0.00    +0.000 A 
ATOM     13  C   UNL     1      -3.769  10.632  16.671  0.00  0.00    +0.000 A 
ATOM     14  C   UNL     1      -2.656   9.812  16.502  0.00  0.00    +0.000 A 
ATOM     15  C   UNL     1      -1.567   9.942  17.366  0.00  0.00    +0.000 A 
ENDBRANCH   9  10
ENDBRANCH   8   9
ENDBRANCH   5   8
ENDBRANCH   1   2
BRANCH   1  18
ATOM     16  C   UNL     1       5.759   5.325  17.891  0.00  0.00    +0.000 A 
ATOM     17  C   UNL     1       4.472   5.804  17.997  0.00  0.00    +0.000 A 
ATOM     18  N   UNL     1       3.997   5.242  19.152  0.00  0.00    +0.000 N 
ATOM     19  N   UNL     1       4.912   4.408  19.688  0.00  0.00    +0.000 NA
ATOM     20  N   UNL     1       5.999   4.460  18.926  0.00  0.00    +0.000 NA
BRANCH  16  21
ATOM     21  C   UNL     1       6.813   5.686  16.908  0.00  0.00    +0.000 C 
BRANCH  21  22
ATOM     22  C   UNL     1       7.247   4.530  16.008  0.00  0.00    +0.000 C 
BRANCH  22  23
ATOM     23  C   UNL     1       6.957   4.850  14.537  0.00  0.00    +0.000 C 
BRANCH  23  25
ATOM     24  C   UNL     1       5.903   3.494  12.693  0.00  0.00    +0.000 C 
ATOM     25  C   UNL     1       5.687   4.156  14.047  0.00  0.00    +0.000 C 
ENDBRANCH  23  25
ENDBRANCH  22  23
ENDBRANCH  21  22
ENDBRANCH  16  21
ENDBRANCH   1  18
BRANCH   1  26
ATOM     26  C   UNL     1       1.598   4.491  19.328  0.00  0.00    +0.000 C 
ATOM     27  C   UNL     1       1.894   3.180  18.636  0.00  0.00    +0.000 C 
ATOM     28  C   UNL     1       1.452   3.180  20.071  0.00  0.00    +0.000 C 
ENDBRANCH   1  26
TORSDOF 10
ENDMDL
MODEL 8
REMARK VINA RESULT:      -7.5      0.804      1.568
REMARK  Name = 
REMARK  11 active torsions:
REMARK  status: ('A' for Active; 'I' for Inactive)
REMARK    1  A    between atoms: C_1  and  C_2
REMARK    2  A    between atoms: C_2  and  C_3
REMARK    3  A    between atoms: C_3  and  C_4
REMARK    4  A    between atoms: C_4  and  C_5
REMARK    5  A    between atoms: C_5  and  C_6
REMARK    6  A    between atoms: N_8  and  C_9
REMARK    7  A    between atoms: C_9  and  C_10
REMARK    8  A    between atoms: C_9  and  C_24
REMARK    9  A    between atoms: C_13  and  O_14
REMARK   10  A    between atoms: O_14  and  C_15
REMARK   11  A    between atoms: C_15  and  C_16
REMARK                            x       y       z     vdW  Elec       q    Type
REMARK                         _______ _______ _______ _____ _____    ______ ____
ROOT
ATOM      1  C   UNL     1       3.614   4.749  19.386  0.00  0.00    +0.000 C 
ENDROOT
BRANCH   1   2
ATOM      2  C   UNL     1       2.979   6.118  19.183  0.00  0.00    +0.000 A 
ATOM      3  C   UNL     1       2.224   6.694  20.215  0.00  0.00    +0.000 A 
ATOM      4  C   UNL     1       1.647   7.946  20.067  0.00  0.00    +0.000 A 
ATOM      5  C   UNL     1       1.844   8.673  18.893  0.00  0.00    +0.000 A 
ATOM      6  C   UNL     1       2.566   8.105  17.842  0.00  0.00    +0.000 A 
ATOM      7  C   UNL     1       3.139   6.836  17.987  0.00  0.00    +0.000 A 
BRANCH   5   8
ATOM      8  O   UNL     1       1.374   9.945  18.698  0.00  0.00    +0.000 OA
BRANCH   8   9
ATOM      9  C   UNL     1       0.304  10.311  19.577  0.00  0.00    +0.000 C 
BRANCH   9  10
ATOM     10  C   UNL     1      -0.947  10.539  18.776  0.00  0.00    +0.000 A 
ATOM     11  C   UNL     1      -1.157   9.853  17.573  0.00  0.00    +0.000 A 
ATOM     12  C   UNL     1      -2.310  10.095  16.825  0.00  0.00    +0.000 A 
ATOM     13  C   UNL     1      -3.254  11.015  17.274  0.00  0.00    +0.000 A 
ATOM     14  C   UNL     1      -3.064  11.690  18.478  0.00  0.00    +0.000 A 
ATOM     15  C   UNL     1      -1.912  11.450  19.228  0.00  0.00    +0.000 A 
ENDBRANCH   9  10
ENDBRANCH   8   9
ENDBRANCH   5   8
ENDBRANCH   1   2
BRANCH   1  18
ATOM     16  C   UNL     1       6.362   4.543  17.059  0.00  0.00    +0.000 A 
ATOM     17  C   UNL     1       5.003   4.505  17.278  0.00  0.00    +0.000 A 
ATOM     18  N   UNL     1       4.873   4.663  18.631  0.00  0.00    +0.000 N 
ATOM     19  N   UNL     1       6.085   4.722  19.223  0.00  0.00    +0.000 NA
ATOM     20  N   UNL     1       7.004   4.658  18.264  0.00  0.00    +0.000 NA
BRANCH  16  21
ATOM     21  C   UNL     1       7.103   4.547  15.771  0.00  0.00    +0.000 C 
BRANCH  21  22
ATOM     22  C   UNL     1       6.215   4.737  14.542  0.00  0.00    +0.000 C 
BRANCH  22  23
ATOM     23  C   UNL     1       6.053   3.415  13.782  0.00  0.00    +0.000 C 
BRANCH  23  25
ATOM     24  C   UNL     1       4.645   3.287  11.697  0.00  0.00    +0.000 C 
ATOM     25  C   UNL     1       6.011   3.634  12.270  0.00  0.00    +0.000 C 
ENDBRANCH  23  25
ENDBRANCH  22  23
ENDBRANCH  21  22
ENDBRANCH  16  21
ENDBRANCH   1  18
BRANCH   1  26
ATOM     26  C   UNL     1       2.598   3.667  19.057  0.00  0.00    +0.000 C 
ATOM     27  C   UNL     1       1.140   3.751  19.444  0.00  0.00    +0.000 C 
ATOM     28  C   UNL     1       1.540   3.941  18.010  0.00  0.00    +0.000 C 
ENDBRANCH   1  26
TORSDOF 10
ENDMDL
MODEL 9
REMARK VINA RESULT:      -7.5      2.932      4.364
REMARK  Name = 
REMARK  11 active torsions:
REMARK  status: ('A' for Active; 'I' for Inactive)
REMARK    1  A    between atoms: C_1  and  C_2
REMARK    2  A    between atoms: C_2  and  C_3
REMARK    3  A    between atoms: C_3  and  C_4
REMARK    4  A    between atoms: C_4  and  C_5
REMARK    5  A    between atoms: C_5  and  C_6
REMARK    6  A    between atoms: N_8  and  C_9
REMARK    7  A    between atoms: C_9  and  C_10
REMARK    8  A    between atoms: C_9  and  C_24
REMARK    9  A    between atoms: C_13  and  O_14
REMARK   10  A    between atoms: O_14  and  C_15
REMARK   11  A    between atoms: C_15  and  C_16
REMARK                            x       y       z     vdW  Elec       q    Type
REMARK                         _______ _______ _______ _____ _____    ______ ____
ROOT
ATOM      1  C   UNL     1       2.995   5.038  19.024  0.00  0.00    +0.000 C 
ENDROOT
BRANCH   1   2
ATOM      2  C   UNL     1       2.398   6.417  19.273  0.00  0.00    +0.000 A 
ATOM      3  C   UNL     1       1.878   6.731  20.537  0.00  0.00    +0.000 A 
ATOM      4  C   UNL     1       1.342   7.984  20.798  0.00  0.00    +0.000 A 
ATOM      5  C   UNL     1       1.349   8.969  19.810  0.00  0.00    +0.000 A 
ATOM      6  C   UNL     1       1.833   8.665  18.537  0.00  0.00    +0.000 A 
ATOM      7  C   UNL     1       2.363   7.397  18.268  0.00  0.00    +0.000 A 
BRANCH   5   8
ATOM      8  O   UNL     1       0.911  10.250  20.011  0.00  0.00    +0.000 OA
BRANCH   8   9
ATOM      9  C   UNL     1      -0.324  10.337  20.731  0.00  0.00    +0.000 C 
BRANCH   9  10
ATOM     10  C   UNL     1      -0.409  11.669  21.421  0.00  0.00    +0.000 A 
ATOM     11  C   UNL     1       0.391  12.740  21.004  0.00  0.00    +0.000 A 
ATOM     12  C   UNL     1       0.322  13.963  21.671  0.00  0.00    +0.000 A 
ATOM     13  C   UNL     1      -0.543  14.123  22.751  0.00  0.00    +0.000 A 
ATOM     14  C   UNL     1      -1.357  13.070  23.164  0.00  0.00    +0.000 A 
ATOM     15  C   UNL     1      -1.290  11.845  22.498  0.00  0.00    +0.000 A 
ENDBRANCH   9  10
ENDBRANCH   8   9
ENDBRANCH   5   8
ENDBRANCH   1   2
BRANCH   1  18
ATOM     16  C   UNL     1       6.362   5.794  17.979  0.00  0.00    +0.000 A 
ATOM     17  C   UNL     1       5.012   6.029  17.849  0.00  0.00    +0.000 A 
ATOM     18  N   UNL     1       4.431   5.158  18.731  0.00  0.00    +0.000 N 
ATOM     19  N   UNL     1       5.364   4.380  19.319  0.00  0.00    +0.000 NA
ATOM     20  N   UNL     1       6.552   4.769  18.870  0.00  0.00    +0.000 NA
BRANCH  16  21
ATOM     21  C   UNL     1       7.503   6.524  17.367  0.00  0.00    +0.000 C 
BRANCH  21  22
ATOM     22  C   UNL     1       7.439   8.040  17.544  0.00  0.00    +0.000 C 
BRANCH  22  23
ATOM     23  C   UNL     1       8.564   8.525  18.466  0.00  0.00    +0.000 C 
BRANCH  23  25
ATOM     24  C   UNL     1       9.403  10.620  19.586  0.00  0.00    +0.000 C 
ATOM     25  C   UNL     1       8.809  10.026  18.317  0.00  0.00    +0.000 C 
ENDBRANCH  23  25
ENDBRANCH  22  23
ENDBRANCH  21  22
ENDBRANCH  16  21
ENDBRANCH   1  18
BRANCH   1  26
ATOM     26  C   UNL     1       2.184   4.320  17.958  0.00  0.00    +0.000 C 
ATOM     27  C   UNL     1       2.647   3.056  17.270  0.00  0.00    +0.000 C 
ATOM     28  C   UNL     1       1.544   2.988  18.287  0.00  0.00    +0.000 C 
ENDBRANCH   1  26
TORSDOF 10
ENDMDL
