MODEL 1
REMARK VINA RESULT:      -8.1      0.000      0.000
REMARK  Name = 
REMARK  4 active torsions:
REMARK  status: ('A' for Active; 'I' for Inactive)
REMARK    1  A    between atoms: C_2  and  C_5
REMARK    2  A    between atoms: C_10  and  C_11
REMARK    3  A    between atoms: C_11  and  O_12
REMARK    4  A    between atoms: O_12  and  C_13
REMARK                            x       y       z     vdW  Elec       q    Type
REMARK                         _______ _______ _______ _____ _____    ______ ____
ROOT
ATOM      1  C   UNL     1       6.898   4.669  15.964  0.00  0.00    +0.000 A 
ATOM      2  N   UNL     1       7.964   4.281  16.661  0.00  0.00    +0.000 NA
ATOM      3  N   UNL     1       7.694   4.459  18.013  0.00  0.00    +0.000 NA
ATOM      4  C   UNL     1       6.487   4.939  18.067  0.00  0.00    +0.000 A 
ATOM      5  S   UNL     1       5.394   5.448  19.273  0.00  0.00    +0.000 S 
ATOM      6  C   UNL     1       4.291   5.862  17.929  0.00  0.00    +0.000 A 
ATOM      7  N   UNL     1       4.701   5.631  16.707  0.00  0.00    +0.000 NA
ATOM      8  N   UNL     1       5.948   5.104  16.836  0.00  0.00    +0.000 N 
ENDROOT
BRANCH   1  10
ATOM      9  F   UNL     1       7.708   5.234  13.829  0.00  0.00    +0.000 F 
ATOM     10  C   UNL     1       6.677   4.673  14.513  0.00  0.00    +0.000 C 
ATOM     11  F   UNL     1       5.563   5.372  14.167  0.00  0.00    +0.000 F 
ATOM     12  F   UNL     1       6.524   3.418  14.015  0.00  0.00    +0.000 F 
ENDBRANCH   1  10
BRANCH   6  13
ATOM     13  C   UNL     1       2.949   6.449  18.290  0.00  0.00    +0.000 C 
BRANCH  13  14
ATOM     14  O   UNL     1       1.957   5.497  17.922  0.00  0.00    +0.000 OA
BRANCH  14  15
ATOM     15  C   UNL     1       1.818   4.430  18.769  0.00  0.00    +0.000 A 
ATOM     16  C   UNL     1       1.638   4.756  20.116  0.00  0.00    +0.000 A 
ATOM     17  C   UNL     1       1.469   3.753  21.072  0.00  0.00    +0.000 A 
ATOM     18  C   UNL     1       1.461   2.416  20.683  0.00  0.00    +0.000 A 
ATOM     19  C   UNL     1       1.620   2.086  19.338  0.00  0.00    +0.000 A 
ATOM     20  C   UNL     1       1.796   3.089  18.381  0.00  0.00    +0.000 A 
ENDBRANCH  14  15
ENDBRANCH  13  14
ENDBRANCH   6  13
TORSDOF 4
ENDMDL
MODEL 2
REMARK VINA RESULT:      -8.1      0.112      1.369
REMARK  Name = 
REMARK  4 active torsions:
REMARK  status: ('A' for Active; 'I' for Inactive)
REMARK    1  A    between atoms: C_2  and  C_5
REMARK    2  A    between atoms: C_10  and  C_11
REMARK    3  A    between atoms: C_11  and  O_12
REMARK    4  A    between atoms: O_12  and  C_13
REMARK                            x       y       z     vdW  Elec       q    Type
REMARK                         _______ _______ _______ _____ _____    ______ ____
ROOT
ATOM      1  C   UNL     1       6.920   4.680  15.968  0.00  0.00    +0.000 A 
ATOM      2  N   UNL     1       7.977   4.274  16.668  0.00  0.00    +0.000 NA
ATOM      3  N   UNL     1       7.708   4.462  18.019  0.00  0.00    +0.000 NA
ATOM      4  C   UNL     1       6.511   4.965  18.069  0.00  0.00    +0.000 A 
ATOM      5  S   UNL     1       5.425   5.498  19.272  0.00  0.00    +0.000 S 
ATOM      6  C   UNL     1       4.332   5.928  17.926  0.00  0.00    +0.000 A 
ATOM      7  N   UNL     1       4.741   5.686  16.705  0.00  0.00    +0.000 NA
ATOM      8  N   UNL     1       5.977   5.136  16.837  0.00  0.00    +0.000 N 
ENDROOT
BRANCH   1  10
ATOM      9  F   UNL     1       6.555   3.434  14.007  0.00  0.00    +0.000 F 
ATOM     10  C   UNL     1       6.702   4.684  14.517  0.00  0.00    +0.000 C 
ATOM     11  F   UNL     1       7.739   5.252  13.845  0.00  0.00    +0.000 F 
ATOM     12  F   UNL     1       5.584   5.374  14.169  0.00  0.00    +0.000 F 
ENDBRANCH   1  10
BRANCH   6  13
ATOM     13  C   UNL     1       3.001   6.541  18.282  0.00  0.00    +0.000 C 
BRANCH  13  14
ATOM     14  O   UNL     1       1.994   5.593  17.947  0.00  0.00    +0.000 OA
BRANCH  14  15
ATOM     15  C   UNL     1       1.783   4.604  18.870  0.00  0.00    +0.000 A 
ATOM     16  C   UNL     1       1.683   3.311  18.350  0.00  0.00    +0.000 A 
ATOM     17  C   UNL     1       1.484   2.219  19.196  0.00  0.00    +0.000 A 
ATOM     18  C   UNL     1       1.401   2.412  20.573  0.00  0.00    +0.000 A 
ATOM     19  C   UNL     1       1.520   3.697  21.099  0.00  0.00    +0.000 A 
ATOM     20  C   UNL     1       1.712   4.792  20.252  0.00  0.00    +0.000 A 
ENDBRANCH  14  15
ENDBRANCH  13  14
ENDBRANCH   6  13
TORSDOF 4
ENDMDL
MODEL 3
REMARK VINA RESULT:      -7.7      0.623      1.088
REMARK  Name = 
REMARK  4 active torsions:
REMARK  status: ('A' for Active; 'I' for Inactive)
REMARK    1  A    between atoms: C_2  and  C_5
REMARK    2  A    between atoms: C_10  and  C_11
REMARK    3  A    between atoms: C_11  and  O_12
REMARK    4  A    between atoms: O_12  and  C_13
REMARK                            x       y       z     vdW  Elec       q    Type
REMARK                         _______ _______ _______ _____ _____    ______ ____
ROOT
ATOM      1  C   UNL     1       6.838   4.611  15.939  0.00  0.00    +0.000 A 
ATOM      2  N   UNL     1       7.919   4.230  16.617  0.00  0.00    +0.000 NA
ATOM      3  N   UNL     1       7.702   4.477  17.967  0.00  0.00    +0.000 NA
ATOM      4  C   UNL     1       6.509   4.988  18.040  0.00  0.00    +0.000 A 
ATOM      5  S   UNL     1       5.471   5.579  19.258  0.00  0.00    +0.000 S 
ATOM      6  C   UNL     1       4.331   5.957  17.936  0.00  0.00    +0.000 A 
ATOM      7  N   UNL     1       4.692   5.660  16.713  0.00  0.00    +0.000 NA
ATOM      8  N   UNL     1       5.930   5.109  16.822  0.00  0.00    +0.000 N 
ENDROOT
BRANCH   1  10
ATOM      9  F   UNL     1       6.516   3.281  14.026  0.00  0.00    +0.000 F 
ATOM     10  C   UNL     1       6.566   4.553  14.499  0.00  0.00    +0.000 C 
ATOM     11  F   UNL     1       7.520   5.194  13.771  0.00  0.00    +0.000 F 
ATOM     12  F   UNL     1       5.377   5.128  14.178  0.00  0.00    +0.000 F 
ENDBRANCH   1  10
BRANCH   6  13
ATOM     13  C   UNL     1       3.017   6.592  18.315  0.00  0.00    +0.000 C 
BRANCH  13  14
ATOM     14  O   UNL     1       2.705   6.166  19.637  0.00  0.00    +0.000 OA
BRANCH  14  15
ATOM     15  C   UNL     1       2.151   4.918  19.740  0.00  0.00    +0.000 A 
ATOM     16  C   UNL     1       2.134   4.376  21.028  0.00  0.00    +0.000 A 
ATOM     17  C   UNL     1       1.579   3.116  21.261  0.00  0.00    +0.000 A 
ATOM     18  C   UNL     1       1.021   2.397  20.206  0.00  0.00    +0.000 A 
ATOM     19  C   UNL     1       1.016   2.942  18.923  0.00  0.00    +0.000 A 
ATOM     20  C   UNL     1       1.578   4.201  18.688  0.00  0.00    +0.000 A 
ENDBRANCH  14  15
ENDBRANCH  13  14
ENDBRANCH   6  13
TORSDOF 4
ENDMDL
MODEL 4
REMARK VINA RESULT:      -7.5      2.019      2.344
REMARK  Name = 
REMARK  4 active torsions:
REMARK  status: ('A' for Active; 'I' for Inactive)
REMARK    1  A    between atoms: C_2  and  C_5
REMARK    2  A    between atoms: C_10  and  C_11
REMARK    3  A    between atoms: C_11  and  O_12
REMARK    4  A    between atoms: O_12  and  C_13
REMARK                            x       y       z     vdW  Elec       q    Type
REMARK                         _______ _______ _______ _____ _____    ______ ____
ROOT
ATOM      1  C   UNL     1       6.809   4.609  13.834  0.00  0.00    +0.000 A 
ATOM      2  N   UNL     1       7.805   5.430  14.162  0.00  0.00    +0.000 NA
ATOM      3  N   UNL     1       7.634   5.824  15.484  0.00  0.00    +0.000 NA
ATOM      4  C   UNL     1       6.553   5.225  15.888  0.00  0.00    +0.000 A 
ATOM      5  S   UNL     1       5.625   5.145  17.317  0.00  0.00    +0.000 S 
ATOM      6  C   UNL     1       4.525   4.076  16.400  0.00  0.00    +0.000 A 
ATOM      7  N   UNL     1       4.833   3.803  15.157  0.00  0.00    +0.000 NA
ATOM      8  N   UNL     1       5.991   4.472  14.913  0.00  0.00    +0.000 N 
ENDROOT
BRANCH   1  10
ATOM      9  F   UNL     1       7.221   4.461  11.523  0.00  0.00    +0.000 F 
ATOM     10  C   UNL     1       6.540   3.920  12.567  0.00  0.00    +0.000 C 
ATOM     11  F   UNL     1       5.223   3.965  12.229  0.00  0.00    +0.000 F 
ATOM     12  F   UNL     1       6.889   2.608  12.613  0.00  0.00    +0.000 F 
ENDBRANCH   1  10
BRANCH   6  13
ATOM     13  C   UNL     1       3.310   3.550  17.122  0.00  0.00    +0.000 C 
BRANCH  13  14
ATOM     14  O   UNL     1       3.773   2.775  18.223  0.00  0.00    +0.000 OA
BRANCH  14  15
ATOM     15  C   UNL     1       2.995   2.824  19.349  0.00  0.00    +0.000 A 
ATOM     16  C   UNL     1       1.648   3.124  19.132  0.00  0.00    +0.000 A 
ATOM     17  C   UNL     1       0.754   3.186  20.202  0.00  0.00    +0.000 A 
ATOM     18  C   UNL     1       1.201   2.932  21.497  0.00  0.00    +0.000 A 
ATOM     19  C   UNL     1       2.540   2.613  21.717  0.00  0.00    +0.000 A 
ATOM     20  C   UNL     1       3.437   2.557  20.646  0.00  0.00    +0.000 A 
ENDBRANCH  14  15
ENDBRANCH  13  14
ENDBRANCH   6  13
TORSDOF 4
ENDMDL
MODEL 5
REMARK VINA RESULT:      -7.4      2.084      2.383
REMARK  Name = 
REMARK  4 active torsions:
REMARK  status: ('A' for Active; 'I' for Inactive)
REMARK    1  A    between atoms: C_2  and  C_5
REMARK    2  A    between atoms: C_10  and  C_11
REMARK    3  A    between atoms: C_11  and  O_12
REMARK    4  A    between atoms: O_12  and  C_13
REMARK                            x       y       z     vdW  Elec       q    Type
REMARK                         _______ _______ _______ _____ _____    ______ ____
ROOT
ATOM      1  C   UNL     1       6.829   4.534  13.655  0.00  0.00    +0.000 A 
ATOM      2  N   UNL     1       7.848   5.349  13.917  0.00  0.00    +0.000 NA
ATOM      3  N   UNL     1       7.764   5.747  15.246  0.00  0.00    +0.000 NA
ATOM      4  C   UNL     1       6.709   5.153  15.720  0.00  0.00    +0.000 A 
ATOM      5  S   UNL     1       5.874   5.081  17.206  0.00  0.00    +0.000 S 
ATOM      6  C   UNL     1       4.712   4.017  16.364  0.00  0.00    +0.000 A 
ATOM      7  N   UNL     1       4.938   3.740  15.104  0.00  0.00    +0.000 NA
ATOM      8  N   UNL     1       6.081   4.402  14.785  0.00  0.00    +0.000 N 
ENDROOT
BRANCH   1  10
ATOM      9  F   UNL     1       7.124   4.352  11.329  0.00  0.00    +0.000 F 
ATOM     10  C   UNL     1       6.476   3.844  12.409  0.00  0.00    +0.000 C 
ATOM     11  F   UNL     1       5.146   3.932  12.135  0.00  0.00    +0.000 F 
ATOM     12  F   UNL     1       6.780   2.521  12.452  0.00  0.00    +0.000 F 
ENDBRANCH   1  10
BRANCH   6  13
ATOM     13  C   UNL     1       3.543   3.498  17.163  0.00  0.00    +0.000 C 
BRANCH  13  14
ATOM     14  O   UNL     1       4.001   3.282  18.493  0.00  0.00    +0.000 OA
BRANCH  14  15
ATOM     15  C   UNL     1       3.023   3.204  19.449  0.00  0.00    +0.000 A 
ATOM     16  C   UNL     1       3.404   2.593  20.646  0.00  0.00    +0.000 A 
ATOM     17  C   UNL     1       2.498   2.470  21.701  0.00  0.00    +0.000 A 
ATOM     18  C   UNL     1       1.206   2.976  21.569  0.00  0.00    +0.000 A 
ATOM     19  C   UNL     1       0.827   3.605  20.385  0.00  0.00    +0.000 A 
ATOM     20  C   UNL     1       1.732   3.722  19.326  0.00  0.00    +0.000 A 
ENDBRANCH  14  15
ENDBRANCH  13  14
ENDBRANCH   6  13
TORSDOF 4
ENDMDL
MODEL 6
REMARK VINA RESULT:      -7.4      6.262      7.768
REMARK  Name = 
REMARK  4 active torsions:
REMARK  status: ('A' for Active; 'I' for Inactive)
REMARK    1  A    between atoms: C_2  and  C_5
REMARK    2  A    between atoms: C_10  and  C_11
REMARK    3  A    between atoms: C_11  and  O_12
REMARK    4  A    between atoms: O_12  and  C_13
REMARK                            x       y       z     vdW  Elec       q    Type
REMARK                         _______ _______ _______ _____ _____    ______ ____
ROOT
ATOM      1  C   UNL     1      -0.076  10.282  21.397  0.00  0.00    +0.000 A 
ATOM      2  N   UNL     1      -0.471  11.465  20.932  0.00  0.00    +0.000 NA
ATOM      3  N   UNL     1       0.008  11.610  19.635  0.00  0.00    +0.000 NA
ATOM      4  C   UNL     1       0.662  10.515  19.381  0.00  0.00    +0.000 A 
ATOM      5  S   UNL     1       1.553   9.861  18.082  0.00  0.00    +0.000 S 
ATOM      6  C   UNL     1       1.851   8.460  19.150  0.00  0.00    +0.000 A 
ATOM      7  N   UNL     1       1.326   8.482  20.349  0.00  0.00    +0.000 NA
ATOM      8  N   UNL     1       0.658   9.663  20.433  0.00  0.00    +0.000 N 
ENDROOT
BRANCH   1  10
ATOM      9  F   UNL     1       0.817   9.433  23.401  0.00  0.00    +0.000 F 
ATOM     10  C   UNL     1      -0.325   9.657  22.701  0.00  0.00    +0.000 C 
ATOM     11  F   UNL     1      -0.942   8.450  22.579  0.00  0.00    +0.000 F 
ATOM     12  F   UNL     1      -1.118  10.424  23.494  0.00  0.00    +0.000 F 
ENDBRANCH   1  10
BRANCH   6  13
ATOM     13  C   UNL     1       2.688   7.334  18.597  0.00  0.00    +0.000 C 
BRANCH  13  14
ATOM     14  O   UNL     1       2.896   6.402  19.653  0.00  0.00    +0.000 OA
BRANCH  14  15
ATOM     15  C   UNL     1       2.259   5.197  19.512  0.00  0.00    +0.000 A 
ATOM     16  C   UNL     1       1.785   4.629  20.696  0.00  0.00    +0.000 A 
ATOM     17  C   UNL     1       1.104   3.410  20.676  0.00  0.00    +0.000 A 
ATOM     18  C   UNL     1       0.880   2.759  19.465  0.00  0.00    +0.000 A 
ATOM     19  C   UNL     1       1.333   3.332  18.278  0.00  0.00    +0.000 A 
ATOM     20  C   UNL     1       2.021   4.549  18.298  0.00  0.00    +0.000 A 
ENDBRANCH  14  15
ENDBRANCH  13  14
ENDBRANCH   6  13
TORSDOF 4
ENDMDL
MODEL 7
REMARK VINA RESULT:      -7.4      1.897      2.647
REMARK  Name = 
REMARK  4 active torsions:
REMARK  status: ('A' for Active; 'I' for Inactive)
REMARK    1  A    between atoms: C_2  and  C_5
REMARK    2  A    between atoms: C_10  and  C_11
REMARK    3  A    between atoms: C_11  and  O_12
REMARK    4  A    between atoms: O_12  and  C_13
REMARK                            x       y       z     vdW  Elec       q    Type
REMARK                         _______ _______ _______ _____ _____    ______ ____
ROOT
ATOM      1  C   UNL     1       6.718   4.466  13.737  0.00  0.00    +0.000 A 
ATOM      2  N   UNL     1       7.653   5.394  13.931  0.00  0.00    +0.000 NA
ATOM      3  N   UNL     1       7.664   5.734  15.279  0.00  0.00    +0.000 NA
ATOM      4  C   UNL     1       6.744   4.998  15.830  0.00  0.00    +0.000 A 
ATOM      5  S   UNL     1       6.087   4.773  17.388  0.00  0.00    +0.000 S 
ATOM      6  C   UNL     1       4.979   3.600  16.620  0.00  0.00    +0.000 A 
ATOM      7  N   UNL     1       5.102   3.396  15.332  0.00  0.00    +0.000 NA
ATOM      8  N   UNL     1       6.117   4.206  14.930  0.00  0.00    +0.000 N 
ENDROOT
BRANCH   1  10
ATOM      9  F   UNL     1       4.999   3.924  12.226  0.00  0.00    +0.000 F 
ATOM     10  C   UNL     1       6.321   3.779  12.503  0.00  0.00    +0.000 C 
ATOM     11  F   UNL     1       6.554   2.440  12.565  0.00  0.00    +0.000 F 
ATOM     12  F   UNL     1       6.993   4.245  11.418  0.00  0.00    +0.000 F 
ENDBRANCH   1  10
BRANCH   6  13
ATOM     13  C   UNL     1       3.973   2.913  17.509  0.00  0.00    +0.000 C 
BRANCH  13  14
ATOM     14  O   UNL     1       2.746   3.624  17.389  0.00  0.00    +0.000 OA
BRANCH  14  15
ATOM     15  C   UNL     1       2.316   4.256  18.525  0.00  0.00    +0.000 A 
ATOM     16  C   UNL     1       2.690   5.597  18.642  0.00  0.00    +0.000 A 
ATOM     17  C   UNL     1       2.296   6.350  19.749  0.00  0.00    +0.000 A 
ATOM     18  C   UNL     1       1.509   5.769  20.741  0.00  0.00    +0.000 A 
ATOM     19  C   UNL     1       1.115   4.437  20.619  0.00  0.00    +0.000 A 
ATOM     20  C   UNL     1       1.515   3.680  19.514  0.00  0.00    +0.000 A 
ENDBRANCH  14  15
ENDBRANCH  13  14
ENDBRANCH   6  13
TORSDOF 4
ENDMDL
MODEL 8
REMARK VINA RESULT:      -7.3      2.117      2.567
REMARK  Name = 
REMARK  4 active torsions:
REMARK  status: ('A' for Active; 'I' for Inactive)
REMARK    1  A    between atoms: C_2  and  C_5
REMARK    2  A    between atoms: C_10  and  C_11
REMARK    3  A    between atoms: C_11  and  O_12
REMARK    4  A    between atoms: O_12  and  C_13
REMARK                            x       y       z     vdW  Elec       q    Type
REMARK                         _______ _______ _______ _____ _____    ______ ____
ROOT
ATOM      1  C   UNL     1       6.741   4.384  13.609  0.00  0.00    +0.000 A 
ATOM      2  N   UNL     1       7.764   5.220  13.774  0.00  0.00    +0.000 NA
ATOM      3  N   UNL     1       7.729   5.708  15.075  0.00  0.00    +0.000 NA
ATOM      4  C   UNL     1       6.697   5.144  15.629  0.00  0.00    +0.000 A 
ATOM      5  S   UNL     1       5.920   5.172  17.148  0.00  0.00    +0.000 S 
ATOM      6  C   UNL     1       4.734   4.046  16.427  0.00  0.00    +0.000 A 
ATOM      7  N   UNL     1       4.913   3.685  15.181  0.00  0.00    +0.000 NA
ATOM      8  N   UNL     1       6.039   4.328  14.773  0.00  0.00    +0.000 N 
ENDROOT
BRANCH   1  10
ATOM      9  F   UNL     1       6.282   2.274  12.676  0.00  0.00    +0.000 F 
ATOM     10  C   UNL     1       6.345   3.608  12.428  0.00  0.00    +0.000 C 
ATOM     11  F   UNL     1       7.218   3.765  11.396  0.00  0.00    +0.000 F 
ATOM     12  F   UNL     1       5.120   3.970  11.964  0.00  0.00    +0.000 F 
ENDBRANCH   1  10
BRANCH   6  13
ATOM     13  C   UNL     1       3.601   3.579  17.305  0.00  0.00    +0.000 C 
BRANCH  13  14
ATOM     14  O   UNL     1       4.120   3.423  18.621  0.00  0.00    +0.000 OA
BRANCH  14  15
ATOM     15  C   UNL     1       3.186   3.257  19.609  0.00  0.00    +0.000 A 
ATOM     16  C   UNL     1       1.924   3.789  19.334  0.00  0.00    +0.000 A 
ATOM     17  C   UNL     1       0.885   3.667  20.259  0.00  0.00    +0.000 A 
ATOM     18  C   UNL     1       1.100   2.994  21.460  0.00  0.00    +0.000 A 
ATOM     19  C   UNL     1       2.352   2.444  21.731  0.00  0.00    +0.000 A 
ATOM     20  C   UNL     1       3.394   2.572  20.808  0.00  0.00    +0.000 A 
ENDBRANCH  14  15
ENDBRANCH  13  14
ENDBRANCH   6  13
TORSDOF 4
ENDMDL
MODEL 9
REMARK VINA RESULT:      -7.3      6.222      7.792
REMARK  Name = 
REMARK  4 active torsions:
REMARK  status: ('A' for Active; 'I' for Inactive)
REMARK    1  A    between atoms: C_2  and  C_5
REMARK    2  A    between atoms: C_10  and  C_11
REMARK    3  A    between atoms: C_11  and  O_12
REMARK    4  A    between atoms: O_12  and  C_13
REMARK                            x       y       z     vdW  Elec       q    Type
REMARK                         _______ _______ _______ _____ _____    ______ ____
ROOT
ATOM      1  C   UNL     1      -0.042  10.250  21.376  0.00  0.00    +0.000 A 
ATOM      2  N   UNL     1      -0.429  11.416  20.863  0.00  0.00    +0.000 NA
ATOM      3  N   UNL     1       0.056  11.508  19.564  0.00  0.00    +0.000 NA
ATOM      4  C   UNL     1       0.704  10.401  19.355  0.00  0.00    +0.000 A 
ATOM      5  S   UNL     1       1.598   9.692  18.086  0.00  0.00    +0.000 S 
ATOM      6  C   UNL     1       1.883   8.331  19.209  0.00  0.00    +0.000 A 
ATOM      7  N   UNL     1       1.353   8.403  20.404  0.00  0.00    +0.000 NA
ATOM      8  N   UNL     1       0.692   9.590  20.439  0.00  0.00    +0.000 N 
ENDROOT
BRANCH   1  10
ATOM      9  F   UNL     1       0.838   9.462  23.410  0.00  0.00    +0.000 F 
ATOM     10  C   UNL     1      -0.301   9.677  22.701  0.00  0.00    +0.000 C 
ATOM     11  F   UNL     1      -0.936   8.476  22.625  0.00  0.00    +0.000 F 
ATOM     12  F   UNL     1      -1.081  10.485  23.466  0.00  0.00    +0.000 F 
ENDBRANCH   1  10
BRANCH   6  13
ATOM     13  C   UNL     1       2.716   7.180  18.703  0.00  0.00    +0.000 C 
BRANCH  13  14
ATOM     14  O   UNL     1       2.813   6.231  19.760  0.00  0.00    +0.000 OA
BRANCH  14  15
ATOM     15  C   UNL     1       2.158   5.046  19.553  0.00  0.00    +0.000 A 
ATOM     16  C   UNL     1       2.310   4.494  18.279  0.00  0.00    +0.000 A 
ATOM     17  C   UNL     1       1.702   3.279  17.955  0.00  0.00    +0.000 A 
ATOM     18  C   UNL     1       0.951   2.601  18.913  0.00  0.00    +0.000 A 
ATOM     19  C   UNL     1       0.813   3.138  20.192  0.00  0.00    +0.000 A 
ATOM     20  C   UNL     1       1.416   4.357  20.515  0.00  0.00    +0.000 A 
ENDBRANCH  14  15
ENDBRANCH  13  14
ENDBRANCH   6  13
TORSDOF 4
ENDMDL
