MODEL 1
REMARK VINA RESULT:      -8.8      0.000      0.000
REMARK  Name = 
REMARK  7 active torsions:
REMARK  status: ('A' for Active; 'I' for Inactive)
REMARK    1  A    between atoms: C_1  and  C_2
REMARK    2  A    between atoms: C_2  and  N_3
REMARK    3  A    between atoms: C_2  and  C_29
REMARK    4  A    between atoms: C_4  and  C_6
REMARK    5  A    between atoms: C_11  and  N_12
REMARK    6  A    between atoms: C_13  and  C_15
REMARK    7  A    between atoms: C_20  and  C_21
REMARK                            x       y       z     vdW  Elec       q    Type
REMARK                         _______ _______ _______ _____ _____    ______ ____
ROOT
ATOM      1  C   UNL     1       5.532   4.709  18.084  0.00  0.00    +0.000 A 
ATOM      2  N   UNL     1       6.541   4.058  18.749  0.00  0.00    +0.000 N 
ATOM      3  N   UNL     1       7.668   4.763  18.907  0.00  0.00    +0.000 NA
ATOM      4  C   UNL     1       7.399   5.958  18.361  0.00  0.00    +0.000 A 
ATOM      5  C   UNL     1       8.196   7.108  18.296  0.00  0.00    +0.000 A 
ATOM      6  C   UNL     1       7.596   8.216  17.648  0.00  0.00    +0.000 A 
ATOM      7  C   UNL     1       6.263   8.154  17.121  0.00  0.00    +0.000 A 
ATOM      8  C   UNL     1       5.434   7.009  17.172  0.00  0.00    +0.000 A 
ATOM      9  C   UNL     1       6.069   5.946  17.812  0.00  0.00    +0.000 A 
ATOM     10  H   UNL     1       6.500   3.137  19.172  0.00  0.00    +0.000 HD
ENDROOT
BRANCH   1  12
ATOM     11  N   UNL     1       3.521   3.963  19.081  0.00  0.00    +0.000 N 
ATOM     12  C   UNL     1       4.210   4.184  17.907  0.00  0.00    +0.000 C 
ATOM     13  O   UNL     1       3.676   4.041  16.813  0.00  0.00    +0.000 OA
ATOM     14  H   UNL     1       4.077   3.638  19.861  0.00  0.00    +0.000 HD
BRANCH  11  16
ATOM     15  C   UNL     1       2.084   1.993  18.932  0.00  0.00    +0.000 C 
ATOM     16  C   UNL     1       2.124   3.516  19.054  0.00  0.00    +0.000 C 
BRANCH  16  17
ATOM     17  C   UNL     1       1.291   3.904  20.306  0.00  0.00    +0.000 C 
ATOM     18  N   UNL     1       0.791   2.898  21.084  0.00  0.00    +0.000 N 
ATOM     19  O   UNL     1       1.076   5.072  20.626  0.00  0.00    +0.000 OA
ATOM     20  H   UNL     1       1.348   2.057  21.175  0.00  0.00    +0.000 HD
ATOM     21  H   UNL     1       0.368   3.214  21.947  0.00  0.00    +0.000 HD
ENDBRANCH  16  17
ENDBRANCH  11  16
ENDBRANCH   1  12
BRANCH   6  22
ATOM     22  N   UNL     1       8.286   9.449  17.512  0.00  0.00    +0.000 N 
ATOM     23  C   UNL     1       8.948  10.102  18.539  0.00  0.00    +0.000 C 
ATOM     24  O   UNL     1       9.129   9.670  19.671  0.00  0.00    +0.000 OA
ATOM     25  H   UNL     1       8.392   9.804  16.572  0.00  0.00    +0.000 HD
BRANCH  23  26
ATOM     26  C   UNL     1       9.544  11.427  18.228  0.00  0.00    +0.000 A 
ATOM     27  C   UNL     1      10.796  11.588  17.636  0.00  0.00    +0.000 A 
ATOM     28  C   UNL     1      11.236  12.874  17.306  0.00  0.00    +0.000 A 
ATOM     29  C   UNL     1      10.435  14.002  17.550  0.00  0.00    +0.000 A 
ATOM     30 CL   UNL     1      11.088  15.527  17.077  0.00  0.00    +0.000 Cl
ATOM     31  C   UNL     1       9.174  13.861  18.133  0.00  0.00    +0.000 A 
ATOM     32  C   UNL     1       8.749  12.560  18.470  0.00  0.00    +0.000 A 
BRANCH  31  33
ATOM     33  C   UNL     1       8.207  14.982  18.414  0.00  0.00    +0.000 C 
ATOM     34  F   UNL     1       8.487  15.771  19.481  0.00  0.00    +0.000 F 
ATOM     35  F   UNL     1       8.099  15.832  17.352  0.00  0.00    +0.000 F 
ATOM     36  F   UNL     1       6.945  14.513  18.631  0.00  0.00    +0.000 F 
ENDBRANCH  31  33
ENDBRANCH  23  26
ENDBRANCH   6  22
TORSDOF 6
ENDMDL
MODEL 2
REMARK VINA RESULT:      -8.5      8.562     11.115
REMARK  Name = 
REMARK  7 active torsions:
REMARK  status: ('A' for Active; 'I' for Inactive)
REMARK    1  A    between atoms: C_1  and  C_2
REMARK    2  A    between atoms: C_2  and  N_3
REMARK    3  A    between atoms: C_2  and  C_29
REMARK    4  A    between atoms: C_4  and  C_6
REMARK    5  A    between atoms: C_11  and  N_12
REMARK    6  A    between atoms: C_13  and  C_15
REMARK    7  A    between atoms: C_20  and  C_21
REMARK                            x       y       z     vdW  Elec       q    Type
REMARK                         _______ _______ _______ _____ _____    ______ ____
ROOT
ATOM      1  C   UNL     1      -1.040  13.005  22.343  0.00  0.00    +0.000 A 
ATOM      2  N   UNL     1      -0.396  13.675  21.333  0.00  0.00    +0.000 N 
ATOM      3  N   UNL     1       0.482  12.946  20.633  0.00  0.00    +0.000 NA
ATOM      4  C   UNL     1       0.401  11.717  21.165  0.00  0.00    +0.000 A 
ATOM      5  C   UNL     1       1.054  10.537  20.785  0.00  0.00    +0.000 A 
ATOM      6  C   UNL     1       0.732   9.398  21.565  0.00  0.00    +0.000 A 
ATOM      7  C   UNL     1      -0.210   9.462  22.645  0.00  0.00    +0.000 A 
ATOM      8  C   UNL     1      -0.885  10.637  23.051  0.00  0.00    +0.000 A 
ATOM      9  C   UNL     1      -0.532  11.729  22.261  0.00  0.00    +0.000 A 
ATOM     10  H   UNL     1      -0.556  14.631  21.035  0.00  0.00    +0.000 HD
ENDROOT
BRANCH   1  12
ATOM     11  N   UNL     1      -3.357  13.409  22.598  0.00  0.00    +0.000 N 
ATOM     12  C   UNL     1      -2.096  13.560  23.137  0.00  0.00    +0.000 C 
ATOM     13  O   UNL     1      -1.929  14.034  24.255  0.00  0.00    +0.000 OA
ATOM     14  H   UNL     1      -3.414  13.477  21.590  0.00  0.00    +0.000 HD
BRANCH  11  16
ATOM     15  C   UNL     1      -5.416  14.714  22.437  0.00  0.00    +0.000 C 
ATOM     16  C   UNL     1      -4.544  13.844  23.342  0.00  0.00    +0.000 C 
BRANCH  16  17
ATOM     17  C   UNL     1      -5.436  12.692  23.879  0.00  0.00    +0.000 C 
ATOM     18  N   UNL     1      -5.038  12.045  25.014  0.00  0.00    +0.000 N 
ATOM     19  O   UNL     1      -6.483  12.351  23.330  0.00  0.00    +0.000 OA
ATOM     20  H   UNL     1      -4.560  12.591  25.721  0.00  0.00    +0.000 HD
ATOM     21  H   UNL     1      -5.720  11.393  25.380  0.00  0.00    +0.000 HD
ENDBRANCH  16  17
ENDBRANCH  11  16
ENDBRANCH   1  12
BRANCH   6  22
ATOM     22  N   UNL     1       1.315   8.134  21.292  0.00  0.00    +0.000 N 
ATOM     23  C   UNL     1       1.784   7.730  20.052  0.00  0.00    +0.000 C 
ATOM     24  O   UNL     1       1.865   8.428  19.049  0.00  0.00    +0.000 OA
ATOM     25  H   UNL     1       1.502   7.543  22.090  0.00  0.00    +0.000 HD
BRANCH  23  26
ATOM     26  C   UNL     1       2.288   6.337  19.938  0.00  0.00    +0.000 A 
ATOM     27  C   UNL     1       1.918   5.312  20.807  0.00  0.00    +0.000 A 
ATOM     28  C   UNL     1       2.381   4.013  20.569  0.00  0.00    +0.000 A 
ATOM     29  C   UNL     1       3.201   3.724  19.464  0.00  0.00    +0.000 A 
ATOM     30 CL   UNL     1       3.684   2.079  19.274  0.00  0.00    +0.000 Cl
ATOM     31  C   UNL     1       3.573   4.735  18.576  0.00  0.00    +0.000 A 
ATOM     32  C   UNL     1       3.108   6.040  18.836  0.00  0.00    +0.000 A 
BRANCH  31  33
ATOM     33  C   UNL     1       4.415   4.551  17.340  0.00  0.00    +0.000 C 
ATOM     34  F   UNL     1       5.661   4.048  17.525  0.00  0.00    +0.000 F 
ATOM     35  F   UNL     1       3.815   3.716  16.443  0.00  0.00    +0.000 F 
ATOM     36  F   UNL     1       4.593   5.728  16.675  0.00  0.00    +0.000 F 
ENDBRANCH  31  33
ENDBRANCH  23  26
ENDBRANCH   6  22
TORSDOF 6
ENDMDL
MODEL 3
REMARK VINA RESULT:      -8.4      7.810      9.075
REMARK  Name = 
REMARK  7 active torsions:
REMARK  status: ('A' for Active; 'I' for Inactive)
REMARK    1  A    between atoms: C_1  and  C_2
REMARK    2  A    between atoms: C_2  and  N_3
REMARK    3  A    between atoms: C_2  and  C_29
REMARK    4  A    between atoms: C_4  and  C_6
REMARK    5  A    between atoms: C_11  and  N_12
REMARK    6  A    between atoms: C_13  and  C_15
REMARK    7  A    between atoms: C_20  and  C_21
REMARK                            x       y       z     vdW  Elec       q    Type
REMARK                         _______ _______ _______ _____ _____    ______ ____
ROOT
ATOM      1  C   UNL     1       2.798   6.760  18.950  0.00  0.00    +0.000 A 
ATOM      2  N   UNL     1       3.050   7.294  17.712  0.00  0.00    +0.000 N 
ATOM      3  N   UNL     1       2.482   8.484  17.476  0.00  0.00    +0.000 NA
ATOM      4  C   UNL     1       1.849   8.788  18.619  0.00  0.00    +0.000 A 
ATOM      5  C   UNL     1       1.136   9.944  18.962  0.00  0.00    +0.000 A 
ATOM      6  C   UNL     1       0.593   9.945  20.271  0.00  0.00    +0.000 A 
ATOM      7  C   UNL     1       0.787   8.845  21.172  0.00  0.00    +0.000 A 
ATOM      8  C   UNL     1       1.502   7.667  20.855  0.00  0.00    +0.000 A 
ATOM      9  C   UNL     1       2.010   7.710  19.558  0.00  0.00    +0.000 A 
ATOM     10  H   UNL     1       3.656   6.913  16.993  0.00  0.00    +0.000 HD
ENDROOT
BRANCH   1  12
ATOM     11  N   UNL     1       2.508   4.532  19.689  0.00  0.00    +0.000 N 
ATOM     12  C   UNL     1       3.398   5.558  19.449  0.00  0.00    +0.000 C 
ATOM     13  O   UNL     1       4.609   5.395  19.554  0.00  0.00    +0.000 OA
ATOM     14  H   UNL     1       1.603   4.811  20.043  0.00  0.00    +0.000 HD
BRANCH  11  16
ATOM     15  C   UNL     1       2.284   2.810  21.408  0.00  0.00    +0.000 C 
ATOM     16  C   UNL     1       2.988   3.211  20.112  0.00  0.00    +0.000 C 
BRANCH  16  17
ATOM     17  C   UNL     1       2.754   2.072  19.083  0.00  0.00    +0.000 C 
ATOM     18  N   UNL     1       1.472   1.811  18.692  0.00  0.00    +0.000 N 
ATOM     19  O   UNL     1       3.674   1.410  18.604  0.00  0.00    +0.000 OA
ATOM     20  H   UNL     1       0.834   2.595  18.625  0.00  0.00    +0.000 HD
ATOM     21  H   UNL     1       1.398   1.147  17.932  0.00  0.00    +0.000 HD
ENDBRANCH  16  17
ENDBRANCH  11  16
ENDBRANCH   1  12
BRANCH   6  22
ATOM     22  N   UNL     1      -0.150  11.052  20.756  0.00  0.00    +0.000 N 
ATOM     23  C   UNL     1       0.405  12.219  21.257  0.00  0.00    +0.000 C 
ATOM     24  O   UNL     1       1.594  12.511  21.256  0.00  0.00    +0.000 OA
ATOM     25  H   UNL     1      -1.150  11.020  20.612  0.00  0.00    +0.000 HD
BRANCH  23  26
ATOM     26  C   UNL     1      -0.532  13.238  21.797  0.00  0.00    +0.000 A 
ATOM     27  C   UNL     1      -0.486  14.587  21.449  0.00  0.00    +0.000 A 
ATOM     28  C   UNL     1      -1.463  15.455  21.947  0.00  0.00    +0.000 A 
ATOM     29  C   UNL     1      -2.494  14.990  22.781  0.00  0.00    +0.000 A 
ATOM     30 CL   UNL     1      -3.646  16.160  23.309  0.00  0.00    +0.000 Cl
ATOM     31  C   UNL     1      -2.564  13.640  23.133  0.00  0.00    +0.000 A 
ATOM     32  C   UNL     1      -1.565  12.780  22.632  0.00  0.00    +0.000 A 
BRANCH  31  33
ATOM     33  C   UNL     1      -3.633  13.010  23.987  0.00  0.00    +0.000 C 
ATOM     34  F   UNL     1      -3.751  13.479  25.255  0.00  0.00    +0.000 F 
ATOM     35  F   UNL     1      -4.871  13.152  23.430  0.00  0.00    +0.000 F 
ATOM     36  F   UNL     1      -3.446  11.665  24.113  0.00  0.00    +0.000 F 
ENDBRANCH  31  33
ENDBRANCH  23  26
ENDBRANCH   6  22
TORSDOF 6
ENDMDL
MODEL 4
REMARK VINA RESULT:      -8.4      6.134      8.286
REMARK  Name = 
REMARK  7 active torsions:
REMARK  status: ('A' for Active; 'I' for Inactive)
REMARK    1  A    between atoms: C_1  and  C_2
REMARK    2  A    between atoms: C_2  and  N_3
REMARK    3  A    between atoms: C_2  and  C_29
REMARK    4  A    between atoms: C_4  and  C_6
REMARK    5  A    between atoms: C_11  and  N_12
REMARK    6  A    between atoms: C_13  and  C_15
REMARK    7  A    between atoms: C_20  and  C_21
REMARK                            x       y       z     vdW  Elec       q    Type
REMARK                         _______ _______ _______ _____ _____    ______ ____
ROOT
ATOM      1  C   UNL     1       5.225   4.212  16.591  0.00  0.00    +0.000 A 
ATOM      2  N   UNL     1       4.481   3.196  17.135  0.00  0.00    +0.000 N 
ATOM      3  N   UNL     1       3.446   3.586  17.890  0.00  0.00    +0.000 NA
ATOM      4  C   UNL     1       3.465   4.925  17.823  0.00  0.00    +0.000 A 
ATOM      5  C   UNL     1       2.577   5.858  18.375  0.00  0.00    +0.000 A 
ATOM      6  C   UNL     1       2.888   7.213  18.102  0.00  0.00    +0.000 A 
ATOM      7  C   UNL     1       4.019   7.585  17.303  0.00  0.00    +0.000 A 
ATOM      8  C   UNL     1       4.933   6.667  16.732  0.00  0.00    +0.000 A 
ATOM      9  C   UNL     1       4.590   5.351  17.032  0.00  0.00    +0.000 A 
ATOM     10  H   UNL     1       4.600   2.200  16.981  0.00  0.00    +0.000 HD
ENDROOT
BRANCH   1  12
ATOM     11  N   UNL     1       5.904   3.878  14.350  0.00  0.00    +0.000 N 
ATOM     12  C   UNL     1       6.300   4.020  15.663  0.00  0.00    +0.000 C 
ATOM     13  O   UNL     1       7.485   4.085  15.974  0.00  0.00    +0.000 OA
ATOM     14  H   UNL     1       5.038   3.377  14.206  0.00  0.00    +0.000 HD
BRANCH  11  16
ATOM     15  C   UNL     1       6.230   3.210  12.023  0.00  0.00    +0.000 C 
ATOM     16  C   UNL     1       6.900   3.767  13.278  0.00  0.00    +0.000 C 
BRANCH  16  17
ATOM     17  C   UNL     1       7.586   5.104  12.885  0.00  0.00    +0.000 C 
ATOM     18  N   UNL     1       8.320   5.755  13.836  0.00  0.00    +0.000 N 
ATOM     19  O   UNL     1       7.502   5.588  11.757  0.00  0.00    +0.000 OA
ATOM     20  H   UNL     1       8.823   5.189  14.507  0.00  0.00    +0.000 HD
ATOM     21  H   UNL     1       8.840   6.549  13.485  0.00  0.00    +0.000 HD
ENDBRANCH  16  17
ENDBRANCH  11  16
ENDBRANCH   1  12
BRANCH   6  22
ATOM     22  N   UNL     1       2.073   8.266  18.594  0.00  0.00    +0.000 N 
ATOM     23  C   UNL     1       1.558   8.333  19.879  0.00  0.00    +0.000 C 
ATOM     24  O   UNL     1       1.810   7.565  20.799  0.00  0.00    +0.000 OA
ATOM     25  H   UNL     1       1.968   9.071  17.993  0.00  0.00    +0.000 HD
BRANCH  23  26
ATOM     26  C   UNL     1       0.655   9.472  20.189  0.00  0.00    +0.000 A 
ATOM     27  C   UNL     1       0.643  10.132  21.416  0.00  0.00    +0.000 A 
ATOM     28  C   UNL     1      -0.185  11.246  21.585  0.00  0.00    +0.000 A 
ATOM     29  C   UNL     1      -0.994  11.718  20.537  0.00  0.00    +0.000 A 
ATOM     30 CL   UNL     1      -1.951  13.113  20.871  0.00  0.00    +0.000 Cl
ATOM     31  C   UNL     1      -0.988  11.077  19.297  0.00  0.00    +0.000 A 
ATOM     32  C   UNL     1      -0.157   9.948  19.145  0.00  0.00    +0.000 A 
BRANCH  31  33
ATOM     33  C   UNL     1      -1.779  11.502  18.086  0.00  0.00    +0.000 C 
ATOM     34  F   UNL     1      -3.106  11.710  18.272  0.00  0.00    +0.000 F 
ATOM     35  F   UNL     1      -1.299  12.663  17.554  0.00  0.00    +0.000 F 
ATOM     36  F   UNL     1      -1.692  10.581  17.083  0.00  0.00    +0.000 F 
ENDBRANCH  31  33
ENDBRANCH  23  26
ENDBRANCH   6  22
TORSDOF 6
ENDMDL
MODEL 5
REMARK VINA RESULT:      -8.4      6.388      8.309
REMARK  Name = 
REMARK  7 active torsions:
REMARK  status: ('A' for Active; 'I' for Inactive)
REMARK    1  A    between atoms: C_1  and  C_2
REMARK    2  A    between atoms: C_2  and  N_3
REMARK    3  A    between atoms: C_2  and  C_29
REMARK    4  A    between atoms: C_4  and  C_6
REMARK    5  A    between atoms: C_11  and  N_12
REMARK    6  A    between atoms: C_13  and  C_15
REMARK    7  A    between atoms: C_20  and  C_21
REMARK                            x       y       z     vdW  Elec       q    Type
REMARK                         _______ _______ _______ _____ _____    ______ ____
ROOT
ATOM      1  C   UNL     1       5.277   3.993  16.631  0.00  0.00    +0.000 A 
ATOM      2  N   UNL     1       4.539   2.921  17.066  0.00  0.00    +0.000 N 
ATOM      3  N   UNL     1       3.506   3.224  17.863  0.00  0.00    +0.000 NA
ATOM      4  C   UNL     1       3.521   4.563  17.939  0.00  0.00    +0.000 A 
ATOM      5  C   UNL     1       2.632   5.427  18.591  0.00  0.00    +0.000 A 
ATOM      6  C   UNL     1       2.937   6.806  18.464  0.00  0.00    +0.000 A 
ATOM      7  C   UNL     1       4.063   7.265  17.704  0.00  0.00    +0.000 A 
ATOM      8  C   UNL     1       4.977   6.417  17.034  0.00  0.00    +0.000 A 
ATOM      9  C   UNL     1       4.640   5.075  17.193  0.00  0.00    +0.000 A 
ATOM     10  H   UNL     1       4.661   1.948  16.805  0.00  0.00    +0.000 HD
ENDROOT
BRANCH   1  12
ATOM     11  N   UNL     1       5.944   3.791  14.370  0.00  0.00    +0.000 N 
ATOM     12  C   UNL     1       6.349   3.905  15.684  0.00  0.00    +0.000 C 
ATOM     13  O   UNL     1       7.532   4.031  15.982  0.00  0.00    +0.000 OA
ATOM     14  H   UNL     1       5.108   3.243  14.216  0.00  0.00    +0.000 HD
BRANCH  11  16
ATOM     15  C   UNL     1       6.267   3.272  12.005  0.00  0.00    +0.000 C 
ATOM     16  C   UNL     1       6.929   3.785  13.283  0.00  0.00    +0.000 C 
BRANCH  16  17
ATOM     17  C   UNL     1       7.552   5.171  12.961  0.00  0.00    +0.000 C 
ATOM     18  N   UNL     1       8.206   5.831  13.962  0.00  0.00    +0.000 N 
ATOM     19  O   UNL     1       7.487   5.685  11.845  0.00  0.00    +0.000 OA
ATOM     20  H   UNL     1       8.713   5.273  14.637  0.00  0.00    +0.000 HD
ATOM     21  H   UNL     1       8.694   6.664  13.658  0.00  0.00    +0.000 HD
ENDBRANCH  16  17
ENDBRANCH  11  16
ENDBRANCH   1  12
BRANCH   6  22
ATOM     22  N   UNL     1       2.121   7.797  19.069  0.00  0.00    +0.000 N 
ATOM     23  C   UNL     1       1.754   8.992  18.472  0.00  0.00    +0.000 C 
ATOM     24  O   UNL     1       1.982   9.320  17.314  0.00  0.00    +0.000 OA
ATOM     25  H   UNL     1       1.690   7.548  19.949  0.00  0.00    +0.000 HD
BRANCH  23  26
ATOM     26  C   UNL     1       0.962   9.945  19.293  0.00  0.00    +0.000 A 
ATOM     27  C   UNL     1       0.478  11.158  18.809  0.00  0.00    +0.000 A 
ATOM     28  C   UNL     1      -0.329  11.950  19.633  0.00  0.00    +0.000 A 
ATOM     29  C   UNL     1      -0.667  11.538  20.933  0.00  0.00    +0.000 A 
ATOM     30 CL   UNL     1      -1.685  12.598  21.837  0.00  0.00    +0.000 Cl
ATOM     31  C   UNL     1      -0.201  10.321  21.433  0.00  0.00    +0.000 A 
ATOM     32  C   UNL     1       0.620   9.539  20.594  0.00  0.00    +0.000 A 
BRANCH  31  33
ATOM     33  C   UNL     1      -0.519   9.750  22.791  0.00  0.00    +0.000 C 
ATOM     34  F   UNL     1       0.510   9.674  23.672  0.00  0.00    +0.000 F 
ATOM     35  F   UNL     1      -1.489  10.470  23.425  0.00  0.00    +0.000 F 
ATOM     36  F   UNL     1      -1.012   8.481  22.698  0.00  0.00    +0.000 F 
ENDBRANCH  31  33
ENDBRANCH  23  26
ENDBRANCH   6  22
TORSDOF 6
ENDMDL
MODEL 6
REMARK VINA RESULT:      -8.4      8.606     11.116
REMARK  Name = 
REMARK  7 active torsions:
REMARK  status: ('A' for Active; 'I' for Inactive)
REMARK    1  A    between atoms: C_1  and  C_2
REMARK    2  A    between atoms: C_2  and  N_3
REMARK    3  A    between atoms: C_2  and  C_29
REMARK    4  A    between atoms: C_4  and  C_6
REMARK    5  A    between atoms: C_11  and  N_12
REMARK    6  A    between atoms: C_13  and  C_15
REMARK    7  A    between atoms: C_20  and  C_21
REMARK                            x       y       z     vdW  Elec       q    Type
REMARK                         _______ _______ _______ _____ _____    ______ ____
ROOT
ATOM      1  C   UNL     1      -0.403  12.581  21.439  0.00  0.00    +0.000 A 
ATOM      2  N   UNL     1      -0.231  13.203  20.229  0.00  0.00    +0.000 N 
ATOM      3  N   UNL     1       0.342  12.454  19.278  0.00  0.00    +0.000 NA
ATOM      4  C   UNL     1       0.530  11.259  19.857  0.00  0.00    +0.000 A 
ATOM      5  C   UNL     1       1.040  10.075  19.310  0.00  0.00    +0.000 A 
ATOM      6  C   UNL     1       1.097   8.978  20.206  0.00  0.00    +0.000 A 
ATOM      7  C   UNL     1       0.643   9.085  21.563  0.00  0.00    +0.000 A 
ATOM      8  C   UNL     1       0.123  10.266  22.143  0.00  0.00    +0.000 A 
ATOM      9  C   UNL     1       0.093  11.315  21.227  0.00  0.00    +0.000 A 
ATOM     10  H   UNL     1      -0.537  14.135  19.971  0.00  0.00    +0.000 HD
ENDROOT
BRANCH   1  12
ATOM     11  N   UNL     1      -2.471  13.096  22.466  0.00  0.00    +0.000 N 
ATOM     12  C   UNL     1      -1.096  13.159  22.553  0.00  0.00    +0.000 C 
ATOM     13  O   UNL     1      -0.535  13.576  23.560  0.00  0.00    +0.000 OA
ATOM     14  H   UNL     1      -2.856  13.209  21.538  0.00  0.00    +0.000 HD
BRANCH  11  16
ATOM     15  C   UNL     1      -3.742  15.005  23.309  0.00  0.00    +0.000 C 
ATOM     16  C   UNL     1      -3.311  13.563  23.575  0.00  0.00    +0.000 C 
BRANCH  16  17
ATOM     17  C   UNL     1      -4.599  12.728  23.812  0.00  0.00    +0.000 C 
ATOM     18  N   UNL     1      -4.823  12.234  25.066  0.00  0.00    +0.000 N 
ATOM     19  O   UNL     1      -5.422  12.508  22.925  0.00  0.00    +0.000 OA
ATOM     20  H   UNL     1      -4.516  12.794  25.852  0.00  0.00    +0.000 HD
ATOM     21  H   UNL     1      -5.734  11.809  25.186  0.00  0.00    +0.000 HD
ENDBRANCH  16  17
ENDBRANCH  11  16
ENDBRANCH   1  12
BRANCH   6  22
ATOM     22  N   UNL     1       1.588   7.714  19.789  0.00  0.00    +0.000 N 
ATOM     23  C   UNL     1       2.374   7.502  18.667  0.00  0.00    +0.000 C 
ATOM     24  O   UNL     1       2.845   8.368  17.942  0.00  0.00    +0.000 OA
ATOM     25  H   UNL     1       1.445   6.943  20.426  0.00  0.00    +0.000 HD
BRANCH  23  26
ATOM     26  C   UNL     1       2.725   6.095  18.341  0.00  0.00    +0.000 A 
ATOM     27  C   UNL     1       3.849   5.734  17.602  0.00  0.00    +0.000 A 
ATOM     28  C   UNL     1       4.140   4.379  17.417  0.00  0.00    +0.000 A 
ATOM     29  C   UNL     1       3.326   3.377  17.973  0.00  0.00    +0.000 A 
ATOM     30 CL   UNL     1       3.808   1.746  17.687  0.00  0.00    +0.000 Cl
ATOM     31  C   UNL     1       2.201   3.718  18.726  0.00  0.00    +0.000 A 
ATOM     32  C   UNL     1       1.914   5.088  18.894  0.00  0.00    +0.000 A 
BRANCH  31  33
ATOM     33  C   UNL     1       1.269   2.745  19.402  0.00  0.00    +0.000 C 
ATOM     34  F   UNL     1       0.594   3.205  20.485  0.00  0.00    +0.000 F 
ATOM     35  F   UNL     1       0.313   2.285  18.544  0.00  0.00    +0.000 F 
ATOM     36  F   UNL     1       1.933   1.634  19.833  0.00  0.00    +0.000 F 
ENDBRANCH  31  33
ENDBRANCH  23  26
ENDBRANCH   6  22
TORSDOF 6
ENDMDL
MODEL 7
REMARK VINA RESULT:      -8.3      8.802     11.375
REMARK  Name = 
REMARK  7 active torsions:
REMARK  status: ('A' for Active; 'I' for Inactive)
REMARK    1  A    between atoms: C_1  and  C_2
REMARK    2  A    between atoms: C_2  and  N_3
REMARK    3  A    between atoms: C_2  and  C_29
REMARK    4  A    between atoms: C_4  and  C_6
REMARK    5  A    between atoms: C_11  and  N_12
REMARK    6  A    between atoms: C_13  and  C_15
REMARK    7  A    between atoms: C_20  and  C_21
REMARK                            x       y       z     vdW  Elec       q    Type
REMARK                         _______ _______ _______ _____ _____    ______ ____
ROOT
ATOM      1  C   UNL     1      -1.465  12.384  21.457  0.00  0.00    +0.000 A 
ATOM      2  N   UNL     1      -1.483  12.725  20.129  0.00  0.00    +0.000 N 
ATOM      3  N   UNL     1      -0.806  11.902  19.318  0.00  0.00    +0.000 NA
ATOM      4  C   UNL     1      -0.341  10.939  20.127  0.00  0.00    +0.000 A 
ATOM      5  C   UNL     1       0.386   9.783  19.811  0.00  0.00    +0.000 A 
ATOM      6  C   UNL     1       0.716   8.962  20.918  0.00  0.00    +0.000 A 
ATOM      7  C   UNL     1       0.309   9.293  22.253  0.00  0.00    +0.000 A 
ATOM      8  C   UNL     1      -0.425  10.450  22.604  0.00  0.00    +0.000 A 
ATOM      9  C   UNL     1      -0.719  11.227  21.485  0.00  0.00    +0.000 A 
ATOM     10  H   UNL     1      -1.993  13.491  19.701  0.00  0.00    +0.000 HD
ENDROOT
BRANCH   1  12
ATOM     11  N   UNL     1      -3.550  13.239  22.177  0.00  0.00    +0.000 N 
ATOM     12  C   UNL     1      -2.216  13.058  22.475  0.00  0.00    +0.000 C 
ATOM     13  O   UNL     1      -1.757  13.357  23.573  0.00  0.00    +0.000 OA
ATOM     14  H   UNL     1      -3.759  13.430  21.206  0.00  0.00    +0.000 HD
BRANCH  11  16
ATOM     15  C   UNL     1      -5.498  14.689  22.440  0.00  0.00    +0.000 C 
ATOM     16  C   UNL     1      -4.462  13.830  23.162  0.00  0.00    +0.000 C 
BRANCH  16  17
ATOM     17  C   UNL     1      -5.235  12.803  24.034  0.00  0.00    +0.000 C 
ATOM     18  N   UNL     1      -4.523  11.807  24.639  0.00  0.00    +0.000 N 
ATOM     19  O   UNL     1      -6.452  12.859  24.205  0.00  0.00    +0.000 OA
ATOM     20  H   UNL     1      -3.586  12.027  24.954  0.00  0.00    +0.000 HD
ATOM     21  H   UNL     1      -5.062  11.249  25.289  0.00  0.00    +0.000 HD
ENDBRANCH  16  17
ENDBRANCH  11  16
ENDBRANCH   1  12
BRANCH   6  22
ATOM     22  N   UNL     1       1.447   7.758  20.747  0.00  0.00    +0.000 N 
ATOM     23  C   UNL     1       2.180   7.433  19.617  0.00  0.00    +0.000 C 
ATOM     24  O   UNL     1       2.395   8.165  18.660  0.00  0.00    +0.000 OA
ATOM     25  H   UNL     1       1.524   7.160  21.557  0.00  0.00    +0.000 HD
BRANCH  23  26
ATOM     26  C   UNL     1       2.814   6.089  19.584  0.00  0.00    +0.000 A 
ATOM     27  C   UNL     1       4.146   5.874  19.236  0.00  0.00    +0.000 A 
ATOM     28  C   UNL     1       4.674   4.581  19.314  0.00  0.00    +0.000 A 
ATOM     29  C   UNL     1       3.888   3.499  19.748  0.00  0.00    +0.000 A 
ATOM     30 CL   UNL     1       4.666   1.962  19.818  0.00  0.00    +0.000 Cl
ATOM     31  C   UNL     1       2.554   3.695  20.111  0.00  0.00    +0.000 A 
ATOM     32  C   UNL     1       2.034   5.002  20.016  0.00  0.00    +0.000 A 
BRANCH  31  33
ATOM     33  C   UNL     1       1.619   2.630  20.623  0.00  0.00    +0.000 C 
ATOM     34  F   UNL     1       0.328   3.000  20.817  0.00  0.00    +0.000 F 
ATOM     35  F   UNL     1       1.568   1.558  19.781  0.00  0.00    +0.000 F 
ATOM     36  F   UNL     1       2.037   2.130  21.821  0.00  0.00    +0.000 F 
ENDBRANCH  31  33
ENDBRANCH  23  26
ENDBRANCH   6  22
TORSDOF 6
ENDMDL
MODEL 8
REMARK VINA RESULT:      -8.3      8.144      9.739
REMARK  Name = 
REMARK  7 active torsions:
REMARK  status: ('A' for Active; 'I' for Inactive)
REMARK    1  A    between atoms: C_1  and  C_2
REMARK    2  A    between atoms: C_2  and  N_3
REMARK    3  A    between atoms: C_2  and  C_29
REMARK    4  A    between atoms: C_4  and  C_6
REMARK    5  A    between atoms: C_11  and  N_12
REMARK    6  A    between atoms: C_13  and  C_15
REMARK    7  A    between atoms: C_20  and  C_21
REMARK                            x       y       z     vdW  Elec       q    Type
REMARK                         _______ _______ _______ _____ _____    ______ ____
ROOT
ATOM      1  C   UNL     1       2.565   6.850  19.133  0.00  0.00    +0.000 A 
ATOM      2  N   UNL     1       2.742   7.414  17.895  0.00  0.00    +0.000 N 
ATOM      3  N   UNL     1       2.184   8.620  17.731  0.00  0.00    +0.000 NA
ATOM      4  C   UNL     1       1.638   8.904  18.923  0.00  0.00    +0.000 A 
ATOM      5  C   UNL     1       0.973  10.063  19.345  0.00  0.00    +0.000 A 
ATOM      6  C   UNL     1       0.521  10.037  20.688  0.00  0.00    +0.000 A 
ATOM      7  C   UNL     1       0.753   8.910  21.543  0.00  0.00    +0.000 A 
ATOM      8  C   UNL     1       1.421   7.727  21.147  0.00  0.00    +0.000 A 
ATOM      9  C   UNL     1       1.839   7.797  19.820  0.00  0.00    +0.000 A 
ATOM     10  H   UNL     1       3.289   7.042  17.126  0.00  0.00    +0.000 HD
ENDROOT
BRANCH   1  12
ATOM     11  N   UNL     1       2.287   4.585  19.756  0.00  0.00    +0.000 N 
ATOM     12  C   UNL     1       3.173   5.623  19.557  0.00  0.00    +0.000 C 
ATOM     13  O   UNL     1       4.385   5.456  19.634  0.00  0.00    +0.000 OA
ATOM     14  H   UNL     1       1.387   4.845  20.139  0.00  0.00    +0.000 HD
BRANCH  11  16
ATOM     15  C   UNL     1       2.063   2.760  21.364  0.00  0.00    +0.000 C 
ATOM     16  C   UNL     1       2.773   3.245  20.101  0.00  0.00    +0.000 C 
BRANCH  16  17
ATOM     17  C   UNL     1       2.553   2.169  19.002  0.00  0.00    +0.000 C 
ATOM     18  N   UNL     1       1.269   1.829  18.681  0.00  0.00    +0.000 N 
ATOM     19  O   UNL     1       3.483   1.626  18.408  0.00  0.00    +0.000 OA
ATOM     20  H   UNL     1       0.568   2.558  18.723  0.00  0.00    +0.000 HD
ATOM     21  H   UNL     1       1.191   1.220  17.877  0.00  0.00    +0.000 HD
ENDBRANCH  16  17
ENDBRANCH  11  16
ENDBRANCH   1  12
BRANCH   6  22
ATOM     22  N   UNL     1      -0.164  11.144  21.252  0.00  0.00    +0.000 N 
ATOM     23  C   UNL     1      -0.598  11.219  22.566  0.00  0.00    +0.000 C 
ATOM     24  O   UNL     1      -0.366  10.405  23.451  0.00  0.00    +0.000 OA
ATOM     25  H   UNL     1      -0.229  11.973  20.678  0.00  0.00    +0.000 HD
BRANCH  23  26
ATOM     26  C   UNL     1      -1.374  12.426  22.956  0.00  0.00    +0.000 A 
ATOM     27  C   UNL     1      -0.843  13.714  22.957  0.00  0.00    +0.000 A 
ATOM     28  C   UNL     1      -1.675  14.797  23.261  0.00  0.00    +0.000 A 
ATOM     29  C   UNL     1      -3.037  14.608  23.553  0.00  0.00    +0.000 A 
ATOM     30 CL   UNL     1      -3.956  16.028  23.891  0.00  0.00    +0.000 Cl
ATOM     31  C   UNL     1      -3.590  13.326  23.547  0.00  0.00    +0.000 A 
ATOM     32  C   UNL     1      -2.736  12.244  23.250  0.00  0.00    +0.000 A 
BRANCH  31  33
ATOM     33  C   UNL     1      -5.037  12.993  23.808  0.00  0.00    +0.000 C 
ATOM     34  F   UNL     1      -5.844  14.027  24.152  0.00  0.00    +0.000 F 
ATOM     35  F   UNL     1      -5.625  12.420  22.718  0.00  0.00    +0.000 F 
ATOM     36  F   UNL     1      -5.168  12.079  24.812  0.00  0.00    +0.000 F 
ENDBRANCH  31  33
ENDBRANCH  23  26
ENDBRANCH   6  22
TORSDOF 6
ENDMDL
MODEL 9
REMARK VINA RESULT:      -8.3      7.540      9.204
REMARK  Name = 
REMARK  7 active torsions:
REMARK  status: ('A' for Active; 'I' for Inactive)
REMARK    1  A    between atoms: C_1  and  C_2
REMARK    2  A    between atoms: C_2  and  N_3
REMARK    3  A    between atoms: C_2  and  C_29
REMARK    4  A    between atoms: C_4  and  C_6
REMARK    5  A    between atoms: C_11  and  N_12
REMARK    6  A    between atoms: C_13  and  C_15
REMARK    7  A    between atoms: C_20  and  C_21
REMARK                            x       y       z     vdW  Elec       q    Type
REMARK                         _______ _______ _______ _____ _____    ______ ____
ROOT
ATOM      1  C   UNL     1       2.927   6.108  19.069  0.00  0.00    +0.000 A 
ATOM      2  N   UNL     1       2.725   5.502  20.283  0.00  0.00    +0.000 N 
ATOM      3  N   UNL     1       2.010   6.214  21.165  0.00  0.00    +0.000 NA
ATOM      4  C   UNL     1       1.679   7.333  20.505  0.00  0.00    +0.000 A 
ATOM      5  C   UNL     1       0.884   8.410  20.920  0.00  0.00    +0.000 A 
ATOM      6  C   UNL     1       0.727   9.442  19.962  0.00  0.00    +0.000 A 
ATOM      7  C   UNL     1       1.326   9.365  18.661  0.00  0.00    +0.000 A 
ATOM      8  C   UNL     1       2.132   8.292  18.213  0.00  0.00    +0.000 A 
ATOM      9  C   UNL     1       2.263   7.307  19.190  0.00  0.00    +0.000 A 
ATOM     10  H   UNL     1       3.010   4.568  20.555  0.00  0.00    +0.000 HD
ENDROOT
BRANCH   1  12
ATOM     11  N   UNL     1       4.815   5.974  17.651  0.00  0.00    +0.000 N 
ATOM     12  C   UNL     1       3.562   5.480  17.948  0.00  0.00    +0.000 C 
ATOM     13  O   UNL     1       3.099   4.509  17.360  0.00  0.00    +0.000 OA
ATOM     14  H   UNL     1       4.938   6.968  17.790  0.00  0.00    +0.000 HD
BRANCH  11  16
ATOM     15  C   UNL     1       5.279   6.021  15.253  0.00  0.00    +0.000 C 
ATOM     16  C   UNL     1       5.625   5.366  16.589  0.00  0.00    +0.000 C 
BRANCH  16  17
ATOM     17  C   UNL     1       7.160   5.492  16.786  0.00  0.00    +0.000 C 
ATOM     18  N   UNL     1       7.858   4.373  17.141  0.00  0.00    +0.000 N 
ATOM     19  O   UNL     1       7.766   6.551  16.625  0.00  0.00    +0.000 OA
ATOM     20  H   UNL     1       7.538   3.485  16.772  0.00  0.00    +0.000 HD
ATOM     21  H   UNL     1       8.863   4.491  17.131  0.00  0.00    +0.000 HD
ENDBRANCH  16  17
ENDBRANCH  11  16
ENDBRANCH   1  12
BRANCH   6  22
ATOM     22  N   UNL     1      -0.056  10.592  20.244  0.00  0.00    +0.000 N 
ATOM     23  C   UNL     1       0.394  11.703  20.939  0.00  0.00    +0.000 C 
ATOM     24  O   UNL     1       1.542  11.905  21.313  0.00  0.00    +0.000 OA
ATOM     25  H   UNL     1      -0.962  10.638  19.800  0.00  0.00    +0.000 HD
BRANCH  23  26
ATOM     26  C   UNL     1      -0.595  12.778  21.210  0.00  0.00    +0.000 A 
ATOM     27  C   UNL     1      -0.645  13.976  20.499  0.00  0.00    +0.000 A 
ATOM     28  C   UNL     1      -1.665  14.893  20.774  0.00  0.00    +0.000 A 
ATOM     29  C   UNL     1      -2.644  14.623  21.744  0.00  0.00    +0.000 A 
ATOM     30 CL   UNL     1      -3.858  15.828  21.970  0.00  0.00    +0.000 Cl
ATOM     31  C   UNL     1      -2.619  13.424  22.460  0.00  0.00    +0.000 A 
ATOM     32  C   UNL     1      -1.578  12.515  22.180  0.00  0.00    +0.000 A 
BRANCH  31  33
ATOM     33  C   UNL     1      -3.626  13.000  23.498  0.00  0.00    +0.000 C 
ATOM     34  F   UNL     1      -4.920  12.933  23.095  0.00  0.00    +0.000 F 
ATOM     35  F   UNL     1      -3.338  11.765  24.003  0.00  0.00    +0.000 F 
ATOM     36  F   UNL     1      -3.622  13.840  24.572  0.00  0.00    +0.000 F 
ENDBRANCH  31  33
ENDBRANCH  23  26
ENDBRANCH   6  22
TORSDOF 6
ENDMDL
