MODEL 1
REMARK VINA RESULT:      -7.1      0.000      0.000
REMARK  Name = 
REMARK  16 active torsions:
REMARK  status: ('A' for Active; 'I' for Inactive)
REMARK    1  A    between atoms: C_1  and  C_2
REMARK    2  A    between atoms: C_2  and  C_3
REMARK    3  A    between atoms: C_3  and  C_4
REMARK    4  A    between atoms: C_4  and  N_5
REMARK    5  A    between atoms: N_5  and  C_6
REMARK    6  A    between atoms: N_5  and  C_10
REMARK    7  A    between atoms: C_6  and  C_7
REMARK    8  A    between atoms: C_7  and  C_8
REMARK    9  A    between atoms: C_8  and  C_9
REMARK   10  A    between atoms: C_10  and  C_11
REMARK   11  A    between atoms: C_11  and  C_12
REMARK   12  A    between atoms: C_12  and  O_13
REMARK   13  A    between atoms: O_13  and  C_14
REMARK   14  A    between atoms: C_17  and  C_18
REMARK   15  A    between atoms: C_19  and  C_20
REMARK   16  A    between atoms: N_28  and  C_29
REMARK                            x       y       z     vdW  Elec       q    Type
REMARK                         _______ _______ _______ _____ _____    ______ ____
ROOT
ATOM      1  C   UNL     1       3.474   4.745  19.398  0.00  0.00    +0.000 A 
ATOM      2  C   UNL     1       2.469   4.514  20.342  0.00  0.00    +0.000 A 
ATOM      3  C   UNL     1       1.659   5.560  20.795  0.00  0.00    +0.000 A 
ATOM      4  C   UNL     1       1.851   6.856  20.317  0.00  0.00    +0.000 A 
ATOM      5  C   UNL     1       2.841   7.084  19.351  0.00  0.00    +0.000 A 
ATOM      6  C   UNL     1       3.651   6.036  18.903  0.00  0.00    +0.000 A 
ENDROOT
BRANCH   4   7
ATOM      7  C   UNL     1       0.958   7.917  20.796  0.00  0.00    +0.000 C 
ATOM      8  C   UNL     1       1.381   8.966  21.522  0.00  0.00    +0.000 C 
BRANCH   8   9
ATOM      9  C   UNL     1       0.481  10.008  21.858  0.00  0.00    +0.000 A 
ATOM     10  N   UNL     1      -0.223  10.193  22.961  0.00  0.00    +0.000 NA
ATOM     11  C   UNL     1      -1.112  11.197  22.676  0.00  0.00    +0.000 A 
ATOM     12  C   UNL     1      -2.114  11.757  23.480  0.00  0.00    +0.000 A 
ATOM     13  C   UNL     1      -2.967  12.717  22.923  0.00  0.00    +0.000 A 
ATOM     14  C   UNL     1      -2.823  13.111  21.590  0.00  0.00    +0.000 A 
ATOM     15  C   UNL     1      -1.796  12.600  20.789  0.00  0.00    +0.000 A 
ATOM     16  C   UNL     1      -0.944  11.656  21.373  0.00  0.00    +0.000 A 
ATOM     17  N   UNL     1       0.183  10.995  20.939  0.00  0.00    +0.000 N 
ATOM     18  C   UNL     1       0.971  11.354  19.782  0.00  0.00    +0.000 C 
ENDBRANCH   8   9
ENDBRANCH   4   7
BRANCH   1  19
ATOM     19  O   UNL     1       4.325   3.794  18.897  0.00  0.00    +0.000 OA
BRANCH  19  20
ATOM     20  C   UNL     1       3.906   3.212  17.659  0.00  0.00    +0.000 C 
BRANCH  20  21
ATOM     21  C   UNL     1       4.467   4.012  16.494  0.00  0.00    +0.000 C 
BRANCH  21  22
ATOM     22  C   UNL     1       5.561   3.216  15.766  0.00  0.00    +0.000 C 
BRANCH  22  23
ATOM     23  N   UNL     1       6.776   3.991  15.404  0.00  0.00    +0.000 NA
BRANCH  23  24
ATOM     24  C   UNL     1       6.641   4.490  14.012  0.00  0.00    +0.000 C 
BRANCH  24  25
ATOM     25  C   UNL     1       6.147   3.520  12.927  0.00  0.00    +0.000 C 
BRANCH  25  27
ATOM     26  C   UNL     1       4.435   2.884  11.217  0.00  0.00    +0.000 C 
ATOM     27  C   UNL     1       4.792   3.876  12.318  0.00  0.00    +0.000 C 
ENDBRANCH  25  27
ENDBRANCH  24  25
ENDBRANCH  23  24
BRANCH  23  28
ATOM     28  C   UNL     1       6.990   5.105  16.356  0.00  0.00    +0.000 C 
BRANCH  28  29
ATOM     29  C   UNL     1       7.632   4.743  17.711  0.00  0.00    +0.000 C 
BRANCH  29  30
ATOM     30  C   UNL     1       7.410   5.780  18.814  0.00  0.00    +0.000 C 
ATOM     31  C   UNL     1       7.952   7.140  18.392  0.00  0.00    +0.000 C 
ENDBRANCH  29  30
ENDBRANCH  28  29
ENDBRANCH  23  28
ENDBRANCH  22  23
ENDBRANCH  21  22
ENDBRANCH  20  21
ENDBRANCH  19  20
ENDBRANCH   1  19
TORSDOF 13
ENDMDL
MODEL 2
REMARK VINA RESULT:      -7.1      4.784      8.299
REMARK  Name = 
REMARK  16 active torsions:
REMARK  status: ('A' for Active; 'I' for Inactive)
REMARK    1  A    between atoms: C_1  and  C_2
REMARK    2  A    between atoms: C_2  and  C_3
REMARK    3  A    between atoms: C_3  and  C_4
REMARK    4  A    between atoms: C_4  and  N_5
REMARK    5  A    between atoms: N_5  and  C_6
REMARK    6  A    between atoms: N_5  and  C_10
REMARK    7  A    between atoms: C_6  and  C_7
REMARK    8  A    between atoms: C_7  and  C_8
REMARK    9  A    between atoms: C_8  and  C_9
REMARK   10  A    between atoms: C_10  and  C_11
REMARK   11  A    between atoms: C_11  and  C_12
REMARK   12  A    between atoms: C_12  and  O_13
REMARK   13  A    between atoms: O_13  and  C_14
REMARK   14  A    between atoms: C_17  and  C_18
REMARK   15  A    between atoms: C_19  and  C_20
REMARK   16  A    between atoms: N_28  and  C_29
REMARK                            x       y       z     vdW  Elec       q    Type
REMARK                         _______ _______ _______ _____ _____    ______ ____
ROOT
ATOM      1  C   UNL     1       6.892   5.758  17.572  0.00  0.00    +0.000 A 
ATOM      2  C   UNL     1       6.617   6.948  16.891  0.00  0.00    +0.000 A 
ATOM      3  C   UNL     1       7.249   8.141  17.251  0.00  0.00    +0.000 A 
ATOM      4  C   UNL     1       8.160   8.164  18.308  0.00  0.00    +0.000 A 
ATOM      5  C   UNL     1       8.457   6.966  18.973  0.00  0.00    +0.000 A 
ATOM      6  C   UNL     1       7.819   5.775  18.612  0.00  0.00    +0.000 A 
ENDROOT
BRANCH   4   7
ATOM      7  C   UNL     1       8.824   9.431  18.632  0.00  0.00    +0.000 C 
ATOM      8  C   UNL     1       8.683  10.548  17.897  0.00  0.00    +0.000 C 
BRANCH   8   9
ATOM      9  C   UNL     1       9.269  11.763  18.331  0.00  0.00    +0.000 A 
ATOM     10  N   UNL     1      10.420  11.974  18.944  0.00  0.00    +0.000 NA
ATOM     11  C   UNL     1      10.390  13.280  19.361  0.00  0.00    +0.000 A 
ATOM     12  C   UNL     1      11.341  14.005  20.093  0.00  0.00    +0.000 A 
ATOM     13  C   UNL     1      11.034  15.313  20.484  0.00  0.00    +0.000 A 
ATOM     14  C   UNL     1       9.804  15.887  20.153  0.00  0.00    +0.000 A 
ATOM     15  C   UNL     1       8.865  15.195  19.380  0.00  0.00    +0.000 A 
ATOM     16  C   UNL     1       9.202  13.896  18.983  0.00  0.00    +0.000 A 
ATOM     17  N   UNL     1       8.586  12.955  18.189  0.00  0.00    +0.000 N 
ATOM     18  C   UNL     1       7.488  13.211  17.285  0.00  0.00    +0.000 C 
ENDBRANCH   8   9
ENDBRANCH   4   7
BRANCH   1  19
ATOM     19  O   UNL     1       6.322   4.540  17.303  0.00  0.00    +0.000 OA
BRANCH  19  20
ATOM     20  C   UNL     1       5.375   4.549  16.231  0.00  0.00    +0.000 C 
BRANCH  20  21
ATOM     21  C   UNL     1       4.255   3.561  16.521  0.00  0.00    +0.000 C 
BRANCH  21  22
ATOM     22  C   UNL     1       3.021   4.287  17.078  0.00  0.00    +0.000 C 
BRANCH  22  23
ATOM     23  N   UNL     1       2.910   4.306  18.559  0.00  0.00    +0.000 NA
BRANCH  23  24
ATOM     24  C   UNL     1       3.493   5.569  19.078  0.00  0.00    +0.000 C 
BRANCH  24  25
ATOM     25  C   UNL     1       2.643   6.850  19.021  0.00  0.00    +0.000 C 
BRANCH  25  27
ATOM     26  C   UNL     1       2.069   9.012  17.901  0.00  0.00    +0.000 C 
ATOM     27  C   UNL     1       3.007   7.811  17.891  0.00  0.00    +0.000 C 
ENDBRANCH  25  27
ENDBRANCH  24  25
ENDBRANCH  23  24
BRANCH  23  28
ATOM     28  C   UNL     1       1.499   4.152  18.981  0.00  0.00    +0.000 C 
BRANCH  28  29
ATOM     29  C   UNL     1       1.111   2.801  19.618  0.00  0.00    +0.000 C 
BRANCH  29  30
ATOM     30  C   UNL     1       1.148   2.789  21.147  0.00  0.00    +0.000 C 
ATOM     31  C   UNL     1       2.586   2.779  21.652  0.00  0.00    +0.000 C 
ENDBRANCH  29  30
ENDBRANCH  28  29
ENDBRANCH  23  28
ENDBRANCH  22  23
ENDBRANCH  21  22
ENDBRANCH  20  21
ENDBRANCH  19  20
ENDBRANCH   1  19
TORSDOF 13
ENDMDL
MODEL 3
REMARK VINA RESULT:      -7.1      0.805      3.345
REMARK  Name = 
REMARK  16 active torsions:
REMARK  status: ('A' for Active; 'I' for Inactive)
REMARK    1  A    between atoms: C_1  and  C_2
REMARK    2  A    between atoms: C_2  and  C_3
REMARK    3  A    between atoms: C_3  and  C_4
REMARK    4  A    between atoms: C_4  and  N_5
REMARK    5  A    between atoms: N_5  and  C_6
REMARK    6  A    between atoms: N_5  and  C_10
REMARK    7  A    between atoms: C_6  and  C_7
REMARK    8  A    between atoms: C_7  and  C_8
REMARK    9  A    between atoms: C_8  and  C_9
REMARK   10  A    between atoms: C_10  and  C_11
REMARK   11  A    between atoms: C_11  and  C_12
REMARK   12  A    between atoms: C_12  and  O_13
REMARK   13  A    between atoms: O_13  and  C_14
REMARK   14  A    between atoms: C_17  and  C_18
REMARK   15  A    between atoms: C_19  and  C_20
REMARK   16  A    between atoms: N_28  and  C_29
REMARK                            x       y       z     vdW  Elec       q    Type
REMARK                         _______ _______ _______ _____ _____    ______ ____
ROOT
ATOM      1  C   UNL     1       3.075   4.989  19.620  0.00  0.00    +0.000 A 
ATOM      2  C   UNL     1       2.181   4.840  20.684  0.00  0.00    +0.000 A 
ATOM      3  C   UNL     1       1.446   5.930  21.159  0.00  0.00    +0.000 A 
ATOM      4  C   UNL     1       1.603   7.190  20.581  0.00  0.00    +0.000 A 
ATOM      5  C   UNL     1       2.479   7.335  19.496  0.00  0.00    +0.000 A 
ATOM      6  C   UNL     1       3.215   6.242  19.026  0.00  0.00    +0.000 A 
ENDROOT
BRANCH   4   7
ATOM      7  C   UNL     1       0.789   8.299  21.090  0.00  0.00    +0.000 C 
ATOM      8  C   UNL     1       1.065   9.592  20.846  0.00  0.00    +0.000 C 
BRANCH   8   9
ATOM      9  C   UNL     1       0.174  10.604  21.279  0.00  0.00    +0.000 A 
ATOM     10  N   UNL     1      -0.121  11.002  22.504  0.00  0.00    +0.000 NA
ATOM     11  C   UNL     1      -1.212  11.823  22.381  0.00  0.00    +0.000 A 
ATOM     12  C   UNL     1      -1.950  12.481  23.374  0.00  0.00    +0.000 A 
ATOM     13  C   UNL     1      -3.096  13.193  23.000  0.00  0.00    +0.000 A 
ATOM     14  C   UNL     1      -3.497  13.248  21.663  0.00  0.00    +0.000 A 
ATOM     15  C   UNL     1      -2.743  12.640  20.654  0.00  0.00    +0.000 A 
ATOM     16  C   UNL     1      -1.591  11.950  21.049  0.00  0.00    +0.000 A 
ATOM     17  N   UNL     1      -0.591  11.298  20.363  0.00  0.00    +0.000 N 
ATOM     18  C   UNL     1      -0.331  11.419  18.946  0.00  0.00    +0.000 C 
ENDBRANCH   8   9
ENDBRANCH   4   7
BRANCH   1  19
ATOM     19  O   UNL     1       3.847   3.989  19.086  0.00  0.00    +0.000 OA
BRANCH  19  20
ATOM     20  C   UNL     1       3.460   3.573  17.774  0.00  0.00    +0.000 C 
BRANCH  20  21
ATOM     21  C   UNL     1       4.675   3.544  16.860  0.00  0.00    +0.000 C 
BRANCH  21  22
ATOM     22  C   UNL     1       4.927   4.930  16.248  0.00  0.00    +0.000 C 
BRANCH  22  23
ATOM     23  N   UNL     1       6.301   5.156  15.731  0.00  0.00    +0.000 NA
BRANCH  23  24
ATOM     24  C   UNL     1       7.276   4.980  16.837  0.00  0.00    +0.000 C 
BRANCH  24  25
ATOM     25  C   UNL     1       7.000   5.680  18.178  0.00  0.00    +0.000 C 
BRANCH  25  27
ATOM     26  C   UNL     1       7.786   7.972  17.557  0.00  0.00    +0.000 C 
ATOM     27  C   UNL     1       7.969   6.808  18.524  0.00  0.00    +0.000 C 
ENDBRANCH  25  27
ENDBRANCH  24  25
ENDBRANCH  23  24
BRANCH  23  28
ATOM     28  C   UNL     1       6.595   4.239  14.605  0.00  0.00    +0.000 C 
BRANCH  28  29
ATOM     29  C   UNL     1       5.437   3.953  13.627  0.00  0.00    +0.000 C 
BRANCH  29  30
ATOM     30  C   UNL     1       5.877   3.394  12.272  0.00  0.00    +0.000 C 
ATOM     31  C   UNL     1       4.666   3.047  11.414  0.00  0.00    +0.000 C 
ENDBRANCH  29  30
ENDBRANCH  28  29
ENDBRANCH  23  28
ENDBRANCH  22  23
ENDBRANCH  21  22
ENDBRANCH  20  21
ENDBRANCH  19  20
ENDBRANCH   1  19
TORSDOF 13
ENDMDL
MODEL 4
REMARK VINA RESULT:      -6.9      4.516      8.927
REMARK  Name = 
REMARK  16 active torsions:
REMARK  status: ('A' for Active; 'I' for Inactive)
REMARK    1  A    between atoms: C_1  and  C_2
REMARK    2  A    between atoms: C_2  and  C_3
REMARK    3  A    between atoms: C_3  and  C_4
REMARK    4  A    between atoms: C_4  and  N_5
REMARK    5  A    between atoms: N_5  and  C_6
REMARK    6  A    between atoms: N_5  and  C_10
REMARK    7  A    between atoms: C_6  and  C_7
REMARK    8  A    between atoms: C_7  and  C_8
REMARK    9  A    between atoms: C_8  and  C_9
REMARK   10  A    between atoms: C_10  and  C_11
REMARK   11  A    between atoms: C_11  and  C_12
REMARK   12  A    between atoms: C_12  and  O_13
REMARK   13  A    between atoms: O_13  and  C_14
REMARK   14  A    between atoms: C_17  and  C_18
REMARK   15  A    between atoms: C_19  and  C_20
REMARK   16  A    between atoms: N_28  and  C_29
REMARK                            x       y       z     vdW  Elec       q    Type
REMARK                         _______ _______ _______ _____ _____    ______ ____
ROOT
ATOM      1  C   UNL     1       6.432   5.405  17.859  0.00  0.00    +0.000 A 
ATOM      2  C   UNL     1       7.426   5.711  18.793  0.00  0.00    +0.000 A 
ATOM      3  C   UNL     1       8.130   6.918  18.721  0.00  0.00    +0.000 A 
ATOM      4  C   UNL     1       7.854   7.833  17.704  0.00  0.00    +0.000 A 
ATOM      5  C   UNL     1       6.838   7.539  16.784  0.00  0.00    +0.000 A 
ATOM      6  C   UNL     1       6.139   6.329  16.857  0.00  0.00    +0.000 A 
ENDROOT
BRANCH   4   7
ATOM      7  C   UNL     1       8.593   9.099  17.684  0.00  0.00    +0.000 C 
ATOM      8  C   UNL     1       8.750   9.880  18.767  0.00  0.00    +0.000 C 
BRANCH   8   9
ATOM      9  C   UNL     1       9.567  11.036  18.698  0.00  0.00    +0.000 A 
ATOM     10  N   UNL     1      10.806  11.220  19.118  0.00  0.00    +0.000 NA
ATOM     11  C   UNL     1      11.033  12.570  19.040  0.00  0.00    +0.000 A 
ATOM     12  C   UNL     1      12.171  13.306  19.400  0.00  0.00    +0.000 A 
ATOM     13  C   UNL     1      12.123  14.702  19.316  0.00  0.00    +0.000 A 
ATOM     14  C   UNL     1      10.965  15.352  18.882  0.00  0.00    +0.000 A 
ATOM     15  C   UNL     1       9.839  14.630  18.471  0.00  0.00    +0.000 A 
ATOM     16  C   UNL     1       9.916  13.235  18.545  0.00  0.00    +0.000 A 
ATOM     17  N   UNL     1       9.065  12.215  18.182  0.00  0.00    +0.000 N 
ATOM     18  C   UNL     1       7.914  12.351  17.319  0.00  0.00    +0.000 C 
ENDBRANCH   8   9
ENDBRANCH   4   7
BRANCH   1  19
ATOM     19  O   UNL     1       5.693   4.251  17.837  0.00  0.00    +0.000 OA
BRANCH  19  20
ATOM     20  C   UNL     1       4.658   4.186  18.822  0.00  0.00    +0.000 C 
BRANCH  20  21
ATOM     21  C   UNL     1       3.451   4.988  18.360  0.00  0.00    +0.000 C 
BRANCH  21  22
ATOM     22  C   UNL     1       3.286   6.257  19.210  0.00  0.00    +0.000 C 
BRANCH  22  23
ATOM     23  N   UNL     1       2.000   6.365  19.946  0.00  0.00    +0.000 NA
BRANCH  23  24
ATOM     24  C   UNL     1       1.822   5.163  20.798  0.00  0.00    +0.000 C 
BRANCH  24  25
ATOM     25  C   UNL     1       0.875   4.052  20.314  0.00  0.00    +0.000 C 
BRANCH  25  27
ATOM     26  C   UNL     1       2.541   2.683  21.584  0.00  0.00    +0.000 C 
ATOM     27  C   UNL     1       1.287   2.638  20.718  0.00  0.00    +0.000 C 
ENDBRANCH  25  27
ENDBRANCH  24  25
ENDBRANCH  23  24
BRANCH  23  28
ATOM     28  C   UNL     1       1.961   7.606  20.753  0.00  0.00    +0.000 C 
BRANCH  28  29
ATOM     29  C   UNL     1       0.596   8.315  20.866  0.00  0.00    +0.000 C 
BRANCH  29  30
ATOM     30  C   UNL     1       0.618   9.796  20.479  0.00  0.00    +0.000 C 
ATOM     31  C   UNL     1       0.124   9.986  19.050  0.00  0.00    +0.000 C 
ENDBRANCH  29  30
ENDBRANCH  28  29
ENDBRANCH  23  28
ENDBRANCH  22  23
ENDBRANCH  21  22
ENDBRANCH  20  21
ENDBRANCH  19  20
ENDBRANCH   1  19
TORSDOF 13
ENDMDL
MODEL 5
REMARK VINA RESULT:      -6.8      4.469      8.412
REMARK  Name = 
REMARK  16 active torsions:
REMARK  status: ('A' for Active; 'I' for Inactive)
REMARK    1  A    between atoms: C_1  and  C_2
REMARK    2  A    between atoms: C_2  and  C_3
REMARK    3  A    between atoms: C_3  and  C_4
REMARK    4  A    between atoms: C_4  and  N_5
REMARK    5  A    between atoms: N_5  and  C_6
REMARK    6  A    between atoms: N_5  and  C_10
REMARK    7  A    between atoms: C_6  and  C_7
REMARK    8  A    between atoms: C_7  and  C_8
REMARK    9  A    between atoms: C_8  and  C_9
REMARK   10  A    between atoms: C_10  and  C_11
REMARK   11  A    between atoms: C_11  and  C_12
REMARK   12  A    between atoms: C_12  and  O_13
REMARK   13  A    between atoms: O_13  and  C_14
REMARK   14  A    between atoms: C_17  and  C_18
REMARK   15  A    between atoms: C_19  and  C_20
REMARK   16  A    between atoms: N_28  and  C_29
REMARK                            x       y       z     vdW  Elec       q    Type
REMARK                         _______ _______ _______ _____ _____    ______ ____
ROOT
ATOM      1  C   UNL     1       6.761   5.292  17.000  0.00  0.00    +0.000 A 
ATOM      2  C   UNL     1       6.721   6.593  16.491  0.00  0.00    +0.000 A 
ATOM      3  C   UNL     1       7.335   7.648  17.174  0.00  0.00    +0.000 A 
ATOM      4  C   UNL     1       7.989   7.416  18.384  0.00  0.00    +0.000 A 
ATOM      5  C   UNL     1       8.053   6.107  18.882  0.00  0.00    +0.000 A 
ATOM      6  C   UNL     1       7.434   5.056  18.197  0.00  0.00    +0.000 A 
ENDROOT
BRANCH   4   7
ATOM      7  C   UNL     1       8.646   8.545  19.051  0.00  0.00    +0.000 C 
ATOM      8  C   UNL     1       8.806   9.751  18.478  0.00  0.00    +0.000 C 
BRANCH   8   9
ATOM      9  C   UNL     1       9.354  10.825  19.222  0.00  0.00    +0.000 A 
ATOM     10  N   UNL     1       9.104  11.208  20.462  0.00  0.00    +0.000 NA
ATOM     11  C   UNL     1       9.701  12.433  20.604  0.00  0.00    +0.000 A 
ATOM     12  C   UNL     1       9.710  13.299  21.708  0.00  0.00    +0.000 A 
ATOM     13  C   UNL     1      10.316  14.553  21.574  0.00  0.00    +0.000 A 
ATOM     14  C   UNL     1      10.900  14.938  20.364  0.00  0.00    +0.000 A 
ATOM     15  C   UNL     1      10.944  14.067  19.270  0.00  0.00    +0.000 A 
ATOM     16  C   UNL     1      10.349  12.811  19.433  0.00  0.00    +0.000 A 
ATOM     17  N   UNL     1      10.250  11.695  18.633  0.00  0.00    +0.000 N 
ATOM     18  C   UNL     1      11.036  11.443  17.447  0.00  0.00    +0.000 C 
ENDBRANCH   8   9
ENDBRANCH   4   7
BRANCH   1  19
ATOM     19  O   UNL     1       6.186   4.193  16.415  0.00  0.00    +0.000 OA
BRANCH  19  20
ATOM     20  C   UNL     1       5.095   3.629  17.148  0.00  0.00    +0.000 C 
BRANCH  20  21
ATOM     21  C   UNL     1       3.926   4.602  17.171  0.00  0.00    +0.000 C 
BRANCH  21  22
ATOM     22  C   UNL     1       3.749   5.205  18.572  0.00  0.00    +0.000 C 
BRANCH  22  23
ATOM     23  N   UNL     1       2.403   5.764  18.858  0.00  0.00    +0.000 NA
BRANCH  23  24
ATOM     24  C   UNL     1       1.576   4.730  19.529  0.00  0.00    +0.000 C 
BRANCH  24  25
ATOM     25  C   UNL     1       2.284   3.634  20.342  0.00  0.00    +0.000 C 
BRANCH  25  27
ATOM     26  C   UNL     1       1.214   2.159  18.628  0.00  0.00    +0.000 C 
ATOM     27  C   UNL     1       2.318   2.261  19.674  0.00  0.00    +0.000 C 
ENDBRANCH  25  27
ENDBRANCH  24  25
ENDBRANCH  23  24
BRANCH  23  28
ATOM     28  C   UNL     1       2.508   6.988  19.685  0.00  0.00    +0.000 C 
BRANCH  28  29
ATOM     29  C   UNL     1       1.427   7.186  20.768  0.00  0.00    +0.000 C 
BRANCH  29  30
ATOM     30  C   UNL     1       1.121   8.648  21.097  0.00  0.00    +0.000 C 
ATOM     31  C   UNL     1      -0.222   8.771  21.806  0.00  0.00    +0.000 C 
ENDBRANCH  29  30
ENDBRANCH  28  29
ENDBRANCH  23  28
ENDBRANCH  22  23
ENDBRANCH  21  22
ENDBRANCH  20  21
ENDBRANCH  19  20
ENDBRANCH   1  19
TORSDOF 13
ENDMDL
MODEL 6
REMARK VINA RESULT:      -6.7      4.629      8.784
REMARK  Name = 
REMARK  16 active torsions:
REMARK  status: ('A' for Active; 'I' for Inactive)
REMARK    1  A    between atoms: C_1  and  C_2
REMARK    2  A    between atoms: C_2  and  C_3
REMARK    3  A    between atoms: C_3  and  C_4
REMARK    4  A    between atoms: C_4  and  N_5
REMARK    5  A    between atoms: N_5  and  C_6
REMARK    6  A    between atoms: N_5  and  C_10
REMARK    7  A    between atoms: C_6  and  C_7
REMARK    8  A    between atoms: C_7  and  C_8
REMARK    9  A    between atoms: C_8  and  C_9
REMARK   10  A    between atoms: C_10  and  C_11
REMARK   11  A    between atoms: C_11  and  C_12
REMARK   12  A    between atoms: C_12  and  O_13
REMARK   13  A    between atoms: O_13  and  C_14
REMARK   14  A    between atoms: C_17  and  C_18
REMARK   15  A    between atoms: C_19  and  C_20
REMARK   16  A    between atoms: N_28  and  C_29
REMARK                            x       y       z     vdW  Elec       q    Type
REMARK                         _______ _______ _______ _____ _____    ______ ____
ROOT
ATOM      1  C   UNL     1       6.961   5.355  18.122  0.00  0.00    +0.000 A 
ATOM      2  C   UNL     1       7.741   5.751  19.213  0.00  0.00    +0.000 A 
ATOM      3  C   UNL     1       8.367   7.002  19.229  0.00  0.00    +0.000 A 
ATOM      4  C   UNL     1       8.229   7.871  18.146  0.00  0.00    +0.000 A 
ATOM      5  C   UNL     1       7.424   7.486  17.064  0.00  0.00    +0.000 A 
ATOM      6  C   UNL     1       6.804   6.232  17.051  0.00  0.00    +0.000 A 
ENDROOT
BRANCH   4   7
ATOM      7  C   UNL     1       8.876   9.185  18.218  0.00  0.00    +0.000 C 
ATOM      8  C   UNL     1       8.202  10.346  18.144  0.00  0.00    +0.000 C 
BRANCH   8   9
ATOM      9  C   UNL     1       8.881  11.576  18.329  0.00  0.00    +0.000 A 
ATOM     10  N   UNL     1       9.065  12.575  17.484  0.00  0.00    +0.000 NA
ATOM     11  C   UNL     1       9.990  13.398  18.071  0.00  0.00    +0.000 A 
ATOM     12  C   UNL     1      10.569  14.579  17.586  0.00  0.00    +0.000 A 
ATOM     13  C   UNL     1      11.574  15.196  18.339  0.00  0.00    +0.000 A 
ATOM     14  C   UNL     1      11.995  14.645  19.553  0.00  0.00    +0.000 A 
ATOM     15  C   UNL     1      11.392  13.496  20.076  0.00  0.00    +0.000 A 
ATOM     16  C   UNL     1      10.376  12.908  19.314  0.00  0.00    +0.000 A 
ATOM     17  N   UNL     1       9.531  11.840  19.519  0.00  0.00    +0.000 N 
ATOM     18  C   UNL     1       9.293  11.193  20.788  0.00  0.00    +0.000 C 
ENDBRANCH   8   9
ENDBRANCH   4   7
BRANCH   1  19
ATOM     19  O   UNL     1       6.315   4.151  18.005  0.00  0.00    +0.000 OA
BRANCH  19  20
ATOM     20  C   UNL     1       4.988   4.132  18.538  0.00  0.00    +0.000 C 
BRANCH  20  21
ATOM     21  C   UNL     1       4.145   5.207  17.869  0.00  0.00    +0.000 C 
BRANCH  21  22
ATOM     22  C   UNL     1       2.649   4.886  18.006  0.00  0.00    +0.000 C 
BRANCH  22  23
ATOM     23  N   UNL     1       1.920   5.677  19.030  0.00  0.00    +0.000 NA
BRANCH  23  24
ATOM     24  C   UNL     1       1.885   4.915  20.303  0.00  0.00    +0.000 C 
BRANCH  24  25
ATOM     25  C   UNL     1       0.850   3.789  20.459  0.00  0.00    +0.000 C 
BRANCH  25  27
ATOM     26  C   UNL     1       2.859   2.676  21.451  0.00  0.00    +0.000 C 
ATOM     27  C   UNL     1       1.387   2.507  21.092  0.00  0.00    +0.000 C 
ENDBRANCH  25  27
ENDBRANCH  24  25
ENDBRANCH  23  24
BRANCH  23  28
ATOM     28  C   UNL     1       2.553   7.004  19.215  0.00  0.00    +0.000 C 
BRANCH  28  29
ATOM     29  C   UNL     1       1.767   8.033  20.053  0.00  0.00    +0.000 C 
BRANCH  29  30
ATOM     30  C   UNL     1       1.324   9.275  19.276  0.00  0.00    +0.000 C 
ATOM     31  C   UNL     1       1.804   9.207  17.832  0.00  0.00    +0.000 C 
ENDBRANCH  29  30
ENDBRANCH  28  29
ENDBRANCH  23  28
ENDBRANCH  22  23
ENDBRANCH  21  22
ENDBRANCH  20  21
ENDBRANCH  19  20
ENDBRANCH   1  19
TORSDOF 13
ENDMDL
MODEL 7
REMARK VINA RESULT:      -6.7      1.937      2.968
REMARK  Name = 
REMARK  16 active torsions:
REMARK  status: ('A' for Active; 'I' for Inactive)
REMARK    1  A    between atoms: C_1  and  C_2
REMARK    2  A    between atoms: C_2  and  C_3
REMARK    3  A    between atoms: C_3  and  C_4
REMARK    4  A    between atoms: C_4  and  N_5
REMARK    5  A    between atoms: N_5  and  C_6
REMARK    6  A    between atoms: N_5  and  C_10
REMARK    7  A    between atoms: C_6  and  C_7
REMARK    8  A    between atoms: C_7  and  C_8
REMARK    9  A    between atoms: C_8  and  C_9
REMARK   10  A    between atoms: C_10  and  C_11
REMARK   11  A    between atoms: C_11  and  C_12
REMARK   12  A    between atoms: C_12  and  O_13
REMARK   13  A    between atoms: O_13  and  C_14
REMARK   14  A    between atoms: C_17  and  C_18
REMARK   15  A    between atoms: C_19  and  C_20
REMARK   16  A    between atoms: N_28  and  C_29
REMARK                            x       y       z     vdW  Elec       q    Type
REMARK                         _______ _______ _______ _____ _____    ______ ____
ROOT
ATOM      1  C   UNL     1       2.708   7.555  18.542  0.00  0.00    +0.000 A 
ATOM      2  C   UNL     1       2.239   8.585  17.721  0.00  0.00    +0.000 A 
ATOM      3  C   UNL     1       1.258   9.471  18.174  0.00  0.00    +0.000 A 
ATOM      4  C   UNL     1       0.722   9.332  19.455  0.00  0.00    +0.000 A 
ATOM      5  C   UNL     1       1.211   8.316  20.289  0.00  0.00    +0.000 A 
ATOM      6  C   UNL     1       2.190   7.429  19.830  0.00  0.00    +0.000 A 
ENDROOT
BRANCH   4   7
ATOM      7  C   UNL     1      -0.283  10.302  19.902  0.00  0.00    +0.000 C 
ATOM      8  C   UNL     1      -0.829  11.226  19.093  0.00  0.00    +0.000 C 
BRANCH   8   9
ATOM      9  C   UNL     1      -1.872  12.059  19.567  0.00  0.00    +0.000 A 
ATOM     10  N   UNL     1      -1.855  12.977  20.517  0.00  0.00    +0.000 NA
ATOM     11  C   UNL     1      -3.166  13.304  20.749  0.00  0.00    +0.000 A 
ATOM     12  C   UNL     1      -3.712  14.196  21.683  0.00  0.00    +0.000 A 
ATOM     13  C   UNL     1      -5.104  14.286  21.793  0.00  0.00    +0.000 A 
ATOM     14  C   UNL     1      -5.936  13.502  20.990  0.00  0.00    +0.000 A 
ATOM     15  C   UNL     1      -5.408  12.644  20.018  0.00  0.00    +0.000 A 
ATOM     16  C   UNL     1      -4.014  12.585  19.912  0.00  0.00    +0.000 A 
ATOM     17  N   UNL     1      -3.152  11.929  19.062  0.00  0.00    +0.000 N 
ATOM     18  C   UNL     1      -3.520  11.314  17.808  0.00  0.00    +0.000 C 
ENDBRANCH   8   9
ENDBRANCH   4   7
BRANCH   1  19
ATOM     19  O   UNL     1       3.659   6.631  18.191  0.00  0.00    +0.000 OA
BRANCH  19  20
ATOM     20  C   UNL     1       3.281   5.271  18.417  0.00  0.00    +0.000 C 
BRANCH  20  21
ATOM     21  C   UNL     1       3.731   4.406  17.250  0.00  0.00    +0.000 C 
BRANCH  21  22
ATOM     22  C   UNL     1       5.137   3.841  17.504  0.00  0.00    +0.000 C 
BRANCH  22  23
ATOM     23  N   UNL     1       6.161   4.209  16.493  0.00  0.00    +0.000 NA
BRANCH  23  24
ATOM     24  C   UNL     1       5.873   3.496  15.222  0.00  0.00    +0.000 C 
BRANCH  24  25
ATOM     25  C   UNL     1       5.902   4.294  13.908  0.00  0.00    +0.000 C 
BRANCH  25  27
ATOM     26  C   UNL     1       4.692   3.414  11.903  0.00  0.00    +0.000 C 
ATOM     27  C   UNL     1       6.023   3.445  12.645  0.00  0.00    +0.000 C 
ENDBRANCH  25  27
ENDBRANCH  24  25
ENDBRANCH  23  24
BRANCH  23  28
ATOM     28  C   UNL     1       6.195   5.675  16.291  0.00  0.00    +0.000 C 
BRANCH  28  29
ATOM     29  C   UNL     1       7.449   6.415  16.802  0.00  0.00    +0.000 C 
BRANCH  29  30
ATOM     30  C   UNL     1       7.361   6.878  18.258  0.00  0.00    +0.000 C 
ATOM     31  C   UNL     1       7.970   5.838  19.191  0.00  0.00    +0.000 C 
ENDBRANCH  29  30
ENDBRANCH  28  29
ENDBRANCH  23  28
ENDBRANCH  22  23
ENDBRANCH  21  22
ENDBRANCH  20  21
ENDBRANCH  19  20
ENDBRANCH   1  19
TORSDOF 13
ENDMDL
MODEL 8
REMARK VINA RESULT:      -6.7      1.457      2.075
REMARK  Name = 
REMARK  16 active torsions:
REMARK  status: ('A' for Active; 'I' for Inactive)
REMARK    1  A    between atoms: C_1  and  C_2
REMARK    2  A    between atoms: C_2  and  C_3
REMARK    3  A    between atoms: C_3  and  C_4
REMARK    4  A    between atoms: C_4  and  N_5
REMARK    5  A    between atoms: N_5  and  C_6
REMARK    6  A    between atoms: N_5  and  C_10
REMARK    7  A    between atoms: C_6  and  C_7
REMARK    8  A    between atoms: C_7  and  C_8
REMARK    9  A    between atoms: C_8  and  C_9
REMARK   10  A    between atoms: C_10  and  C_11
REMARK   11  A    between atoms: C_11  and  C_12
REMARK   12  A    between atoms: C_12  and  O_13
REMARK   13  A    between atoms: O_13  and  C_14
REMARK   14  A    between atoms: C_17  and  C_18
REMARK   15  A    between atoms: C_19  and  C_20
REMARK   16  A    between atoms: N_28  and  C_29
REMARK                            x       y       z     vdW  Elec       q    Type
REMARK                         _______ _______ _______ _____ _____    ______ ____
ROOT
ATOM      1  C   UNL     1       2.253   6.164  19.621  0.00  0.00    +0.000 A 
ATOM      2  C   UNL     1       1.663   6.397  20.866  0.00  0.00    +0.000 A 
ATOM      3  C   UNL     1       1.210   7.673  21.216  0.00  0.00    +0.000 A 
ATOM      4  C   UNL     1       1.351   8.738  20.325  0.00  0.00    +0.000 A 
ATOM      5  C   UNL     1       1.918   8.499  19.065  0.00  0.00    +0.000 A 
ATOM      6  C   UNL     1       2.373   7.222  18.721  0.00  0.00    +0.000 A 
ENDROOT
BRANCH   4   7
ATOM      7  C   UNL     1       0.834  10.053  20.720  0.00  0.00    +0.000 C 
ATOM      8  C   UNL     1      -0.431  10.257  21.127  0.00  0.00    +0.000 C 
BRANCH   8   9
ATOM      9  C   UNL     1      -0.829  11.534  21.595  0.00  0.00    +0.000 A 
ATOM     10  N   UNL     1      -0.476  12.180  22.693  0.00  0.00    +0.000 NA
ATOM     11  C   UNL     1      -1.330  13.247  22.793  0.00  0.00    +0.000 A 
ATOM     12  C   UNL     1      -1.418  14.229  23.789  0.00  0.00    +0.000 A 
ATOM     13  C   UNL     1      -2.451  15.171  23.716  0.00  0.00    +0.000 A 
ATOM     14  C   UNL     1      -3.377  15.135  22.671  0.00  0.00    +0.000 A 
ATOM     15  C   UNL     1      -3.273  14.192  21.642  0.00  0.00    +0.000 A 
ATOM     16  C   UNL     1      -2.222  13.273  21.725  0.00  0.00    +0.000 A 
ATOM     17  N   UNL     1      -1.769  12.269  20.899  0.00  0.00    +0.000 N 
ATOM     18  C   UNL     1      -2.137  12.096  19.513  0.00  0.00    +0.000 C 
ENDBRANCH   8   9
ENDBRANCH   4   7
BRANCH   1  19
ATOM     19  O   UNL     1       2.736   4.956  19.186  0.00  0.00    +0.000 OA
BRANCH  19  20
ATOM     20  C   UNL     1       2.203   4.518  17.933  0.00  0.00    +0.000 C 
BRANCH  20  21
ATOM     21  C   UNL     1       3.243   3.695  17.187  0.00  0.00    +0.000 C 
BRANCH  21  22
ATOM     22  C   UNL     1       4.598   3.748  17.910  0.00  0.00    +0.000 C 
BRANCH  22  23
ATOM     23  N   UNL     1       5.729   4.274  17.103  0.00  0.00    +0.000 NA
BRANCH  23  24
ATOM     24  C   UNL     1       5.305   4.390  15.685  0.00  0.00    +0.000 C 
BRANCH  24  25
ATOM     25  C   UNL     1       6.013   3.521  14.632  0.00  0.00    +0.000 C 
BRANCH  25  27
ATOM     26  C   UNL     1       6.289   3.429  12.147  0.00  0.00    +0.000 C 
ATOM     27  C   UNL     1       6.496   4.278  13.396  0.00  0.00    +0.000 C 
ENDBRANCH  25  27
ENDBRANCH  24  25
ENDBRANCH  23  24
BRANCH  23  28
ATOM     28  C   UNL     1       6.190   5.577  17.635  0.00  0.00    +0.000 C 
BRANCH  28  29
ATOM     29  C   UNL     1       7.584   5.599  18.296  0.00  0.00    +0.000 C 
BRANCH  29  30
ATOM     30  C   UNL     1       8.100   6.998  18.638  0.00  0.00    +0.000 C 
ATOM     31  C   UNL     1       7.644   8.010  17.594  0.00  0.00    +0.000 C 
ENDBRANCH  29  30
ENDBRANCH  28  29
ENDBRANCH  23  28
ENDBRANCH  22  23
ENDBRANCH  21  22
ENDBRANCH  20  21
ENDBRANCH  19  20
ENDBRANCH   1  19
TORSDOF 13
ENDMDL
MODEL 9
REMARK VINA RESULT:      -6.6      3.569     10.945
REMARK  Name = 
REMARK  16 active torsions:
REMARK  status: ('A' for Active; 'I' for Inactive)
REMARK    1  A    between atoms: C_1  and  C_2
REMARK    2  A    between atoms: C_2  and  C_3
REMARK    3  A    between atoms: C_3  and  C_4
REMARK    4  A    between atoms: C_4  and  N_5
REMARK    5  A    between atoms: N_5  and  C_6
REMARK    6  A    between atoms: N_5  and  C_10
REMARK    7  A    between atoms: C_6  and  C_7
REMARK    8  A    between atoms: C_7  and  C_8
REMARK    9  A    between atoms: C_8  and  C_9
REMARK   10  A    between atoms: C_10  and  C_11
REMARK   11  A    between atoms: C_11  and  C_12
REMARK   12  A    between atoms: C_12  and  O_13
REMARK   13  A    between atoms: O_13  and  C_14
REMARK   14  A    between atoms: C_17  and  C_18
REMARK   15  A    between atoms: C_19  and  C_20
REMARK   16  A    between atoms: N_28  and  C_29
REMARK                            x       y       z     vdW  Elec       q    Type
REMARK                         _______ _______ _______ _____ _____    ______ ____
ROOT
ATOM      1  C   UNL     1      -0.176  12.561  18.589  0.00  0.00    +0.000 A 
ATOM      2  C   UNL     1      -1.065  11.514  18.331  0.00  0.00    +0.000 A 
ATOM      3  C   UNL     1      -0.603  10.203  18.180  0.00  0.00    +0.000 A 
ATOM      4  C   UNL     1       0.761   9.922  18.275  0.00  0.00    +0.000 A 
ATOM      5  C   UNL     1       1.650  10.967  18.560  0.00  0.00    +0.000 A 
ATOM      6  C   UNL     1       1.184  12.278  18.707  0.00  0.00    +0.000 A 
ENDROOT
BRANCH   4   7
ATOM      7  C   UNL     1       1.199   8.529  18.141  0.00  0.00    +0.000 C 
ATOM      8  C   UNL     1       2.402   8.090  18.549  0.00  0.00    +0.000 C 
BRANCH   8   9
ATOM      9  C   UNL     1       2.715   6.710  18.486  0.00  0.00    +0.000 A 
ATOM     10  N   UNL     1       3.421   6.043  17.589  0.00  0.00    +0.000 NA
ATOM     11  C   UNL     1       3.207   4.716  17.854  0.00  0.00    +0.000 A 
ATOM     12  C   UNL     1       3.686   3.583  17.180  0.00  0.00    +0.000 A 
ATOM     13  C   UNL     1       3.243   2.320  17.588  0.00  0.00    +0.000 A 
ATOM     14  C   UNL     1       2.340   2.188  18.646  0.00  0.00    +0.000 A 
ATOM     15  C   UNL     1       1.892   3.304  19.361  0.00  0.00    +0.000 A 
ATOM     16  C   UNL     1       2.363   4.555  18.948  0.00  0.00    +0.000 A 
ATOM     17  N   UNL     1       2.204   5.837  19.426  0.00  0.00    +0.000 N 
ATOM     18  C   UNL     1       1.694   6.186  20.732  0.00  0.00    +0.000 C 
ENDBRANCH   8   9
ENDBRANCH   4   7
BRANCH   1  19
ATOM     19  O   UNL     1      -0.524  13.878  18.744  0.00  0.00    +0.000 OA
BRANCH  19  20
ATOM     20  C   UNL     1       0.320  14.618  19.630  0.00  0.00    +0.000 C 
BRANCH  20  21
ATOM     21  C   UNL     1      -0.209  14.522  21.053  0.00  0.00    +0.000 C 
BRANCH  21  22
ATOM     22  C   UNL     1      -1.711  14.197  21.052  0.00  0.00    +0.000 C 
BRANCH  22  23
ATOM     23  N   UNL     1      -2.240  13.634  22.321  0.00  0.00    +0.000 NA
BRANCH  23  24
ATOM     24  C   UNL     1      -1.177  12.836  22.982  0.00  0.00    +0.000 C 
BRANCH  24  25
ATOM     25  C   UNL     1      -1.212  11.305  22.843  0.00  0.00    +0.000 C 
BRANCH  25  27
ATOM     26  C   UNL     1       0.145   9.286  22.256  0.00  0.00    +0.000 C 
ATOM     27  C   UNL     1      -0.183  10.725  21.874  0.00  0.00    +0.000 C 
ENDBRANCH  25  27
ENDBRANCH  24  25
ENDBRANCH  23  24
BRANCH  23  28
ATOM     28  C   UNL     1      -2.732  14.712  23.208  0.00  0.00    +0.000 C 
BRANCH  28  29
ATOM     29  C   UNL     1      -4.191  14.594  23.695  0.00  0.00    +0.000 C 
BRANCH  29  30
ATOM     30  C   UNL     1      -4.788  13.191  23.571  0.00  0.00    +0.000 C 
ATOM     31  C   UNL     1      -4.499  12.370  24.822  0.00  0.00    +0.000 C 
ENDBRANCH  29  30
ENDBRANCH  28  29
ENDBRANCH  23  28
ENDBRANCH  22  23
ENDBRANCH  21  22
ENDBRANCH  20  21
ENDBRANCH  19  20
ENDBRANCH   1  19
TORSDOF 13
ENDMDL
