MODEL 1
REMARK VINA RESULT:      -8.8      0.000      0.000
REMARK  Name = 
REMARK  9 active torsions:
REMARK  status: ('A' for Active; 'I' for Inactive)
REMARK    1  A    between atoms: C_2  and  C_20
REMARK    2  A    between atoms: N_3  and  C_4
REMARK    3  A    between atoms: C_12  and  C_13
REMARK    4  A    between atoms: C_23  and  O_24
REMARK    5  A    between atoms: O_24  and  C_25
REMARK    6  A    between atoms: C_25  and  C_26
REMARK    7  A    between atoms: C_26  and  C_27
REMARK    8  A    between atoms: C_27  and  C_28
REMARK    9  A    between atoms: C_28  and  C_29
REMARK                            x       y       z     vdW  Elec       q    Type
REMARK                         _______ _______ _______ _____ _____    ______ ____
ROOT
ATOM      1  O   UNL     1      -0.135   8.449  21.280  0.00  0.00    +0.000 OA
ATOM      2  C   UNL     1       0.532   9.116  20.500  0.00  0.00    +0.000 C 
ATOM      3  N   UNL     1       0.403  10.472  20.251  0.00  0.00    +0.000 N 
ATOM      4  H   UNL     1       0.739  10.786  19.348  0.00  0.00    +0.000 HD
ENDROOT
BRANCH   3   5
ATOM      5  C   UNL     1      -0.576  11.270  20.876  0.00  0.00    +0.000 A 
ATOM      6  C   UNL     1      -0.295  11.710  22.175  0.00  0.00    +0.000 A 
ATOM      7  C   UNL     1      -1.180  12.559  22.839  0.00  0.00    +0.000 A 
ATOM      8  C   UNL     1      -2.378  12.928  22.230  0.00  0.00    +0.000 A 
ATOM      9  C   UNL     1      -2.684  12.446  20.953  0.00  0.00    +0.000 A 
ATOM     10  C   UNL     1      -3.968  12.791  20.315  0.00  0.00    +0.000 A 
ATOM     11  O   UNL     1      -4.814  13.465  20.886  0.00  0.00    +0.000 OA
ATOM     12  C   UNL     1      -4.183  12.288  18.953  0.00  0.00    +0.000 A 
ATOM     13  C   UNL     1      -3.248  11.513  18.403  0.00  0.00    +0.000 A 
ATOM     14  O   UNL     1      -2.087  11.108  19.032  0.00  0.00    +0.000 OA
ATOM     15  C   UNL     1      -1.788  11.630  20.267  0.00  0.00    +0.000 A 
BRANCH  13  16
ATOM     16  C   UNL     1      -3.405  11.031  17.083  0.00  0.00    +0.000 A 
ATOM     17  N   UNL     1      -4.320  11.234  16.156  0.00  0.00    +0.000 NA
ATOM     18  N   UNL     1      -3.930  10.498  15.061  0.00  0.00    +0.000 NA
ATOM     19  N   UNL     1      -2.789   9.865  15.299  0.00  0.00    +0.000 NA
ATOM     20  N   UNL     1      -2.454  10.205  16.549  0.00  0.00    +0.000 N 
ATOM     21  H   UNL     1      -1.586   9.874  16.962  0.00  0.00    +0.000 HD
ENDBRANCH  13  16
ENDBRANCH   3   5
BRANCH   2  22
ATOM     22  C   UNL     1       1.522   8.435  19.637  0.00  0.00    +0.000 A 
ATOM     23  C   UNL     1       2.079   7.238  20.082  0.00  0.00    +0.000 A 
ATOM     24  C   UNL     1       3.018   6.577  19.291  0.00  0.00    +0.000 A 
ATOM     25  C   UNL     1       3.412   7.109  18.059  0.00  0.00    +0.000 A 
ATOM     26  C   UNL     1       2.856   8.315  17.626  0.00  0.00    +0.000 A 
ATOM     27  C   UNL     1       1.909   8.981  18.408  0.00  0.00    +0.000 A 
BRANCH  25  28
ATOM     28  O   UNL     1       4.328   6.531  17.217  0.00  0.00    +0.000 OA
BRANCH  28  29
ATOM     29  C   UNL     1       4.791   5.240  17.624  0.00  0.00    +0.000 C 
BRANCH  29  30
ATOM     30  C   UNL     1       4.561   4.203  16.531  0.00  0.00    +0.000 C 
BRANCH  30  31
ATOM     31  C   UNL     1       3.330   3.341  16.807  0.00  0.00    +0.000 C 
BRANCH  31  32
ATOM     32  C   UNL     1       3.609   2.352  17.938  0.00  0.00    +0.000 C 
BRANCH  32  33
ATOM     33  C   UNL     1       2.799   2.664  19.170  0.00  0.00    +0.000 A 
ATOM     34  C   UNL     1       1.499   3.174  19.062  0.00  0.00    +0.000 A 
ATOM     35  C   UNL     1       0.754   3.453  20.209  0.00  0.00    +0.000 A 
ATOM     36  C   UNL     1       1.304   3.234  21.470  0.00  0.00    +0.000 A 
ATOM     37  C   UNL     1       2.603   2.741  21.587  0.00  0.00    +0.000 A 
ATOM     38  C   UNL     1       3.348   2.461  20.442  0.00  0.00    +0.000 A 
ENDBRANCH  32  33
ENDBRANCH  31  32
ENDBRANCH  30  31
ENDBRANCH  29  30
ENDBRANCH  28  29
ENDBRANCH  25  28
ENDBRANCH   2  22
TORSDOF 9
ENDMDL
MODEL 2
REMARK VINA RESULT:      -8.5      7.297      9.430
REMARK  Name = 
REMARK  9 active torsions:
REMARK  status: ('A' for Active; 'I' for Inactive)
REMARK    1  A    between atoms: C_2  and  C_20
REMARK    2  A    between atoms: N_3  and  C_4
REMARK    3  A    between atoms: C_12  and  C_13
REMARK    4  A    between atoms: C_23  and  O_24
REMARK    5  A    between atoms: O_24  and  C_25
REMARK    6  A    between atoms: C_25  and  C_26
REMARK    7  A    between atoms: C_26  and  C_27
REMARK    8  A    between atoms: C_27  and  C_28
REMARK    9  A    between atoms: C_28  and  C_29
REMARK                            x       y       z     vdW  Elec       q    Type
REMARK                         _______ _______ _______ _____ _____    ______ ____
ROOT
ATOM      1  O   UNL     1       7.891  10.747  17.775  0.00  0.00    +0.000 OA
ATOM      2  C   UNL     1       8.515   9.867  18.353  0.00  0.00    +0.000 C 
ATOM      3  N   UNL     1       9.649  10.031  19.130  0.00  0.00    +0.000 N 
ATOM      4  H   UNL     1      10.245   9.215  19.214  0.00  0.00    +0.000 HD
ENDROOT
BRANCH   3   5
ATOM      5  C   UNL     1      10.258  11.285  19.332  0.00  0.00    +0.000 A 
ATOM      6  C   UNL     1      11.260  11.651  18.425  0.00  0.00    +0.000 A 
ATOM      7  C   UNL     1      11.866  12.905  18.512  0.00  0.00    +0.000 A 
ATOM      8  C   UNL     1      11.514  13.777  19.540  0.00  0.00    +0.000 A 
ATOM      9  C   UNL     1      10.550  13.391  20.478  0.00  0.00    +0.000 A 
ATOM     10  C   UNL     1      10.201  14.285  21.597  0.00  0.00    +0.000 A 
ATOM     11  O   UNL     1      10.760  15.359  21.766  0.00  0.00    +0.000 OA
ATOM     12  C   UNL     1       9.141  13.824  22.501  0.00  0.00    +0.000 A 
ATOM     13  C   UNL     1       8.606  12.620  22.299  0.00  0.00    +0.000 A 
ATOM     14  O   UNL     1       8.996  11.739  21.309  0.00  0.00    +0.000 OA
ATOM     15  C   UNL     1       9.912  12.158  20.375  0.00  0.00    +0.000 A 
BRANCH  13  16
ATOM     16  C   UNL     1       7.564  12.151  23.132  0.00  0.00    +0.000 A 
ATOM     17  N   UNL     1       7.515  11.240  24.082  0.00  0.00    +0.000 NA
ATOM     18  N   UNL     1       6.219  11.232  24.544  0.00  0.00    +0.000 NA
ATOM     19  N   UNL     1       5.484  12.133  23.905  0.00  0.00    +0.000 NA
ATOM     20  N   UNL     1       6.320  12.714  23.036  0.00  0.00    +0.000 N 
ATOM     21  H   UNL     1       6.004  13.476  22.443  0.00  0.00    +0.000 HD
ENDBRANCH  13  16
ENDBRANCH   3   5
BRANCH   2  22
ATOM     22  C   UNL     1       8.120   8.455  18.150  0.00  0.00    +0.000 A 
ATOM     23  C   UNL     1       8.493   7.517  19.110  0.00  0.00    +0.000 A 
ATOM     24  C   UNL     1       8.138   6.179  18.941  0.00  0.00    +0.000 A 
ATOM     25  C   UNL     1       7.421   5.769  17.814  0.00  0.00    +0.000 A 
ATOM     26  C   UNL     1       7.061   6.715  16.850  0.00  0.00    +0.000 A 
ATOM     27  C   UNL     1       7.405   8.060  17.014  0.00  0.00    +0.000 A 
BRANCH  25  28
ATOM     28  O   UNL     1       7.031   4.477  17.564  0.00  0.00    +0.000 OA
BRANCH  28  29
ATOM     29  C   UNL     1       6.795   4.174  16.185  0.00  0.00    +0.000 C 
BRANCH  29  30
ATOM     30  C   UNL     1       5.425   3.540  15.989  0.00  0.00    +0.000 C 
BRANCH  30  31
ATOM     31  C   UNL     1       4.328   4.296  16.738  0.00  0.00    +0.000 C 
BRANCH  31  32
ATOM     32  C   UNL     1       3.119   3.393  16.977  0.00  0.00    +0.000 C 
BRANCH  32  33
ATOM     33  C   UNL     1       2.494   3.635  18.326  0.00  0.00    +0.000 A 
ATOM     34  C   UNL     1       3.026   4.590  19.201  0.00  0.00    +0.000 A 
ATOM     35  C   UNL     1       2.436   4.812  20.447  0.00  0.00    +0.000 A 
ATOM     36  C   UNL     1       1.316   4.076  20.830  0.00  0.00    +0.000 A 
ATOM     37  C   UNL     1       0.788   3.113  19.972  0.00  0.00    +0.000 A 
ATOM     38  C   UNL     1       1.377   2.890  18.727  0.00  0.00    +0.000 A 
ENDBRANCH  32  33
ENDBRANCH  31  32
ENDBRANCH  30  31
ENDBRANCH  29  30
ENDBRANCH  28  29
ENDBRANCH  25  28
ENDBRANCH   2  22
TORSDOF 9
ENDMDL
MODEL 3
REMARK VINA RESULT:      -8.4      7.045      9.384
REMARK  Name = 
REMARK  9 active torsions:
REMARK  status: ('A' for Active; 'I' for Inactive)
REMARK    1  A    between atoms: C_2  and  C_20
REMARK    2  A    between atoms: N_3  and  C_4
REMARK    3  A    between atoms: C_12  and  C_13
REMARK    4  A    between atoms: C_23  and  O_24
REMARK    5  A    between atoms: O_24  and  C_25
REMARK    6  A    between atoms: C_25  and  C_26
REMARK    7  A    between atoms: C_26  and  C_27
REMARK    8  A    between atoms: C_27  and  C_28
REMARK    9  A    between atoms: C_28  and  C_29
REMARK                            x       y       z     vdW  Elec       q    Type
REMARK                         _______ _______ _______ _____ _____    ______ ____
ROOT
ATOM      1  O   UNL     1       8.240  10.919  17.614  0.00  0.00    +0.000 OA
ATOM      2  C   UNL     1       8.648  10.048  18.370  0.00  0.00    +0.000 C 
ATOM      3  N   UNL     1       9.631  10.184  19.335  0.00  0.00    +0.000 N 
ATOM      4  H   UNL     1      10.109   9.329  19.597  0.00  0.00    +0.000 HD
ENDROOT
BRANCH   3   5
ATOM      5  C   UNL     1      10.326  11.390  19.548  0.00  0.00    +0.000 A 
ATOM      6  C   UNL     1      11.480  11.595  18.781  0.00  0.00    +0.000 A 
ATOM      7  C   UNL     1      12.188  12.793  18.881  0.00  0.00    +0.000 A 
ATOM      8  C   UNL     1      11.781  13.768  19.788  0.00  0.00    +0.000 A 
ATOM      9  C   UNL     1      10.658  13.543  20.592  0.00  0.00    +0.000 A 
ATOM     10  C   UNL     1      10.243  14.546  21.589  0.00  0.00    +0.000 A 
ATOM     11  O   UNL     1      10.875  15.576  21.773  0.00  0.00    +0.000 OA
ATOM     12  C   UNL     1       9.023  14.252  22.350  0.00  0.00    +0.000 A 
ATOM     13  C   UNL     1       8.405  13.088  22.144  0.00  0.00    +0.000 A 
ATOM     14  O   UNL     1       8.845  12.103  21.281  0.00  0.00    +0.000 OA
ATOM     15  C   UNL     1       9.922  12.367  20.471  0.00  0.00    +0.000 A 
BRANCH  13  16
ATOM     16  C   UNL     1       7.213  12.779  22.838  0.00  0.00    +0.000 A 
ATOM     17  N   UNL     1       6.829  11.732  23.541  0.00  0.00    +0.000 NA
ATOM     18  N   UNL     1       5.557  12.012  23.986  0.00  0.00    +0.000 NA
ATOM     19  N   UNL     1       5.168  13.213  23.581  0.00  0.00    +0.000 NA
ATOM     20  N   UNL     1       6.200  13.698  22.879  0.00  0.00    +0.000 N 
ATOM     21  H   UNL     1       6.166  14.634  22.487  0.00  0.00    +0.000 HD
ENDBRANCH  13  16
ENDBRANCH   3   5
BRANCH   2  22
ATOM     22  C   UNL     1       8.145   8.665  18.210  0.00  0.00    +0.000 A 
ATOM     23  C   UNL     1       7.205   8.412  17.212  0.00  0.00    +0.000 A 
ATOM     24  C   UNL     1       6.711   7.119  17.042  0.00  0.00    +0.000 A 
ATOM     25  C   UNL     1       7.142   6.077  17.869  0.00  0.00    +0.000 A 
ATOM     26  C   UNL     1       8.076   6.343  18.874  0.00  0.00    +0.000 A 
ATOM     27  C   UNL     1       8.583   7.633  19.047  0.00  0.00    +0.000 A 
BRANCH  25  28
ATOM     28  O   UNL     1       6.711   4.778  17.776  0.00  0.00    +0.000 OA
BRANCH  28  29
ATOM     29  C   UNL     1       6.786   4.209  16.465  0.00  0.00    +0.000 C 
BRANCH  29  30
ATOM     30  C   UNL     1       5.407   3.799  15.964  0.00  0.00    +0.000 C 
BRANCH  30  31
ATOM     31  C   UNL     1       4.284   4.454  16.768  0.00  0.00    +0.000 C 
BRANCH  31  32
ATOM     32  C   UNL     1       3.120   3.482  16.956  0.00  0.00    +0.000 C 
BRANCH  32  33
ATOM     33  C   UNL     1       2.407   3.704  18.264  0.00  0.00    +0.000 A 
ATOM     34  C   UNL     1       1.600   2.703  18.819  0.00  0.00    +0.000 A 
ATOM     35  C   UNL     1       0.948   2.916  20.035  0.00  0.00    +0.000 A 
ATOM     36  C   UNL     1       1.090   4.132  20.700  0.00  0.00    +0.000 A 
ATOM     37  C   UNL     1       1.878   5.140  20.148  0.00  0.00    +0.000 A 
ATOM     38  C   UNL     1       2.531   4.929  18.933  0.00  0.00    +0.000 A 
ENDBRANCH  32  33
ENDBRANCH  31  32
ENDBRANCH  30  31
ENDBRANCH  29  30
ENDBRANCH  28  29
ENDBRANCH  25  28
ENDBRANCH   2  22
TORSDOF 9
ENDMDL
MODEL 4
REMARK VINA RESULT:      -8.3      7.334      9.390
REMARK  Name = 
REMARK  9 active torsions:
REMARK  status: ('A' for Active; 'I' for Inactive)
REMARK    1  A    between atoms: C_2  and  C_20
REMARK    2  A    between atoms: N_3  and  C_4
REMARK    3  A    between atoms: C_12  and  C_13
REMARK    4  A    between atoms: C_23  and  O_24
REMARK    5  A    between atoms: O_24  and  C_25
REMARK    6  A    between atoms: C_25  and  C_26
REMARK    7  A    between atoms: C_26  and  C_27
REMARK    8  A    between atoms: C_27  and  C_28
REMARK    9  A    between atoms: C_28  and  C_29
REMARK                            x       y       z     vdW  Elec       q    Type
REMARK                         _______ _______ _______ _____ _____    ______ ____
ROOT
ATOM      1  O   UNL     1       8.239  10.536  17.642  0.00  0.00    +0.000 OA
ATOM      2  C   UNL     1       8.646   9.717  18.456  0.00  0.00    +0.000 C 
ATOM      3  N   UNL     1       9.556   9.945  19.474  0.00  0.00    +0.000 N 
ATOM      4  H   UNL     1      10.064   9.130  19.799  0.00  0.00    +0.000 HD
ENDROOT
BRANCH   3   5
ATOM      5  C   UNL     1      10.167  11.197  19.681  0.00  0.00    +0.000 A 
ATOM      6  C   UNL     1      11.224  11.531  18.825  0.00  0.00    +0.000 A 
ATOM      7  C   UNL     1      11.839  12.780  18.918  0.00  0.00    +0.000 A 
ATOM      8  C   UNL     1      11.439  13.680  19.904  0.00  0.00    +0.000 A 
ATOM      9  C   UNL     1      10.419  13.326  20.793  0.00  0.00    +0.000 A 
ATOM     10  C   UNL     1      10.017  14.250  21.870  0.00  0.00    +0.000 A 
ATOM     11  O   UNL     1      10.578  15.322  22.046  0.00  0.00    +0.000 OA
ATOM     12  C   UNL     1       8.902  13.822  22.722  0.00  0.00    +0.000 A 
ATOM     13  C   UNL     1       8.364  12.619  22.517  0.00  0.00    +0.000 A 
ATOM     14  O   UNL     1       8.801  11.710  21.572  0.00  0.00    +0.000 OA
ATOM     15  C   UNL     1       9.773  12.098  20.683  0.00  0.00    +0.000 A 
BRANCH  13  16
ATOM     16  C   UNL     1       7.271  12.181  23.299  0.00  0.00    +0.000 A 
ATOM     17  N   UNL     1       5.968  12.347  23.193  0.00  0.00    +0.000 NA
ATOM     18  N   UNL     1       5.406  11.674  24.253  0.00  0.00    +0.000 NA
ATOM     19  N   UNL     1       6.340  11.089  24.991  0.00  0.00    +0.000 NA
ATOM     20  N   UNL     1       7.499  11.391  24.393  0.00  0.00    +0.000 N 
ATOM     21  H   UNL     1       8.377  11.025  24.749  0.00  0.00    +0.000 HD
ENDBRANCH  13  16
ENDBRANCH   3   5
BRANCH   2  22
ATOM     22  C   UNL     1       8.233   8.302  18.320  0.00  0.00    +0.000 A 
ATOM     23  C   UNL     1       7.547   7.919  17.169  0.00  0.00    +0.000 A 
ATOM     24  C   UNL     1       7.142   6.593  17.017  0.00  0.00    +0.000 A 
ATOM     25  C   UNL     1       7.410   5.648  18.012  0.00  0.00    +0.000 A 
ATOM     26  C   UNL     1       8.088   6.044  19.167  0.00  0.00    +0.000 A 
ATOM     27  C   UNL     1       8.505   7.369  19.326  0.00  0.00    +0.000 A 
BRANCH  25  28
ATOM     28  O   UNL     1       7.049   4.326  17.949  0.00  0.00    +0.000 OA
BRANCH  28  29
ATOM     29  C   UNL     1       5.715   4.044  18.382  0.00  0.00    +0.000 C 
BRANCH  29  30
ATOM     30  C   UNL     1       4.735   4.101  17.217  0.00  0.00    +0.000 C 
BRANCH  30  31
ATOM     31  C   UNL     1       3.942   2.803  17.067  0.00  0.00    +0.000 C 
BRANCH  31  32
ATOM     32  C   UNL     1       2.465   3.035  17.383  0.00  0.00    +0.000 C 
BRANCH  32  33
ATOM     33  C   UNL     1       2.213   3.120  18.866  0.00  0.00    +0.000 A 
ATOM     34  C   UNL     1       2.972   2.362  19.766  0.00  0.00    +0.000 A 
ATOM     35  C   UNL     1       2.735   2.453  21.139  0.00  0.00    +0.000 A 
ATOM     36  C   UNL     1       1.734   3.293  21.621  0.00  0.00    +0.000 A 
ATOM     37  C   UNL     1       0.964   4.040  20.732  0.00  0.00    +0.000 A 
ATOM     38  C   UNL     1       1.199   3.950  19.360  0.00  0.00    +0.000 A 
ENDBRANCH  32  33
ENDBRANCH  31  32
ENDBRANCH  30  31
ENDBRANCH  29  30
ENDBRANCH  28  29
ENDBRANCH  25  28
ENDBRANCH   2  22
TORSDOF 9
ENDMDL
MODEL 5
REMARK VINA RESULT:      -8.2      3.488      9.445
REMARK  Name = 
REMARK  9 active torsions:
REMARK  status: ('A' for Active; 'I' for Inactive)
REMARK    1  A    between atoms: C_2  and  C_20
REMARK    2  A    between atoms: N_3  and  C_4
REMARK    3  A    between atoms: C_12  and  C_13
REMARK    4  A    between atoms: C_23  and  O_24
REMARK    5  A    between atoms: O_24  and  C_25
REMARK    6  A    between atoms: C_25  and  C_26
REMARK    7  A    between atoms: C_26  and  C_27
REMARK    8  A    between atoms: C_27  and  C_28
REMARK    9  A    between atoms: C_28  and  C_29
REMARK                            x       y       z     vdW  Elec       q    Type
REMARK                         _______ _______ _______ _____ _____    ______ ____
ROOT
ATOM      1  O   UNL     1       1.655   7.146  17.847  0.00  0.00    +0.000 OA
ATOM      2  C   UNL     1       1.813   7.606  18.970  0.00  0.00    +0.000 C 
ATOM      3  N   UNL     1       2.084   6.892  20.125  0.00  0.00    +0.000 N 
ATOM      4  H   UNL     1       1.813   7.343  20.992  0.00  0.00    +0.000 HD
ENDROOT
BRANCH   3   5
ATOM      5  C   UNL     1       2.186   5.488  20.145  0.00  0.00    +0.000 A 
ATOM      6  C   UNL     1       1.197   4.794  20.854  0.00  0.00    +0.000 A 
ATOM      7  C   UNL     1       1.187   3.400  20.867  0.00  0.00    +0.000 A 
ATOM      8  C   UNL     1       2.196   2.690  20.218  0.00  0.00    +0.000 A 
ATOM      9  C   UNL     1       3.213   3.383  19.554  0.00  0.00    +0.000 A 
ATOM     10  C   UNL     1       4.313   2.647  18.904  0.00  0.00    +0.000 A 
ATOM     11  O   UNL     1       4.395   1.428  18.954  0.00  0.00    +0.000 OA
ATOM     12  C   UNL     1       5.307   3.450  18.184  0.00  0.00    +0.000 A 
ATOM     13  C   UNL     1       5.196   4.779  18.208  0.00  0.00    +0.000 A 
ATOM     14  O   UNL     1       4.223   5.477  18.897  0.00  0.00    +0.000 OA
ATOM     15  C   UNL     1       3.210   4.774  19.504  0.00  0.00    +0.000 A 
BRANCH  13  16
ATOM     16  C   UNL     1       6.119   5.586  17.505  0.00  0.00    +0.000 A 
ATOM     17  N   UNL     1       6.553   6.818  17.684  0.00  0.00    +0.000 NA
ATOM     18  N   UNL     1       7.460   7.057  16.677  0.00  0.00    +0.000 NA
ATOM     19  N   UNL     1       7.598   5.991  15.901  0.00  0.00    +0.000 NA
ATOM     20  N   UNL     1       6.776   5.071  16.421  0.00  0.00    +0.000 N 
ATOM     21  H   UNL     1       6.725   4.138  16.024  0.00  0.00    +0.000 HD
ENDBRANCH  13  16
ENDBRANCH   3   5
BRANCH   2  22
ATOM     22  C   UNL     1       1.602   9.054  19.189  0.00  0.00    +0.000 A 
ATOM     23  C   UNL     1       1.152   9.478  20.437  0.00  0.00    +0.000 A 
ATOM     24  C   UNL     1       0.941  10.837  20.670  0.00  0.00    +0.000 A 
ATOM     25  C   UNL     1       1.167  11.776  19.659  0.00  0.00    +0.000 A 
ATOM     26  C   UNL     1       1.608  11.340  18.407  0.00  0.00    +0.000 A 
ATOM     27  C   UNL     1       1.830   9.981  18.166  0.00  0.00    +0.000 A 
BRANCH  25  28
ATOM     28  O   UNL     1       0.985  13.129  19.796  0.00  0.00    +0.000 OA
BRANCH  28  29
ATOM     29  C   UNL     1      -0.201  13.643  19.181  0.00  0.00    +0.000 C 
BRANCH  29  30
ATOM     30  C   UNL     1      -1.340  13.749  20.187  0.00  0.00    +0.000 C 
BRANCH  30  31
ATOM     31  C   UNL     1      -2.090  12.427  20.348  0.00  0.00    +0.000 C 
BRANCH  31  32
ATOM     32  C   UNL     1      -3.323  12.395  19.447  0.00  0.00    +0.000 C 
BRANCH  32  33
ATOM     33  C   UNL     1      -3.118  11.510  18.245  0.00  0.00    +0.000 A 
ATOM     34  C   UNL     1      -2.009  10.659  18.163  0.00  0.00    +0.000 A 
ATOM     35  C   UNL     1      -1.832   9.838  17.047  0.00  0.00    +0.000 A 
ATOM     36  C   UNL     1      -2.755   9.868  16.004  0.00  0.00    +0.000 A 
ATOM     37  C   UNL     1      -3.853  10.724  16.070  0.00  0.00    +0.000 A 
ATOM     38  C   UNL     1      -4.032  11.544  17.183  0.00  0.00    +0.000 A 
ENDBRANCH  32  33
ENDBRANCH  31  32
ENDBRANCH  30  31
ENDBRANCH  29  30
ENDBRANCH  28  29
ENDBRANCH  25  28
ENDBRANCH   2  22
TORSDOF 9
ENDMDL
MODEL 6
REMARK VINA RESULT:      -8.2      2.050      4.005
REMARK  Name = 
REMARK  9 active torsions:
REMARK  status: ('A' for Active; 'I' for Inactive)
REMARK    1  A    between atoms: C_2  and  C_20
REMARK    2  A    between atoms: N_3  and  C_4
REMARK    3  A    between atoms: C_12  and  C_13
REMARK    4  A    between atoms: C_23  and  O_24
REMARK    5  A    between atoms: O_24  and  C_25
REMARK    6  A    between atoms: C_25  and  C_26
REMARK    7  A    between atoms: C_26  and  C_27
REMARK    8  A    between atoms: C_27  and  C_28
REMARK    9  A    between atoms: C_28  and  C_29
REMARK                            x       y       z     vdW  Elec       q    Type
REMARK                         _______ _______ _______ _____ _____    ______ ____
ROOT
ATOM      1  O   UNL     1       1.664  10.256  18.817  0.00  0.00    +0.000 OA
ATOM      2  C   UNL     1       1.364   9.194  19.346  0.00  0.00    +0.000 C 
ATOM      3  N   UNL     1       0.407   9.001  20.329  0.00  0.00    +0.000 N 
ATOM      4  H   UNL     1       0.540   8.184  20.914  0.00  0.00    +0.000 HD
ENDROOT
BRANCH   3   5
ATOM      5  C   UNL     1      -0.345  10.059  20.876  0.00  0.00    +0.000 A 
ATOM      6  C   UNL     1      -0.079  10.398  22.208  0.00  0.00    +0.000 A 
ATOM      7  C   UNL     1      -0.731  11.477  22.804  0.00  0.00    +0.000 A 
ATOM      8  C   UNL     1      -1.694  12.188  22.091  0.00  0.00    +0.000 A 
ATOM      9  C   UNL     1      -1.999  11.816  20.777  0.00  0.00    +0.000 A 
ATOM     10  C   UNL     1      -3.049  12.529  20.026  0.00  0.00    +0.000 A 
ATOM     11  O   UNL     1      -3.706  13.429  20.529  0.00  0.00    +0.000 OA
ATOM     12  C   UNL     1      -3.264  12.110  18.637  0.00  0.00    +0.000 A 
ATOM     13  C   UNL     1      -2.554  11.087  18.159  0.00  0.00    +0.000 A 
ATOM     14  O   UNL     1      -1.638  10.353  18.889  0.00  0.00    +0.000 OA
ATOM     15  C   UNL     1      -1.325  10.765  20.161  0.00  0.00    +0.000 A 
BRANCH  13  16
ATOM     16  C   UNL     1      -2.714  10.670  16.818  0.00  0.00    +0.000 A 
ATOM     17  N   UNL     1      -2.348   9.585  16.166  0.00  0.00    +0.000 NA
ATOM     18  N   UNL     1      -2.794   9.743  14.874  0.00  0.00    +0.000 NA
ATOM     19  N   UNL     1      -3.437  10.894  14.733  0.00  0.00    +0.000 NA
ATOM     20  N   UNL     1      -3.401  11.466  15.942  0.00  0.00    +0.000 N 
ATOM     21  H   UNL     1      -3.863  12.355  16.110  0.00  0.00    +0.000 HD
ENDBRANCH  13  16
ENDBRANCH   3   5
BRANCH   2  22
ATOM     22  C   UNL     1       2.142   7.980  19.013  0.00  0.00    +0.000 A 
ATOM     23  C   UNL     1       2.896   7.975  17.841  0.00  0.00    +0.000 A 
ATOM     24  C   UNL     1       3.635   6.843  17.500  0.00  0.00    +0.000 A 
ATOM     25  C   UNL     1       3.620   5.710  18.319  0.00  0.00    +0.000 A 
ATOM     26  C   UNL     1       2.853   5.720  19.487  0.00  0.00    +0.000 A 
ATOM     27  C   UNL     1       2.114   6.853  19.841  0.00  0.00    +0.000 A 
BRANCH  25  28
ATOM     28  O   UNL     1       4.312   4.554  18.063  0.00  0.00    +0.000 OA
BRANCH  28  29
ATOM     29  C   UNL     1       5.458   4.340  18.894  0.00  0.00    +0.000 C 
BRANCH  29  30
ATOM     30  C   UNL     1       6.628   5.209  18.451  0.00  0.00    +0.000 C 
BRANCH  30  31
ATOM     31  C   UNL     1       7.246   4.719  17.142  0.00  0.00    +0.000 C 
BRANCH  31  32
ATOM     32  C   UNL     1       6.966   5.707  16.011  0.00  0.00    +0.000 C 
BRANCH  32  33
ATOM     33  C   UNL     1       6.750   5.009  14.694  0.00  0.00    +0.000 A 
ATOM     34  C   UNL     1       5.650   4.164  14.504  0.00  0.00    +0.000 A 
ATOM     35  C   UNL     1       5.454   3.527  13.277  0.00  0.00    +0.000 A 
ATOM     36  C   UNL     1       6.360   3.722  12.236  0.00  0.00    +0.000 A 
ATOM     37  C   UNL     1       7.465   4.550  12.421  0.00  0.00    +0.000 A 
ATOM     38  C   UNL     1       7.662   5.187  13.646  0.00  0.00    +0.000 A 
ENDBRANCH  32  33
ENDBRANCH  31  32
ENDBRANCH  30  31
ENDBRANCH  29  30
ENDBRANCH  28  29
ENDBRANCH  25  28
ENDBRANCH   2  22
TORSDOF 9
ENDMDL
MODEL 7
REMARK VINA RESULT:      -8.2      6.112     10.169
REMARK  Name = 
REMARK  9 active torsions:
REMARK  status: ('A' for Active; 'I' for Inactive)
REMARK    1  A    between atoms: C_2  and  C_20
REMARK    2  A    between atoms: N_3  and  C_4
REMARK    3  A    between atoms: C_12  and  C_13
REMARK    4  A    between atoms: C_23  and  O_24
REMARK    5  A    between atoms: O_24  and  C_25
REMARK    6  A    between atoms: C_25  and  C_26
REMARK    7  A    between atoms: C_26  and  C_27
REMARK    8  A    between atoms: C_27  and  C_28
REMARK    9  A    between atoms: C_28  and  C_29
REMARK                            x       y       z     vdW  Elec       q    Type
REMARK                         _______ _______ _______ _____ _____    ______ ____
ROOT
ATOM      1  O   UNL     1       8.417   7.117  18.818  0.00  0.00    +0.000 OA
ATOM      2  C   UNL     1       7.880   7.997  18.159  0.00  0.00    +0.000 C 
ATOM      3  N   UNL     1       6.870   7.833  17.227  0.00  0.00    +0.000 N 
ATOM      4  H   UNL     1       6.804   8.557  16.520  0.00  0.00    +0.000 HD
ENDROOT
BRANCH   3   5
ATOM      5  C   UNL     1       6.341   6.570  16.893  0.00  0.00    +0.000 A 
ATOM      6  C   UNL     1       7.159   5.727  16.131  0.00  0.00    +0.000 A 
ATOM      7  C   UNL     1       6.738   4.435  15.816  0.00  0.00    +0.000 A 
ATOM      8  C   UNL     1       5.476   3.998  16.212  0.00  0.00    +0.000 A 
ATOM      9  C   UNL     1       4.637   4.859  16.929  0.00  0.00    +0.000 A 
ATOM     10  C   UNL     1       3.282   4.427  17.314  0.00  0.00    +0.000 A 
ATOM     11  O   UNL     1       2.834   3.335  16.993  0.00  0.00    +0.000 OA
ATOM     12  C   UNL     1       2.492   5.372  18.111  0.00  0.00    +0.000 A 
ATOM     13  C   UNL     1       3.011   6.569  18.385  0.00  0.00    +0.000 A 
ATOM     14  O   UNL     1       4.242   7.015  17.944  0.00  0.00    +0.000 OA
ATOM     15  C   UNL     1       5.064   6.136  17.281  0.00  0.00    +0.000 A 
BRANCH  13  16
ATOM     16  C   UNL     1       2.293   7.498  19.173  0.00  0.00    +0.000 A 
ATOM     17  N   UNL     1       1.712   8.648  18.898  0.00  0.00    +0.000 NA
ATOM     18  N   UNL     1       1.157   9.092  20.076  0.00  0.00    +0.000 NA
ATOM     19  N   UNL     1       1.375   8.226  21.057  0.00  0.00    +0.000 NA
ATOM     20  N   UNL     1       2.069   7.228  20.496  0.00  0.00    +0.000 N 
ATOM     21  H   UNL     1       2.331   6.410  21.037  0.00  0.00    +0.000 HD
ENDBRANCH  13  16
ENDBRANCH   3   5
BRANCH   2  22
ATOM     22  C   UNL     1       8.393   9.382  18.257  0.00  0.00    +0.000 A 
ATOM     23  C   UNL     1       7.872  10.346  17.395  0.00  0.00    +0.000 A 
ATOM     24  C   UNL     1       8.341  11.657  17.462  0.00  0.00    +0.000 A 
ATOM     25  C   UNL     1       9.335  12.012  18.379  0.00  0.00    +0.000 A 
ATOM     26  C   UNL     1       9.859  11.037  19.232  0.00  0.00    +0.000 A 
ATOM     27  C   UNL     1       9.390   9.721  19.178  0.00  0.00    +0.000 A 
BRANCH  25  28
ATOM     28  O   UNL     1       9.857  13.274  18.515  0.00  0.00    +0.000 OA
BRANCH  28  29
ATOM     29  C   UNL     1       8.910  14.283  18.879  0.00  0.00    +0.000 C 
BRANCH  29  30
ATOM     30  C   UNL     1       9.526  15.294  19.837  0.00  0.00    +0.000 C 
BRANCH  30  31
ATOM     31  C   UNL     1      10.308  14.619  20.962  0.00  0.00    +0.000 C 
BRANCH  31  32
ATOM     32  C   UNL     1       9.718  14.986  22.323  0.00  0.00    +0.000 C 
BRANCH  32  33
ATOM     33  C   UNL     1       8.980  13.830  22.947  0.00  0.00    +0.000 A 
ATOM     34  C   UNL     1       8.808  12.629  22.247  0.00  0.00    +0.000 A 
ATOM     35  C   UNL     1       8.129  11.561  22.836  0.00  0.00    +0.000 A 
ATOM     36  C   UNL     1       7.611  11.687  24.123  0.00  0.00    +0.000 A 
ATOM     37  C   UNL     1       7.764  12.884  24.821  0.00  0.00    +0.000 A 
ATOM     38  C   UNL     1       8.442  13.952  24.234  0.00  0.00    +0.000 A 
ENDBRANCH  32  33
ENDBRANCH  31  32
ENDBRANCH  30  31
ENDBRANCH  29  30
ENDBRANCH  28  29
ENDBRANCH  25  28
ENDBRANCH   2  22
TORSDOF 9
ENDMDL
MODEL 8
REMARK VINA RESULT:      -8.2      3.046      4.132
REMARK  Name = 
REMARK  9 active torsions:
REMARK  status: ('A' for Active; 'I' for Inactive)
REMARK    1  A    between atoms: C_2  and  C_20
REMARK    2  A    between atoms: N_3  and  C_4
REMARK    3  A    between atoms: C_12  and  C_13
REMARK    4  A    between atoms: C_23  and  O_24
REMARK    5  A    between atoms: O_24  and  C_25
REMARK    6  A    between atoms: C_25  and  C_26
REMARK    7  A    between atoms: C_26  and  C_27
REMARK    8  A    between atoms: C_27  and  C_28
REMARK    9  A    between atoms: C_28  and  C_29
REMARK                            x       y       z     vdW  Elec       q    Type
REMARK                         _______ _______ _______ _____ _____    ______ ____
ROOT
ATOM      1  O   UNL     1      -0.398  10.049  19.210  0.00  0.00    +0.000 OA
ATOM      2  C   UNL     1       0.480   9.695  19.986  0.00  0.00    +0.000 C 
ATOM      3  N   UNL     1       0.771  10.255  21.218  0.00  0.00    +0.000 N 
ATOM      4  H   UNL     1       1.719  10.119  21.549  0.00  0.00    +0.000 HD
ENDROOT
BRANCH   3   5
ATOM      5  C   UNL     1       0.073  11.366  21.731  0.00  0.00    +0.000 A 
ATOM      6  C   UNL     1      -1.036  11.094  22.542  0.00  0.00    +0.000 A 
ATOM      7  C   UNL     1      -1.740  12.135  23.145  0.00  0.00    +0.000 A 
ATOM      8  C   UNL     1      -1.376  13.457  22.897  0.00  0.00    +0.000 A 
ATOM      9  C   UNL     1      -0.301  13.732  22.045  0.00  0.00    +0.000 A 
ATOM     10  C   UNL     1       0.067  15.126  21.736  0.00  0.00    +0.000 A 
ATOM     11  O   UNL     1      -0.568  16.074  22.173  0.00  0.00    +0.000 OA
ATOM     12  C   UNL     1       1.241  15.322  20.878  0.00  0.00    +0.000 A 
ATOM     13  C   UNL     1       1.861  14.248  20.386  0.00  0.00    +0.000 A 
ATOM     14  O   UNL     1       1.463  12.942  20.594  0.00  0.00    +0.000 OA
ATOM     15  C   UNL     1       0.432  12.697  21.469  0.00  0.00    +0.000 A 
BRANCH  13  16
ATOM     16  C   UNL     1       3.011  14.395  19.578  0.00  0.00    +0.000 A 
ATOM     17  N   UNL     1       3.310  13.991  18.359  0.00  0.00    +0.000 NA
ATOM     18  N   UNL     1       4.583  14.446  18.103  0.00  0.00    +0.000 NA
ATOM     19  N   UNL     1       5.057  15.132  19.135  0.00  0.00    +0.000 NA
ATOM     20  N   UNL     1       4.078  15.113  20.047  0.00  0.00    +0.000 N 
ATOM     21  H   UNL     1       4.180  15.609  20.928  0.00  0.00    +0.000 HD
ENDBRANCH  13  16
ENDBRANCH   3   5
BRANCH   2  22
ATOM     22  C   UNL     1       1.422   8.632  19.568  0.00  0.00    +0.000 A 
ATOM     23  C   UNL     1       2.008   8.722  18.307  0.00  0.00    +0.000 A 
ATOM     24  C   UNL     1       2.894   7.731  17.886  0.00  0.00    +0.000 A 
ATOM     25  C   UNL     1       3.193   6.645  18.713  0.00  0.00    +0.000 A 
ATOM     26  C   UNL     1       2.592   6.557  19.971  0.00  0.00    +0.000 A 
ATOM     27  C   UNL     1       1.708   7.549  20.406  0.00  0.00    +0.000 A 
BRANCH  25  28
ATOM     28  O   UNL     1       4.050   5.625  18.383  0.00  0.00    +0.000 OA
BRANCH  28  29
ATOM     29  C   UNL     1       4.499   5.631  17.024  0.00  0.00    +0.000 C 
BRANCH  29  30
ATOM     30  C   UNL     1       4.580   4.216  16.466  0.00  0.00    +0.000 C 
BRANCH  30  31
ATOM     31  C   UNL     1       3.316   3.408  16.760  0.00  0.00    +0.000 C 
BRANCH  31  32
ATOM     32  C   UNL     1       3.583   2.368  17.847  0.00  0.00    +0.000 C 
BRANCH  32  33
ATOM     33  C   UNL     1       2.786   2.642  19.096  0.00  0.00    +0.000 A 
ATOM     34  C   UNL     1       1.451   3.056  19.016  0.00  0.00    +0.000 A 
ATOM     35  C   UNL     1       0.718   3.301  20.179  0.00  0.00    +0.000 A 
ATOM     36  C   UNL     1       1.316   3.142  21.428  0.00  0.00    +0.000 A 
ATOM     37  C   UNL     1       2.649   2.746  21.516  0.00  0.00    +0.000 A 
ATOM     38  C   UNL     1       3.382   2.500  20.355  0.00  0.00    +0.000 A 
ENDBRANCH  32  33
ENDBRANCH  31  32
ENDBRANCH  30  31
ENDBRANCH  29  30
ENDBRANCH  28  29
ENDBRANCH  25  28
ENDBRANCH   2  22
TORSDOF 9
ENDMDL
MODEL 9
REMARK VINA RESULT:      -8.1      3.301      9.903
REMARK  Name = 
REMARK  9 active torsions:
REMARK  status: ('A' for Active; 'I' for Inactive)
REMARK    1  A    between atoms: C_2  and  C_20
REMARK    2  A    between atoms: N_3  and  C_4
REMARK    3  A    between atoms: C_12  and  C_13
REMARK    4  A    between atoms: C_23  and  O_24
REMARK    5  A    between atoms: O_24  and  C_25
REMARK    6  A    between atoms: C_25  and  C_26
REMARK    7  A    between atoms: C_26  and  C_27
REMARK    8  A    between atoms: C_27  and  C_28
REMARK    9  A    between atoms: C_28  and  C_29
REMARK                            x       y       z     vdW  Elec       q    Type
REMARK                         _______ _______ _______ _____ _____    ______ ____
ROOT
ATOM      1  O   UNL     1       2.263   8.392  17.307  0.00  0.00    +0.000 OA
ATOM      2  C   UNL     1       2.152   8.092  18.488  0.00  0.00    +0.000 C 
ATOM      3  N   UNL     1       2.389   6.850  19.052  0.00  0.00    +0.000 N 
ATOM      4  H   UNL     1       1.904   6.664  19.923  0.00  0.00    +0.000 HD
ENDROOT
BRANCH   3   5
ATOM      5  C   UNL     1       2.777   5.731  18.290  0.00  0.00    +0.000 A 
ATOM      6  C   UNL     1       1.805   4.745  18.080  0.00  0.00    +0.000 A 
ATOM      7  C   UNL     1       2.086   3.637  17.281  0.00  0.00    +0.000 A 
ATOM      8  C   UNL     1       3.357   3.480  16.732  0.00  0.00    +0.000 A 
ATOM      9  C   UNL     1       4.345   4.438  16.984  0.00  0.00    +0.000 A 
ATOM     10  C   UNL     1       5.707   4.262  16.449  0.00  0.00    +0.000 A 
ATOM     11  O   UNL     1       6.028   3.270  15.810  0.00  0.00    +0.000 OA
ATOM     12  C   UNL     1       6.664   5.342  16.716  0.00  0.00    +0.000 A 
ATOM     13  C   UNL     1       6.272   6.374  17.464  0.00  0.00    +0.000 A 
ATOM     14  O   UNL     1       5.026   6.497  18.048  0.00  0.00    +0.000 OA
ATOM     15  C   UNL     1       4.061   5.567  17.749  0.00  0.00    +0.000 A 
BRANCH  13  16
ATOM     16  C   UNL     1       7.156   7.447  17.721  0.00  0.00    +0.000 A 
ATOM     17  N   UNL     1       7.256   8.665  17.229  0.00  0.00    +0.000 NA
ATOM     18  N   UNL     1       8.314   9.258  17.879  0.00  0.00    +0.000 NA
ATOM     19  N   UNL     1       8.847   8.431  18.768  0.00  0.00    +0.000 NA
ATOM     20  N   UNL     1       8.122   7.309  18.682  0.00  0.00    +0.000 N 
ATOM     21  H   UNL     1       8.309   6.522  19.295  0.00  0.00    +0.000 HD
ENDBRANCH  13  16
ENDBRANCH   3   5
BRANCH   2  22
ATOM     22  C   UNL     1       1.614   9.094  19.436  0.00  0.00    +0.000 A 
ATOM     23  C   UNL     1       1.483  10.413  19.005  0.00  0.00    +0.000 A 
ATOM     24  C   UNL     1       0.984  11.378  19.878  0.00  0.00    +0.000 A 
ATOM     25  C   UNL     1       0.623  11.037  21.185  0.00  0.00    +0.000 A 
ATOM     26  C   UNL     1       0.769   9.715  21.613  0.00  0.00    +0.000 A 
ATOM     27  C   UNL     1       1.261   8.738  20.742  0.00  0.00    +0.000 A 
BRANCH  25  28
ATOM     28  O   UNL     1       0.126  11.918  22.113  0.00  0.00    +0.000 OA
BRANCH  28  29
ATOM     29  C   UNL     1      -1.193  11.621  22.581  0.00  0.00    +0.000 C 
BRANCH  29  30
ATOM     30  C   UNL     1      -2.124  12.812  22.392  0.00  0.00    +0.000 C 
BRANCH  30  31
ATOM     31  C   UNL     1      -3.428  12.418  21.699  0.00  0.00    +0.000 C 
BRANCH  31  32
ATOM     32  C   UNL     1      -3.520  13.067  20.318  0.00  0.00    +0.000 C 
BRANCH  32  33
ATOM     33  C   UNL     1      -3.433  12.049  19.211  0.00  0.00    +0.000 A 
ATOM     34  C   UNL     1      -2.247  11.340  18.981  0.00  0.00    +0.000 A 
ATOM     35  C   UNL     1      -2.178  10.394  17.957  0.00  0.00    +0.000 A 
ATOM     36  C   UNL     1      -3.289  10.156  17.150  0.00  0.00    +0.000 A 
ATOM     37  C   UNL     1      -4.469  10.867  17.362  0.00  0.00    +0.000 A 
ATOM     38  C   UNL     1      -4.539  11.813  18.385  0.00  0.00    +0.000 A 
ENDBRANCH  32  33
ENDBRANCH  31  32
ENDBRANCH  30  31
ENDBRANCH  29  30
ENDBRANCH  28  29
ENDBRANCH  25  28
ENDBRANCH   2  22
TORSDOF 9
ENDMDL
