MODEL 1
REMARK VINA RESULT:      -7.1      0.000      0.000
REMARK  Name = 
REMARK  12 active torsions:
REMARK  status: ('A' for Active; 'I' for Inactive)
REMARK    1  A    between atoms: C_1  and  O_2
REMARK    2  A    between atoms: O_2  and  C_3
REMARK    3  A    between atoms: N_7  and  C_8
REMARK    4  A    between atoms: N_11  and  C_12
REMARK    5  A    between atoms: N_21  and  C_22
REMARK    6  A    between atoms: C_28  and  C_29
REMARK    7  A    between atoms: C_30  and  C_31
REMARK    8  A    between atoms: C_31  and  N_32
REMARK    9  A    between atoms: N_32  and  C_33
REMARK   10  A    between atoms: N_32  and  C_34
REMARK   11  A    between atoms: C_34  and  C_35
REMARK   12  A    between atoms: C_35  and  O_36
REMARK                            x       y       z     vdW  Elec       q    Type
REMARK                         _______ _______ _______ _____ _____    ______ ____
ROOT
ATOM      1  C   UNL     1       2.233   7.653  19.342  0.00  0.00    +0.000 A 
ATOM      2  C   UNL     1       2.124   9.008  19.033  0.00  0.00    +0.000 A 
ATOM      3  C   UNL     1       1.146   9.834  19.649  0.00  0.00    +0.000 A 
ATOM      4  C   UNL     1       0.947  11.189  19.334  0.00  0.00    +0.000 A 
ATOM      5  N   UNL     1       1.752  11.780  18.337  0.00  0.00    +0.000 N 
ATOM      6  N   UNL     1      -0.041  11.923  19.904  0.00  0.00    +0.000 NA
ATOM      7  C   UNL     1      -0.785  11.348  20.857  0.00  0.00    +0.000 A 
ATOM      8  N   UNL     1      -1.824  12.076  21.406  0.00  0.00    +0.000 N 
ATOM      9  C   UNL     1      -2.503  13.085  20.611  0.00  0.00    +0.000 C 
ATOM     10  C   UNL     1      -2.346  14.503  21.160  0.00  0.00    +0.000 C 
ATOM     11  C   UNL     1      -3.092  14.723  22.481  0.00  0.00    +0.000 C 
ATOM     12  N   UNL     1      -2.353  14.370  23.698  0.00  0.00    +0.000 NA
ATOM     13  C   UNL     1      -3.234  14.389  24.865  0.00  0.00    +0.000 C 
ATOM     14  C   UNL     1      -1.556  13.129  23.626  0.00  0.00    +0.000 C 
ATOM     15  C   UNL     1      -2.135  11.940  22.822  0.00  0.00    +0.000 C 
ATOM     16  N   UNL     1      -0.591  10.081  21.277  0.00  0.00    +0.000 NA
ATOM     17  C   UNL     1       0.336   9.315  20.655  0.00  0.00    +0.000 A 
ATOM     18  C   UNL     1       0.492   7.975  20.999  0.00  0.00    +0.000 A 
ATOM     19  C   UNL     1       1.412   7.129  20.335  0.00  0.00    +0.000 A 
ATOM     20  H   UNL     1       1.463  11.450  17.418  0.00  0.00    +0.000 HD
ENDROOT
BRANCH   5  21
ATOM     21  C   UNL     1       1.946  13.234  18.419  0.00  0.00    +0.000 C 
ATOM     22  C   UNL     1       3.124  13.720  17.577  0.00  0.00    +0.000 C 
ATOM     23  C   UNL     1       3.324  15.224  17.773  0.00  0.00    +0.000 C 
ATOM     24  N   UNL     1       3.536  15.552  19.190  0.00  0.00    +0.000 NA
ATOM     25  C   UNL     1       3.791  16.984  19.351  0.00  0.00    +0.000 C 
ATOM     26  C   UNL     1       2.385  15.141  20.007  0.00  0.00    +0.000 C 
ATOM     27  C   UNL     1       2.135  13.636  19.889  0.00  0.00    +0.000 C 
ENDBRANCH   5  21
BRANCH   1  29
ATOM     28  C   UNL     1       3.639   7.622  17.420  0.00  0.00    +0.000 C 
ATOM     29  O   UNL     1       3.191   6.988  18.614  0.00  0.00    +0.000 OA
ENDBRANCH   1  29
BRANCH  19  30
ATOM     30  C   UNL     1       1.471   5.743  20.683  0.00  0.00    +0.000 C 
ATOM     31  C   UNL     1       1.541   4.463  20.923  0.00  0.00    +0.000 C 
BRANCH  31  32
ATOM     32  C   UNL     1       1.623   2.971  21.201  0.00  0.00    +0.000 C 
BRANCH  32  33
ATOM     33  N   UNL     1       1.816   2.242  19.943  0.00  0.00    +0.000 NA
ATOM     34  C   UNL     1       0.642   2.376  19.062  0.00  0.00    +0.000 C 
BRANCH  33  35
ATOM     35  C   UNL     1       3.024   2.727  19.243  0.00  0.00    +0.000 C 
BRANCH  35  36
ATOM     36  C   UNL     1       4.343   2.320  19.928  0.00  0.00    +0.000 C 
BRANCH  36  37
ATOM     37  O   UNL     1       5.436   3.114  19.482  0.00  0.00    +0.000 OA
ATOM     38  H   UNL     1       5.328   3.988  19.901  0.00  0.00    +0.000 HD
ENDBRANCH  36  37
ENDBRANCH  35  36
ENDBRANCH  33  35
ENDBRANCH  32  33
ENDBRANCH  31  32
ENDBRANCH  19  30
TORSDOF 8
ENDMDL
MODEL 2
REMARK VINA RESULT:      -7.1      0.951      1.065
REMARK  Name = 
REMARK  12 active torsions:
REMARK  status: ('A' for Active; 'I' for Inactive)
REMARK    1  A    between atoms: C_1  and  O_2
REMARK    2  A    between atoms: O_2  and  C_3
REMARK    3  A    between atoms: N_7  and  C_8
REMARK    4  A    between atoms: N_11  and  C_12
REMARK    5  A    between atoms: N_21  and  C_22
REMARK    6  A    between atoms: C_28  and  C_29
REMARK    7  A    between atoms: C_30  and  C_31
REMARK    8  A    between atoms: C_31  and  N_32
REMARK    9  A    between atoms: N_32  and  C_33
REMARK   10  A    between atoms: N_32  and  C_34
REMARK   11  A    between atoms: C_34  and  C_35
REMARK   12  A    between atoms: C_35  and  O_36
REMARK                            x       y       z     vdW  Elec       q    Type
REMARK                         _______ _______ _______ _____ _____    ______ ____
ROOT
ATOM      1  C   UNL     1       2.238   7.735  19.250  0.00  0.00    +0.000 A 
ATOM      2  C   UNL     1       2.067   9.078  18.917  0.00  0.00    +0.000 A 
ATOM      3  C   UNL     1       1.096   9.887  19.567  0.00  0.00    +0.000 A 
ATOM      4  C   UNL     1       0.835  11.227  19.233  0.00  0.00    +0.000 A 
ATOM      5  N   UNL     1       1.565  11.819  18.181  0.00  0.00    +0.000 N 
ATOM      6  N   UNL     1      -0.145  11.941  19.841  0.00  0.00    +0.000 NA
ATOM      7  C   UNL     1      -0.817  11.365  20.845  0.00  0.00    +0.000 A 
ATOM      8  N   UNL     1      -1.848  12.072  21.435  0.00  0.00    +0.000 N 
ATOM      9  C   UNL     1      -2.603  13.039  20.656  0.00  0.00    +0.000 C 
ATOM     10  C   UNL     1      -2.464  14.474  21.164  0.00  0.00    +0.000 C 
ATOM     11  C   UNL     1      -3.145  14.701  22.519  0.00  0.00    +0.000 C 
ATOM     12  N   UNL     1      -2.330  14.401  23.701  0.00  0.00    +0.000 NA
ATOM     13  C   UNL     1      -3.147  14.420  24.914  0.00  0.00    +0.000 C 
ATOM     14  C   UNL     1      -1.496  13.186  23.613  0.00  0.00    +0.000 C 
ATOM     15  C   UNL     1      -2.078  11.960  22.868  0.00  0.00    +0.000 C 
ATOM     16  N   UNL     1      -0.557  10.115  21.282  0.00  0.00    +0.000 NA
ATOM     17  C   UNL     1       0.360   9.366  20.627  0.00  0.00    +0.000 A 
ATOM     18  C   UNL     1       0.580   8.040  20.992  0.00  0.00    +0.000 A 
ATOM     19  C   UNL     1       1.490   7.208  20.297  0.00  0.00    +0.000 A 
ATOM     20  H   UNL     1       1.237  11.458  17.287  0.00  0.00    +0.000 HD
ENDROOT
BRANCH   5  21
ATOM     21  C   UNL     1       1.713  13.281  18.221  0.00  0.00    +0.000 C 
ATOM     22  C   UNL     1       2.735  13.741  19.258  0.00  0.00    +0.000 C 
ATOM     23  C   UNL     1       2.780  15.269  19.309  0.00  0.00    +0.000 C 
ATOM     24  N   UNL     1       1.455  15.830  19.609  0.00  0.00    +0.000 NA
ATOM     25  C   UNL     1       1.530  17.288  19.718  0.00  0.00    +0.000 C 
ATOM     26  C   UNL     1       0.472  15.442  18.587  0.00  0.00    +0.000 C 
ATOM     27  C   UNL     1       0.345  13.921  18.494  0.00  0.00    +0.000 C 
ENDBRANCH   5  21
BRANCH   1  29
ATOM     28  C   UNL     1       3.670   7.786  17.346  0.00  0.00    +0.000 C 
ATOM     29  O   UNL     1       3.177   7.085  18.485  0.00  0.00    +0.000 OA
ENDBRANCH   1  29
BRANCH  19  30
ATOM     30  C   UNL     1       1.615   5.834  20.672  0.00  0.00    +0.000 C 
ATOM     31  C   UNL     1       1.700   4.561  20.940  0.00  0.00    +0.000 C 
BRANCH  31  32
ATOM     32  C   UNL     1       1.800   3.077  21.252  0.00  0.00    +0.000 C 
BRANCH  32  33
ATOM     33  N   UNL     1       2.027   2.324  20.014  0.00  0.00    +0.000 NA
ATOM     34  C   UNL     1       0.856   2.399  19.121  0.00  0.00    +0.000 C 
BRANCH  33  35
ATOM     35  C   UNL     1       3.224   2.830  19.311  0.00  0.00    +0.000 C 
BRANCH  35  36
ATOM     36  C   UNL     1       3.599   2.015  18.058  0.00  0.00    +0.000 C 
BRANCH  36  37
ATOM     37  O   UNL     1       3.926   0.669  18.383  0.00  0.00    +0.000 OA
ATOM     38  H   UNL     1       3.748   0.567  19.337  0.00  0.00    +0.000 HD
ENDBRANCH  36  37
ENDBRANCH  35  36
ENDBRANCH  33  35
ENDBRANCH  32  33
ENDBRANCH  31  32
ENDBRANCH  19  30
TORSDOF 8
ENDMDL
MODEL 3
REMARK VINA RESULT:      -6.6      0.837      1.092
REMARK  Name = 
REMARK  12 active torsions:
REMARK  status: ('A' for Active; 'I' for Inactive)
REMARK    1  A    between atoms: C_1  and  O_2
REMARK    2  A    between atoms: O_2  and  C_3
REMARK    3  A    between atoms: N_7  and  C_8
REMARK    4  A    between atoms: N_11  and  C_12
REMARK    5  A    between atoms: N_21  and  C_22
REMARK    6  A    between atoms: C_28  and  C_29
REMARK    7  A    between atoms: C_30  and  C_31
REMARK    8  A    between atoms: C_31  and  N_32
REMARK    9  A    between atoms: N_32  and  C_33
REMARK   10  A    between atoms: N_32  and  C_34
REMARK   11  A    between atoms: C_34  and  C_35
REMARK   12  A    between atoms: C_35  and  O_36
REMARK                            x       y       z     vdW  Elec       q    Type
REMARK                         _______ _______ _______ _____ _____    ______ ____
ROOT
ATOM      1  C   UNL     1       2.273   7.561  19.485  0.00  0.00    +0.000 A 
ATOM      2  C   UNL     1       2.211   8.931  19.229  0.00  0.00    +0.000 A 
ATOM      3  C   UNL     1       1.218   9.754  19.824  0.00  0.00    +0.000 A 
ATOM      4  C   UNL     1       1.067  11.125  19.558  0.00  0.00    +0.000 A 
ATOM      5  N   UNL     1       1.940  11.738  18.635  0.00  0.00    +0.000 N 
ATOM      6  N   UNL     1       0.063  11.857  20.103  0.00  0.00    +0.000 NA
ATOM      7  C   UNL     1      -0.747  11.261  20.985  0.00  0.00    +0.000 A 
ATOM      8  N   UNL     1      -1.800  11.989  21.506  0.00  0.00    +0.000 N 
ATOM      9  C   UNL     1      -2.410  13.048  20.719  0.00  0.00    +0.000 C 
ATOM     10  C   UNL     1      -2.254  14.437  21.337  0.00  0.00    +0.000 C 
ATOM     11  C   UNL     1      -3.070  14.618  22.622  0.00  0.00    +0.000 C 
ATOM     12  N   UNL     1      -2.411  14.196  23.862  0.00  0.00    +0.000 NA
ATOM     13  C   UNL     1      -3.357  14.187  24.977  0.00  0.00    +0.000 C 
ATOM     14  C   UNL     1      -1.638  12.941  23.782  0.00  0.00    +0.000 C 
ATOM     15  C   UNL     1      -2.195  11.801  22.895  0.00  0.00    +0.000 C 
ATOM     16  N   UNL     1      -0.605   9.973  21.360  0.00  0.00    +0.000 NA
ATOM     17  C   UNL     1       0.340   9.212  20.758  0.00  0.00    +0.000 A 
ATOM     18  C   UNL     1       0.447   7.855  21.052  0.00  0.00    +0.000 A 
ATOM     19  C   UNL     1       1.385   7.016  20.405  0.00  0.00    +0.000 A 
ATOM     20  H   UNL     1       1.697  11.455  17.687  0.00  0.00    +0.000 HD
ENDROOT
BRANCH   5  21
ATOM     21  C   UNL     1       2.161  13.183  18.792  0.00  0.00    +0.000 C 
ATOM     22  C   UNL     1       0.920  14.008  18.456  0.00  0.00    +0.000 C 
ATOM     23  C   UNL     1       1.239  15.500  18.555  0.00  0.00    +0.000 C 
ATOM     24  N   UNL     1       2.354  15.865  17.669  0.00  0.00    +0.000 NA
ATOM     25  C   UNL     1       2.602  17.307  17.728  0.00  0.00    +0.000 C 
ATOM     26  C   UNL     1       3.573  15.120  18.017  0.00  0.00    +0.000 C 
ATOM     27  C   UNL     1       3.345  13.611  17.913  0.00  0.00    +0.000 C 
ENDBRANCH   5  21
BRANCH   1  29
ATOM     28  C   UNL     1       3.649   7.482  17.541  0.00  0.00    +0.000 C 
ATOM     29  O   UNL     1       3.257   6.906  18.784  0.00  0.00    +0.000 OA
ENDBRANCH   1  29
BRANCH  19  30
ATOM     30  C   UNL     1       1.394   5.616  20.695  0.00  0.00    +0.000 C 
ATOM     31  C   UNL     1       1.333   4.332  20.918  0.00  0.00    +0.000 C 
BRANCH  31  32
ATOM     32  C   UNL     1       1.261   2.836  21.176  0.00  0.00    +0.000 C 
BRANCH  32  33
ATOM     33  N   UNL     1       1.695   2.105  19.981  0.00  0.00    +0.000 NA
ATOM     34  C   UNL     1       0.806   2.377  18.837  0.00  0.00    +0.000 C 
BRANCH  33  35
ATOM     35  C   UNL     1       3.085   2.464  19.629  0.00  0.00    +0.000 C 
BRANCH  35  36
ATOM     36  C   UNL     1       3.531   1.936  18.251  0.00  0.00    +0.000 C 
BRANCH  36  37
ATOM     37  O   UNL     1       4.282   0.733  18.365  0.00  0.00    +0.000 OA
ATOM     38  H   UNL     1       4.198   0.276  17.508  0.00  0.00    +0.000 HD
ENDBRANCH  36  37
ENDBRANCH  35  36
ENDBRANCH  33  35
ENDBRANCH  32  33
ENDBRANCH  31  32
ENDBRANCH  19  30
TORSDOF 8
ENDMDL
MODEL 4
REMARK VINA RESULT:      -6.4      3.231      5.794
REMARK  Name = 
REMARK  12 active torsions:
REMARK  status: ('A' for Active; 'I' for Inactive)
REMARK    1  A    between atoms: C_1  and  O_2
REMARK    2  A    between atoms: O_2  and  C_3
REMARK    3  A    between atoms: N_7  and  C_8
REMARK    4  A    between atoms: N_11  and  C_12
REMARK    5  A    between atoms: N_21  and  C_22
REMARK    6  A    between atoms: C_28  and  C_29
REMARK    7  A    between atoms: C_30  and  C_31
REMARK    8  A    between atoms: C_31  and  N_32
REMARK    9  A    between atoms: N_32  and  C_33
REMARK   10  A    between atoms: N_32  and  C_34
REMARK   11  A    between atoms: C_34  and  C_35
REMARK   12  A    between atoms: C_35  and  O_36
REMARK                            x       y       z     vdW  Elec       q    Type
REMARK                         _______ _______ _______ _____ _____    ______ ____
ROOT
ATOM      1  C   UNL     1      -1.639  10.465  17.908  0.00  0.00    +0.000 A 
ATOM      2  C   UNL     1      -2.711  11.241  18.345  0.00  0.00    +0.000 A 
ATOM      3  C   UNL     1      -2.675  11.925  19.590  0.00  0.00    +0.000 A 
ATOM      4  C   UNL     1      -3.746  12.671  20.112  0.00  0.00    +0.000 A 
ATOM      5  N   UNL     1      -4.944  12.747  19.372  0.00  0.00    +0.000 N 
ATOM      6  N   UNL     1      -3.687  13.255  21.335  0.00  0.00    +0.000 NA
ATOM      7  C   UNL     1      -2.537  13.182  22.015  0.00  0.00    +0.000 A 
ATOM      8  N   UNL     1      -2.487  13.735  23.281  0.00  0.00    +0.000 N 
ATOM      9  C   UNL     1      -3.689  13.790  24.096  0.00  0.00    +0.000 C 
ATOM     10  C   UNL     1      -4.145  15.213  24.418  0.00  0.00    +0.000 C 
ATOM     11  C   UNL     1      -3.196  15.947  25.372  0.00  0.00    +0.000 C 
ATOM     12  N   UNL     1      -2.073  16.648  24.741  0.00  0.00    +0.000 NA
ATOM     13  C   UNL     1      -1.112  17.101  25.747  0.00  0.00    +0.000 C 
ATOM     14  C   UNL     1      -1.415  15.935  23.629  0.00  0.00    +0.000 C 
ATOM     15  C   UNL     1      -1.273  14.397  23.737  0.00  0.00    +0.000 C 
ATOM     16  N   UNL     1      -1.437  12.563  21.537  0.00  0.00    +0.000 NA
ATOM     17  C   UNL     1      -1.513  11.905  20.356  0.00  0.00    +0.000 A 
ATOM     18  C   UNL     1      -0.426  11.175  19.883  0.00  0.00    +0.000 A 
ATOM     19  C   UNL     1      -0.484  10.430  18.681  0.00  0.00    +0.000 A 
ATOM     20  H   UNL     1      -5.442  11.860  19.427  0.00  0.00    +0.000 HD
ENDROOT
BRANCH   5  21
ATOM     21  C   UNL     1      -5.791  13.926  19.603  0.00  0.00    +0.000 C 
ATOM     22  C   UNL     1      -6.792  14.163  18.475  0.00  0.00    +0.000 C 
ATOM     23  C   UNL     1      -7.580  15.448  18.734  0.00  0.00    +0.000 C 
ATOM     24  N   UNL     1      -6.682  16.603  18.875  0.00  0.00    +0.000 NA
ATOM     25  C   UNL     1      -7.456  17.832  19.057  0.00  0.00    +0.000 C 
ATOM     26  C   UNL     1      -5.749  16.414  19.995  0.00  0.00    +0.000 C 
ATOM     27  C   UNL     1      -4.897  15.159  19.797  0.00  0.00    +0.000 C 
ENDBRANCH   5  21
BRANCH   1  29
ATOM     28  C   UNL     1      -2.776  10.451  15.815  0.00  0.00    +0.000 C 
ATOM     29  O   UNL     1      -1.862   9.826  16.712  0.00  0.00    +0.000 OA
ENDBRANCH   1  29
BRANCH  19  30
ATOM     30  C   UNL     1       0.641   9.639  18.289  0.00  0.00    +0.000 C 
ATOM     31  C   UNL     1       1.705   8.943  17.998  0.00  0.00    +0.000 C 
BRANCH  31  32
ATOM     32  C   UNL     1       2.945   8.132  17.660  0.00  0.00    +0.000 C 
BRANCH  32  33
ATOM     33  N   UNL     1       2.740   6.731  18.043  0.00  0.00    +0.000 NA
ATOM     34  C   UNL     1       3.860   5.884  17.591  0.00  0.00    +0.000 C 
BRANCH  33  35
ATOM     35  C   UNL     1       2.584   6.610  19.507  0.00  0.00    +0.000 C 
BRANCH  35  36
ATOM     36  C   UNL     1       2.424   5.158  19.997  0.00  0.00    +0.000 C 
BRANCH  36  37
ATOM     37  O   UNL     1       1.201   4.969  20.698  0.00  0.00    +0.000 OA
ATOM     38  H   UNL     1       1.364   5.258  21.616  0.00  0.00    +0.000 HD
ENDBRANCH  36  37
ENDBRANCH  35  36
ENDBRANCH  33  35
ENDBRANCH  32  33
ENDBRANCH  31  32
ENDBRANCH  19  30
TORSDOF 8
ENDMDL
MODEL 5
REMARK VINA RESULT:      -6.3      3.155      5.894
REMARK  Name = 
REMARK  12 active torsions:
REMARK  status: ('A' for Active; 'I' for Inactive)
REMARK    1  A    between atoms: C_1  and  O_2
REMARK    2  A    between atoms: O_2  and  C_3
REMARK    3  A    between atoms: N_7  and  C_8
REMARK    4  A    between atoms: N_11  and  C_12
REMARK    5  A    between atoms: N_21  and  C_22
REMARK    6  A    between atoms: C_28  and  C_29
REMARK    7  A    between atoms: C_30  and  C_31
REMARK    8  A    between atoms: C_31  and  N_32
REMARK    9  A    between atoms: N_32  and  C_33
REMARK   10  A    between atoms: N_32  and  C_34
REMARK   11  A    between atoms: C_34  and  C_35
REMARK   12  A    between atoms: C_35  and  O_36
REMARK                            x       y       z     vdW  Elec       q    Type
REMARK                         _______ _______ _______ _____ _____    ______ ____
ROOT
ATOM      1  C   UNL     1      -1.640  10.509  17.873  0.00  0.00    +0.000 A 
ATOM      2  C   UNL     1      -2.710  11.284  18.318  0.00  0.00    +0.000 A 
ATOM      3  C   UNL     1      -2.672  11.953  19.571  0.00  0.00    +0.000 A 
ATOM      4  C   UNL     1      -3.741  12.696  20.101  0.00  0.00    +0.000 A 
ATOM      5  N   UNL     1      -4.939  12.783  19.362  0.00  0.00    +0.000 N 
ATOM      6  N   UNL     1      -3.680  13.267  21.330  0.00  0.00    +0.000 NA
ATOM      7  C   UNL     1      -2.530  13.184  22.009  0.00  0.00    +0.000 A 
ATOM      8  N   UNL     1      -2.479  13.722  23.282  0.00  0.00    +0.000 N 
ATOM      9  C   UNL     1      -3.681  13.771  24.097  0.00  0.00    +0.000 C 
ATOM     10  C   UNL     1      -4.133  15.192  24.434  0.00  0.00    +0.000 C 
ATOM     11  C   UNL     1      -3.182  15.913  25.396  0.00  0.00    +0.000 C 
ATOM     12  N   UNL     1      -2.057  16.618  24.773  0.00  0.00    +0.000 NA
ATOM     13  C   UNL     1      -1.095  17.057  25.784  0.00  0.00    +0.000 C 
ATOM     14  C   UNL     1      -1.402  15.915  23.653  0.00  0.00    +0.000 C 
ATOM     15  C   UNL     1      -1.263  14.376  23.744  0.00  0.00    +0.000 C 
ATOM     16  N   UNL     1      -1.433  12.567  21.524  0.00  0.00    +0.000 NA
ATOM     17  C   UNL     1      -1.510  11.922  20.336  0.00  0.00    +0.000 A 
ATOM     18  C   UNL     1      -0.425  11.195  19.855  0.00  0.00    +0.000 A 
ATOM     19  C   UNL     1      -0.485  10.463  18.645  0.00  0.00    +0.000 A 
ATOM     20  H   UNL     1      -5.439  11.897  19.408  0.00  0.00    +0.000 HD
ENDROOT
BRANCH   5  21
ATOM     21  C   UNL     1      -5.783  13.962  19.606  0.00  0.00    +0.000 C 
ATOM     22  C   UNL     1      -4.996  15.143  20.170  0.00  0.00    +0.000 C 
ATOM     23  C   UNL     1      -5.942  16.303  20.482  0.00  0.00    +0.000 C 
ATOM     24  N   UNL     1      -6.996  15.893  21.421  0.00  0.00    +0.000 NA
ATOM     25  C   UNL     1      -7.852  17.031  21.759  0.00  0.00    +0.000 C 
ATOM     26  C   UNL     1      -7.799  14.793  20.868  0.00  0.00    +0.000 C 
ATOM     27  C   UNL     1      -6.927  13.576  20.556  0.00  0.00    +0.000 C 
ENDBRANCH   5  21
BRANCH   1  29
ATOM     28  C   UNL     1      -2.708  10.565  15.744  0.00  0.00    +0.000 C 
ATOM     29  O   UNL     1      -1.865   9.885  16.669  0.00  0.00    +0.000 OA
ENDBRANCH   1  29
BRANCH  19  30
ATOM     30  C   UNL     1       0.638   9.674  18.244  0.00  0.00    +0.000 C 
ATOM     31  C   UNL     1       1.675   8.938  17.956  0.00  0.00    +0.000 C 
BRANCH  31  32
ATOM     32  C   UNL     1       2.884   8.080  17.621  0.00  0.00    +0.000 C 
BRANCH  32  33
ATOM     33  N   UNL     1       2.695   6.726  18.154  0.00  0.00    +0.000 NA
ATOM     34  C   UNL     1       3.847   5.862  17.839  0.00  0.00    +0.000 C 
BRANCH  33  35
ATOM     35  C   UNL     1       2.487   6.768  19.616  0.00  0.00    +0.000 C 
BRANCH  35  36
ATOM     36  C   UNL     1       2.145   5.398  20.233  0.00  0.00    +0.000 C 
BRANCH  36  37
ATOM     37  O   UNL     1       1.346   4.610  19.359  0.00  0.00    +0.000 OA
ATOM     38  H   UNL     1       0.772   4.065  19.930  0.00  0.00    +0.000 HD
ENDBRANCH  36  37
ENDBRANCH  35  36
ENDBRANCH  33  35
ENDBRANCH  32  33
ENDBRANCH  31  32
ENDBRANCH  19  30
TORSDOF 8
ENDMDL
MODEL 6
REMARK VINA RESULT:      -6.3      1.401      1.738
REMARK  Name = 
REMARK  12 active torsions:
REMARK  status: ('A' for Active; 'I' for Inactive)
REMARK    1  A    between atoms: C_1  and  O_2
REMARK    2  A    between atoms: O_2  and  C_3
REMARK    3  A    between atoms: N_7  and  C_8
REMARK    4  A    between atoms: N_11  and  C_12
REMARK    5  A    between atoms: N_21  and  C_22
REMARK    6  A    between atoms: C_28  and  C_29
REMARK    7  A    between atoms: C_30  and  C_31
REMARK    8  A    between atoms: C_31  and  N_32
REMARK    9  A    between atoms: N_32  and  C_33
REMARK   10  A    between atoms: N_32  and  C_34
REMARK   11  A    between atoms: C_34  and  C_35
REMARK   12  A    between atoms: C_35  and  O_36
REMARK                            x       y       z     vdW  Elec       q    Type
REMARK                         _______ _______ _______ _____ _____    ______ ____
ROOT
ATOM      1  C   UNL     1       2.085   8.329  19.218  0.00  0.00    +0.000 A 
ATOM      2  C   UNL     1       1.802   9.652  18.882  0.00  0.00    +0.000 A 
ATOM      3  C   UNL     1       0.858  10.420  19.616  0.00  0.00    +0.000 A 
ATOM      4  C   UNL     1       0.485  11.735  19.288  0.00  0.00    +0.000 A 
ATOM      5  N   UNL     1       1.066  12.343  18.155  0.00  0.00    +0.000 N 
ATOM      6  N   UNL     1      -0.467  12.406  19.982  0.00  0.00    +0.000 NA
ATOM      7  C   UNL     1      -0.997  11.817  21.060  0.00  0.00    +0.000 A 
ATOM      8  N   UNL     1      -2.002  12.477  21.742  0.00  0.00    +0.000 N 
ATOM      9  C   UNL     1      -2.888  13.382  21.030  0.00  0.00    +0.000 C 
ATOM     10  C   UNL     1      -2.782  14.835  21.495  0.00  0.00    +0.000 C 
ATOM     11  C   UNL     1      -3.332  15.054  22.910  0.00  0.00    +0.000 C 
ATOM     12  N   UNL     1      -2.383  14.828  24.005  0.00  0.00    +0.000 NA
ATOM     13  C   UNL     1      -3.070  14.829  25.296  0.00  0.00    +0.000 C 
ATOM     14  C   UNL     1      -1.493  13.661  23.852  0.00  0.00    +0.000 C 
ATOM     15  C   UNL     1      -2.075  12.386  23.193  0.00  0.00    +0.000 C 
ATOM     16  N   UNL     1      -0.621  10.594  21.489  0.00  0.00    +0.000 NA
ATOM     17  C   UNL     1       0.267   9.883  20.755  0.00  0.00    +0.000 A 
ATOM     18  C   UNL     1       0.600   8.581  21.118  0.00  0.00    +0.000 A 
ATOM     19  C   UNL     1       1.482   7.786  20.347  0.00  0.00    +0.000 A 
ATOM     20  H   UNL     1       0.670  11.943  17.306  0.00  0.00    +0.000 HD
ENDROOT
BRANCH   5  21
ATOM     21  C   UNL     1       1.132  13.811  18.153  0.00  0.00    +0.000 C 
ATOM     22  C   UNL     1       2.197  14.354  19.104  0.00  0.00    +0.000 C 
ATOM     23  C   UNL     1       2.157  15.883  19.120  0.00  0.00    +0.000 C 
ATOM     24  N   UNL     1       0.826  16.376  19.504  0.00  0.00    +0.000 NA
ATOM     25  C   UNL     1       0.823  17.837  19.578  0.00  0.00    +0.000 C 
ATOM     26  C   UNL     1      -0.203  15.907  18.565  0.00  0.00    +0.000 C 
ATOM     27  C   UNL     1      -0.248  14.379  18.513  0.00  0.00    +0.000 C 
ENDBRANCH   5  21
BRANCH   1  29
ATOM     28  C   UNL     1       2.487   6.608  17.620  0.00  0.00    +0.000 C 
ATOM     29  O   UNL     1       2.977   7.716  18.371  0.00  0.00    +0.000 OA
ENDBRANCH   1  29
BRANCH  19  30
ATOM     30  C   UNL     1       1.725   6.430  20.730  0.00  0.00    +0.000 C 
ATOM     31  C   UNL     1       1.937   5.172  21.002  0.00  0.00    +0.000 C 
BRANCH  31  32
ATOM     32  C   UNL     1       2.186   3.706  21.318  0.00  0.00    +0.000 C 
BRANCH  32  33
ATOM     33  N   UNL     1       2.643   3.010  20.111  0.00  0.00    +0.000 NA
ATOM     34  C   UNL     1       3.998   2.457  20.294  0.00  0.00    +0.000 C 
BRANCH  33  35
ATOM     35  C   UNL     1       1.706   1.924  19.752  0.00  0.00    +0.000 C 
BRANCH  35  36
ATOM     36  C   UNL     1       0.721   2.302  18.629  0.00  0.00    +0.000 C 
BRANCH  36  37
ATOM     37  O   UNL     1       1.180   3.419  17.877  0.00  0.00    +0.000 OA
ATOM     38  H   UNL     1       1.734   3.057  17.159  0.00  0.00    +0.000 HD
ENDBRANCH  36  37
ENDBRANCH  35  36
ENDBRANCH  33  35
ENDBRANCH  32  33
ENDBRANCH  31  32
ENDBRANCH  19  30
TORSDOF 8
ENDMDL
MODEL 7
REMARK VINA RESULT:      -6.2      3.228      5.617
REMARK  Name = 
REMARK  12 active torsions:
REMARK  status: ('A' for Active; 'I' for Inactive)
REMARK    1  A    between atoms: C_1  and  O_2
REMARK    2  A    between atoms: O_2  and  C_3
REMARK    3  A    between atoms: N_7  and  C_8
REMARK    4  A    between atoms: N_11  and  C_12
REMARK    5  A    between atoms: N_21  and  C_22
REMARK    6  A    between atoms: C_28  and  C_29
REMARK    7  A    between atoms: C_30  and  C_31
REMARK    8  A    between atoms: C_31  and  N_32
REMARK    9  A    between atoms: N_32  and  C_33
REMARK   10  A    between atoms: N_32  and  C_34
REMARK   11  A    between atoms: C_34  and  C_35
REMARK   12  A    between atoms: C_35  and  O_36
REMARK                            x       y       z     vdW  Elec       q    Type
REMARK                         _______ _______ _______ _____ _____    ______ ____
ROOT
ATOM      1  C   UNL     1      -1.571  10.383  17.881  0.00  0.00    +0.000 A 
ATOM      2  C   UNL     1      -2.632  11.172  18.324  0.00  0.00    +0.000 A 
ATOM      3  C   UNL     1      -2.590  11.837  19.579  0.00  0.00    +0.000 A 
ATOM      4  C   UNL     1      -3.651  12.594  20.106  0.00  0.00    +0.000 A 
ATOM      5  N   UNL     1      -4.844  12.702  19.362  0.00  0.00    +0.000 N 
ATOM      6  N   UNL     1      -3.588  13.159  21.338  0.00  0.00    +0.000 NA
ATOM      7  C   UNL     1      -2.443  13.056  22.023  0.00  0.00    +0.000 A 
ATOM      8  N   UNL     1      -2.390  13.588  23.298  0.00  0.00    +0.000 N 
ATOM      9  C   UNL     1      -3.595  13.653  24.107  0.00  0.00    +0.000 C 
ATOM     10  C   UNL     1      -4.028  15.079  24.447  0.00  0.00    +0.000 C 
ATOM     11  C   UNL     1      -3.071  15.782  25.417  0.00  0.00    +0.000 C 
ATOM     12  N   UNL     1      -1.932  16.473  24.803  0.00  0.00    +0.000 NA
ATOM     13  C   UNL     1      -0.969  16.893  25.820  0.00  0.00    +0.000 C 
ATOM     14  C   UNL     1      -1.282  15.764  23.683  0.00  0.00    +0.000 C 
ATOM     15  C   UNL     1      -1.167  14.222  23.769  0.00  0.00    +0.000 C 
ATOM     16  N   UNL     1      -1.352  12.424  21.541  0.00  0.00    +0.000 NA
ATOM     17  C   UNL     1      -1.433  11.785  20.350  0.00  0.00    +0.000 A 
ATOM     18  C   UNL     1      -0.356  11.043  19.873  0.00  0.00    +0.000 A 
ATOM     19  C   UNL     1      -0.421  10.317  18.659  0.00  0.00    +0.000 A 
ATOM     20  H   UNL     1      -5.357  11.823  19.401  0.00  0.00    +0.000 HD
ENDROOT
BRANCH   5  21
ATOM     21  C   UNL     1      -5.670  13.892  19.606  0.00  0.00    +0.000 C 
ATOM     22  C   UNL     1      -6.659  14.165  18.475  0.00  0.00    +0.000 C 
ATOM     23  C   UNL     1      -7.426  15.460  18.749  0.00  0.00    +0.000 C 
ATOM     24  N   UNL     1      -6.508  16.597  18.915  0.00  0.00    +0.000 NA
ATOM     25  C   UNL     1      -7.261  17.837  19.111  0.00  0.00    +0.000 C 
ATOM     26  C   UNL     1      -5.586  16.373  20.037  0.00  0.00    +0.000 C 
ATOM     27  C   UNL     1      -4.756  15.106  19.825  0.00  0.00    +0.000 C 
ENDBRANCH   5  21
BRANCH   1  29
ATOM     28  C   UNL     1      -2.698  10.420  15.782  0.00  0.00    +0.000 C 
ATOM     29  O   UNL     1      -1.799   9.767  16.674  0.00  0.00    +0.000 OA
ENDBRANCH   1  29
BRANCH  19  30
ATOM     30  C   UNL     1       0.692   9.512  18.261  0.00  0.00    +0.000 C 
ATOM     31  C   UNL     1       1.754   8.826  17.943  0.00  0.00    +0.000 C 
BRANCH  31  32
ATOM     32  C   UNL     1       2.993   8.026  17.573  0.00  0.00    +0.000 C 
BRANCH  32  33
ATOM     33  N   UNL     1       3.141   6.890  18.489  0.00  0.00    +0.000 NA
ATOM     34  C   UNL     1       2.083   5.886  18.271  0.00  0.00    +0.000 C 
BRANCH  33  35
ATOM     35  C   UNL     1       4.468   6.261  18.324  0.00  0.00    +0.000 C 
BRANCH  35  36
ATOM     36  C   UNL     1       4.633   4.948  19.114  0.00  0.00    +0.000 C 
BRANCH  36  37
ATOM     37  O   UNL     1       5.934   4.394  18.951  0.00  0.00    +0.000 OA
ATOM     38  H   UNL     1       6.525   4.907  19.534  0.00  0.00    +0.000 HD
ENDBRANCH  36  37
ENDBRANCH  35  36
ENDBRANCH  33  35
ENDBRANCH  32  33
ENDBRANCH  31  32
ENDBRANCH  19  30
TORSDOF 8
ENDMDL
MODEL 8
REMARK VINA RESULT:      -6.1      1.440      1.658
REMARK  Name = 
REMARK  12 active torsions:
REMARK  status: ('A' for Active; 'I' for Inactive)
REMARK    1  A    between atoms: C_1  and  O_2
REMARK    2  A    between atoms: O_2  and  C_3
REMARK    3  A    between atoms: N_7  and  C_8
REMARK    4  A    between atoms: N_11  and  C_12
REMARK    5  A    between atoms: N_21  and  C_22
REMARK    6  A    between atoms: C_28  and  C_29
REMARK    7  A    between atoms: C_30  and  C_31
REMARK    8  A    between atoms: C_31  and  N_32
REMARK    9  A    between atoms: N_32  and  C_33
REMARK   10  A    between atoms: N_32  and  C_34
REMARK   11  A    between atoms: C_34  and  C_35
REMARK   12  A    between atoms: C_35  and  O_36
REMARK                            x       y       z     vdW  Elec       q    Type
REMARK                         _______ _______ _______ _____ _____    ______ ____
ROOT
ATOM      1  C   UNL     1       2.845   8.416  17.726  0.00  0.00    +0.000 A 
ATOM      2  C   UNL     1       2.761   9.807  17.783  0.00  0.00    +0.000 A 
ATOM      3  C   UNL     1       1.740  10.460  18.525  0.00  0.00    +0.000 A 
ATOM      4  C   UNL     1       1.568  11.854  18.570  0.00  0.00    +0.000 A 
ATOM      5  N   UNL     1       2.447  12.671  17.829  0.00  0.00    +0.000 N 
ATOM      6  N   UNL     1       0.540  12.429  19.242  0.00  0.00    +0.000 NA
ATOM      7  C   UNL     1      -0.275  11.638  19.950  0.00  0.00    +0.000 A 
ATOM      8  N   UNL     1      -1.352  12.215  20.597  0.00  0.00    +0.000 N 
ATOM      9  C   UNL     1      -1.967  13.414  20.054  0.00  0.00    +0.000 C 
ATOM     10  C   UNL     1      -1.850  14.631  20.972  0.00  0.00    +0.000 C 
ATOM     11  C   UNL     1      -2.694  14.506  22.245  0.00  0.00    +0.000 C 
ATOM     12  N   UNL     1      -2.050  13.825  23.374  0.00  0.00    +0.000 NA
ATOM     13  C   UNL     1      -3.018  13.552  24.436  0.00  0.00    +0.000 C 
ATOM     14  C   UNL     1      -1.252  12.632  23.031  0.00  0.00    +0.000 C 
ATOM     15  C   UNL     1      -1.770  11.713  21.898  0.00  0.00    +0.000 C 
ATOM     16  N   UNL     1      -0.115  10.300  20.029  0.00  0.00    +0.000 NA
ATOM     17  C   UNL     1       0.856   9.709  19.293  0.00  0.00    +0.000 A 
ATOM     18  C   UNL     1       0.983   8.323  19.277  0.00  0.00    +0.000 A 
ATOM     19  C   UNL     1       1.950   7.664  18.480  0.00  0.00    +0.000 A 
ATOM     20  H   UNL     1       2.228  12.605  16.837  0.00  0.00    +0.000 HD
ENDROOT
BRANCH   5  21
ATOM     21  C   UNL     1       2.636  14.047  18.312  0.00  0.00    +0.000 C 
ATOM     22  C   UNL     1       3.576  14.859  17.423  0.00  0.00    +0.000 C 
ATOM     23  C   UNL     1       3.797  16.247  18.024  0.00  0.00    +0.000 C 
ATOM     24  N   UNL     1       4.333  16.156  19.390  0.00  0.00    +0.000 NA
ATOM     25  C   UNL     1       4.600  17.492  19.925  0.00  0.00    +0.000 C 
ATOM     26  C   UNL     1       3.412  15.426  20.273  0.00  0.00    +0.000 C 
ATOM     27  C   UNL     1       3.160  14.008  19.754  0.00  0.00    +0.000 C 
ENDBRANCH   5  21
BRANCH   1  29
ATOM     28  C   UNL     1       4.912   7.245  17.560  0.00  0.00    +0.000 C 
ATOM     29  O   UNL     1       3.854   7.950  16.918  0.00  0.00    +0.000 OA
ENDBRANCH   1  29
BRANCH  19  30
ATOM     30  C   UNL     1       1.981   6.235  18.448  0.00  0.00    +0.000 C 
ATOM     31  C   UNL     1       2.066   4.937  18.361  0.00  0.00    +0.000 C 
BRANCH  31  32
ATOM     32  C   UNL     1       2.166   3.423  18.259  0.00  0.00    +0.000 C 
BRANCH  32  33
ATOM     33  N   UNL     1       3.553   3.035  17.982  0.00  0.00    +0.000 NA
ATOM     34  C   UNL     1       4.076   3.736  16.794  0.00  0.00    +0.000 C 
BRANCH  33  35
ATOM     35  C   UNL     1       4.415   3.320  19.148  0.00  0.00    +0.000 C 
BRANCH  35  36
ATOM     36  C   UNL     1       4.269   2.296  20.291  0.00  0.00    +0.000 C 
BRANCH  36  37
ATOM     37  O   UNL     1       5.347   1.368  20.310  0.00  0.00    +0.000 OA
ATOM     38  H   UNL     1       5.332   0.914  19.447  0.00  0.00    +0.000 HD
ENDBRANCH  36  37
ENDBRANCH  35  36
ENDBRANCH  33  35
ENDBRANCH  32  33
ENDBRANCH  31  32
ENDBRANCH  19  30
TORSDOF 8
ENDMDL
MODEL 9
REMARK VINA RESULT:      -6.0      1.522      1.907
REMARK  Name = 
REMARK  12 active torsions:
REMARK  status: ('A' for Active; 'I' for Inactive)
REMARK    1  A    between atoms: C_1  and  O_2
REMARK    2  A    between atoms: O_2  and  C_3
REMARK    3  A    between atoms: N_7  and  C_8
REMARK    4  A    between atoms: N_11  and  C_12
REMARK    5  A    between atoms: N_21  and  C_22
REMARK    6  A    between atoms: C_28  and  C_29
REMARK    7  A    between atoms: C_30  and  C_31
REMARK    8  A    between atoms: C_31  and  N_32
REMARK    9  A    between atoms: N_32  and  C_33
REMARK   10  A    between atoms: N_32  and  C_34
REMARK   11  A    between atoms: C_34  and  C_35
REMARK   12  A    between atoms: C_35  and  O_36
REMARK                            x       y       z     vdW  Elec       q    Type
REMARK                         _______ _______ _______ _____ _____    ______ ____
ROOT
ATOM      1  C   UNL     1       2.875   8.343  17.539  0.00  0.00    +0.000 A 
ATOM      2  C   UNL     1       2.808   9.732  17.652  0.00  0.00    +0.000 A 
ATOM      3  C   UNL     1       1.782  10.367  18.402  0.00  0.00    +0.000 A 
ATOM      4  C   UNL     1       1.626  11.760  18.502  0.00  0.00    +0.000 A 
ATOM      5  N   UNL     1       2.529  12.596  17.812  0.00  0.00    +0.000 N 
ATOM      6  N   UNL     1       0.594  12.321  19.179  0.00  0.00    +0.000 NA
ATOM      7  C   UNL     1      -0.244  11.512  19.839  0.00  0.00    +0.000 A 
ATOM      8  N   UNL     1      -1.325  12.076  20.490  0.00  0.00    +0.000 N 
ATOM      9  C   UNL     1      -1.915  13.305  19.986  0.00  0.00    +0.000 C 
ATOM     10  C   UNL     1      -1.800  14.481  20.956  0.00  0.00    +0.000 C 
ATOM     11  C   UNL     1      -2.668  14.316  22.208  0.00  0.00    +0.000 C 
ATOM     12  N   UNL     1      -2.054  13.580  23.318  0.00  0.00    +0.000 NA
ATOM     13  C   UNL     1      -3.044  13.276  24.351  0.00  0.00    +0.000 C 
ATOM     14  C   UNL     1      -1.264  12.392  22.941  0.00  0.00    +0.000 C 
ATOM     15  C   UNL     1      -1.773  11.527  21.762  0.00  0.00    +0.000 C 
ATOM     16  N   UNL     1      -0.102  10.171  19.865  0.00  0.00    +0.000 NA
ATOM     17  C   UNL     1       0.874   9.597  19.123  0.00  0.00    +0.000 A 
ATOM     18  C   UNL     1       0.985   8.211  19.052  0.00  0.00    +0.000 A 
ATOM     19  C   UNL     1       1.957   7.573  18.245  0.00  0.00    +0.000 A 
ATOM     20  H   UNL     1       2.327  12.573  16.813  0.00  0.00    +0.000 HD
ENDROOT
BRANCH   5  21
ATOM     21  C   UNL     1       2.727  13.947  18.354  0.00  0.00    +0.000 C 
ATOM     22  C   UNL     1       3.663  14.796  17.496  0.00  0.00    +0.000 C 
ATOM     23  C   UNL     1       3.894  16.155  18.157  0.00  0.00    +0.000 C 
ATOM     24  N   UNL     1       4.439  16.001  19.514  0.00  0.00    +0.000 NA
ATOM     25  C   UNL     1       4.715  17.311  20.106  0.00  0.00    +0.000 C 
ATOM     26  C   UNL     1       3.521  15.234  20.369  0.00  0.00    +0.000 C 
ATOM     27  C   UNL     1       3.261  13.842  19.790  0.00  0.00    +0.000 C 
ENDBRANCH   5  21
BRANCH   1  29
ATOM     28  C   UNL     1       4.936   7.161  17.363  0.00  0.00    +0.000 C 
ATOM     29  O   UNL     1       3.893   7.897  16.731  0.00  0.00    +0.000 OA
ENDBRANCH   1  29
BRANCH  19  30
ATOM     30  C   UNL     1       1.970   6.146  18.154  0.00  0.00    +0.000 C 
ATOM     31  C   UNL     1       2.032   4.852  18.007  0.00  0.00    +0.000 C 
BRANCH  31  32
ATOM     32  C   UNL     1       2.105   3.343  17.836  0.00  0.00    +0.000 C 
BRANCH  32  33
ATOM     33  N   UNL     1       2.451   2.715  19.116  0.00  0.00    +0.000 NA
ATOM     34  C   UNL     1       3.662   3.321  19.698  0.00  0.00    +0.000 C 
BRANCH  33  35
ATOM     35  C   UNL     1       1.328   2.829  20.070  0.00  0.00    +0.000 C 
BRANCH  35  36
ATOM     36  C   UNL     1       1.756   3.286  21.478  0.00  0.00    +0.000 C 
BRANCH  36  37
ATOM     37  O   UNL     1       1.401   2.333  22.473  0.00  0.00    +0.000 OA
ATOM     38  H   UNL     1       2.188   1.772  22.607  0.00  0.00    +0.000 HD
ENDBRANCH  36  37
ENDBRANCH  35  36
ENDBRANCH  33  35
ENDBRANCH  32  33
ENDBRANCH  31  32
ENDBRANCH  19  30
TORSDOF 8
ENDMDL
