MODEL 1
REMARK VINA RESULT:      -7.0      0.000      0.000
REMARK  Name = 
REMARK  10 active torsions:
REMARK  status: ('A' for Active; 'I' for Inactive)
REMARK    1  A    between atoms: C_1  and  O_2
REMARK    2  A    between atoms: O_2  and  C_3
REMARK    3  A    between atoms: C_6  and  O_7
REMARK    4  A    between atoms: O_7  and  C_8
REMARK    5  A    between atoms: C_8  and  C_9
REMARK    6  A    between atoms: C_9  and  O_10
REMARK    7  A    between atoms: C_9  and  C_11
REMARK    8  A    between atoms: C_11  and  N_12
REMARK    9  A    between atoms: C_14  and  C_15
REMARK   10  A    between atoms: C_17  and  C_18
REMARK                            x       y       z     vdW  Elec       q    Type
REMARK                         _______ _______ _______ _____ _____    ______ ____
ROOT
ATOM      1  C   UNL     1       4.667   4.037  19.713  0.00  0.00    +0.000 C 
ENDROOT
BRANCH   1   2
ATOM      2  O   UNL     1       5.222   2.734  19.464  0.00  0.00    +0.000 OA
ATOM      3  H   UNL     1       4.477   2.105  19.528  0.00  0.00    +0.000 HD
ENDBRANCH   1   2
BRANCH   1   4
ATOM      4  C   UNL     1       3.139   3.966  19.614  0.00  0.00    +0.000 C 
BRANCH   4   5
ATOM      5  O   UNL     1       2.699   4.938  18.655  0.00  0.00    +0.000 OA
BRANCH   5   9
ATOM      6  C   UNL     1       1.416   8.658  20.034  0.00  0.00    +0.000 A 
ATOM      7  C   UNL     1       1.890   8.479  18.733  0.00  0.00    +0.000 A 
ATOM      8  C   UNL     1       2.302   7.211  18.305  0.00  0.00    +0.000 A 
ATOM      9  C   UNL     1       2.275   6.132  19.184  0.00  0.00    +0.000 A 
ATOM     10  C   UNL     1       1.804   6.311  20.484  0.00  0.00    +0.000 A 
ATOM     11  C   UNL     1       1.382   7.571  20.906  0.00  0.00    +0.000 A 
BRANCH   6  13
ATOM     12  C   UNL     1      -0.302  10.266  19.996  0.00  0.00    +0.000 C 
ATOM     13  O   UNL     1       1.034   9.931  20.350  0.00  0.00    +0.000 OA
ENDBRANCH   6  13
ENDBRANCH   5   9
ENDBRANCH   4   5
ENDBRANCH   1   4
BRANCH   1  14
ATOM     14  C   UNL     1       5.320   5.042  18.735  0.00  0.00    +0.000 C 
BRANCH  14  15
ATOM     15  N   UNL     1       6.763   4.858  18.487  0.00  0.00    +0.000 NA
ATOM     16  C   UNL     1       7.063   4.372  17.121  0.00  0.00    +0.000 C 
ATOM     17  C   UNL     1       6.817   5.433  16.027  0.00  0.00    +0.000 C 
ATOM     18  C   UNL     1       7.093   4.869  14.640  0.00  0.00    +0.000 C 
ATOM     19  O   UNL     1       7.643   6.588  16.264  0.00  0.00    +0.000 OA
ATOM     20  C   UNL     1       7.318   7.166  17.544  0.00  0.00    +0.000 C 
ATOM     21  C   UNL     1       8.168   8.409  17.783  0.00  0.00    +0.000 C 
ATOM     22  C   UNL     1       7.512   6.129  18.681  0.00  0.00    +0.000 C 
ENDBRANCH  14  15
ENDBRANCH   1  14
TORSDOF 7
ENDMDL
MODEL 2
REMARK VINA RESULT:      -6.8      2.471      7.236
REMARK  Name = 
REMARK  10 active torsions:
REMARK  status: ('A' for Active; 'I' for Inactive)
REMARK    1  A    between atoms: C_1  and  O_2
REMARK    2  A    between atoms: O_2  and  C_3
REMARK    3  A    between atoms: C_6  and  O_7
REMARK    4  A    between atoms: O_7  and  C_8
REMARK    5  A    between atoms: C_8  and  C_9
REMARK    6  A    between atoms: C_9  and  O_10
REMARK    7  A    between atoms: C_9  and  C_11
REMARK    8  A    between atoms: C_11  and  N_12
REMARK    9  A    between atoms: C_14  and  C_15
REMARK   10  A    between atoms: C_17  and  C_18
REMARK                            x       y       z     vdW  Elec       q    Type
REMARK                         _______ _______ _______ _____ _____    ______ ____
ROOT
ATOM      1  C   UNL     1       6.778   6.285  17.476  0.00  0.00    +0.000 C 
ENDROOT
BRANCH   1   2
ATOM      2  O   UNL     1       6.207   7.286  16.615  0.00  0.00    +0.000 OA
ATOM      3  H   UNL     1       6.462   7.038  15.705  0.00  0.00    +0.000 HD
ENDBRANCH   1   2
BRANCH   1   4
ATOM      4  C   UNL     1       7.408   5.179  16.622  0.00  0.00    +0.000 C 
BRANCH   4   5
ATOM      5  O   UNL     1       7.659   5.703  15.311  0.00  0.00    +0.000 OA
BRANCH   5   9
ATOM      6  C   UNL     1       5.870   3.441  12.301  0.00  0.00    +0.000 A 
ATOM      7  C   UNL     1       5.320   3.527  13.581  0.00  0.00    +0.000 A 
ATOM      8  C   UNL     1       5.947   4.306  14.562  0.00  0.00    +0.000 A 
ATOM      9  C   UNL     1       7.138   4.968  14.277  0.00  0.00    +0.000 A 
ATOM     10  C   UNL     1       7.688   4.879  12.998  0.00  0.00    +0.000 A 
ATOM     11  C   UNL     1       7.057   4.113  12.019  0.00  0.00    +0.000 A 
BRANCH   6  13
ATOM     12  C   UNL     1       3.866   3.110  11.113  0.00  0.00    +0.000 C 
ATOM     13  O   UNL     1       5.180   2.660  11.418  0.00  0.00    +0.000 OA
ENDBRANCH   6  13
ENDBRANCH   5   9
ENDBRANCH   4   5
ENDBRANCH   1   4
BRANCH   1  14
ATOM     14  C   UNL     1       5.680   5.790  18.447  0.00  0.00    +0.000 C 
BRANCH  14  15
ATOM     15  N   UNL     1       4.387   5.433  17.831  0.00  0.00    +0.000 NA
ATOM     16  C   UNL     1       4.188   3.972  17.698  0.00  0.00    +0.000 C 
ATOM     17  C   UNL     1       3.958   3.260  19.049  0.00  0.00    +0.000 C 
ATOM     18  C   UNL     1       3.808   1.757  18.862  0.00  0.00    +0.000 C 
ATOM     19  O   UNL     1       2.789   3.797  19.696  0.00  0.00    +0.000 OA
ATOM     20  C   UNL     1       2.972   5.205  19.945  0.00  0.00    +0.000 C 
ATOM     21  C   UNL     1       1.749   5.769  20.661  0.00  0.00    +0.000 C 
ATOM     22  C   UNL     1       3.246   5.966  18.621  0.00  0.00    +0.000 C 
ENDBRANCH  14  15
ENDBRANCH   1  14
TORSDOF 7
ENDMDL
MODEL 3
REMARK VINA RESULT:      -6.8      1.583      1.864
REMARK  Name = 
REMARK  10 active torsions:
REMARK  status: ('A' for Active; 'I' for Inactive)
REMARK    1  A    between atoms: C_1  and  O_2
REMARK    2  A    between atoms: O_2  and  C_3
REMARK    3  A    between atoms: C_6  and  O_7
REMARK    4  A    between atoms: O_7  and  C_8
REMARK    5  A    between atoms: C_8  and  C_9
REMARK    6  A    between atoms: C_9  and  O_10
REMARK    7  A    between atoms: C_9  and  C_11
REMARK    8  A    between atoms: C_11  and  N_12
REMARK    9  A    between atoms: C_14  and  C_15
REMARK   10  A    between atoms: C_17  and  C_18
REMARK                            x       y       z     vdW  Elec       q    Type
REMARK                         _______ _______ _______ _____ _____    ______ ____
ROOT
ATOM      1  C   UNL     1       3.044   4.027  17.789  0.00  0.00    +0.000 C 
ENDROOT
BRANCH   1   2
ATOM      2  O   UNL     1       2.258   3.028  17.116  0.00  0.00    +0.000 OA
ATOM      3  H   UNL     1       1.425   2.953  17.621  0.00  0.00    +0.000 HD
ENDBRANCH   1   2
BRANCH   1   4
ATOM      4  C   UNL     1       2.115   5.098  18.371  0.00  0.00    +0.000 C 
BRANCH   4   5
ATOM      5  O   UNL     1       2.918   6.107  18.997  0.00  0.00    +0.000 OA
BRANCH   5   9
ATOM      6  C   UNL     1       1.116   9.865  19.128  0.00  0.00    +0.000 A 
ATOM      7  C   UNL     1       1.708   9.374  17.963  0.00  0.00    +0.000 A 
ATOM      8  C   UNL     1       2.294   8.101  17.958  0.00  0.00    +0.000 A 
ATOM      9  C   UNL     1       2.321   7.337  19.121  0.00  0.00    +0.000 A 
ATOM     10  C   UNL     1       1.732   7.830  20.285  0.00  0.00    +0.000 A 
ATOM     11  C   UNL     1       1.138   9.091  20.287  0.00  0.00    +0.000 A 
BRANCH   6  13
ATOM     12  C   UNL     1       1.495  12.159  18.766  0.00  0.00    +0.000 C 
ATOM     13  O   UNL     1       0.569  11.113  19.027  0.00  0.00    +0.000 OA
ENDBRANCH   6  13
ENDBRANCH   5   9
ENDBRANCH   4   5
ENDBRANCH   1   4
BRANCH   1  14
ATOM     14  C   UNL     1       4.097   4.573  16.796  0.00  0.00    +0.000 C 
BRANCH  14  15
ATOM     15  N   UNL     1       5.465   4.041  16.949  0.00  0.00    +0.000 NA
ATOM     16  C   UNL     1       6.150   3.814  15.655  0.00  0.00    +0.000 C 
ATOM     17  C   UNL     1       6.534   5.123  14.930  0.00  0.00    +0.000 C 
ATOM     18  C   UNL     1       7.191   4.836  13.587  0.00  0.00    +0.000 C 
ATOM     19  O   UNL     1       7.419   5.903  15.756  0.00  0.00    +0.000 OA
ATOM     20  C   UNL     1       6.761   6.242  16.993  0.00  0.00    +0.000 C 
ATOM     21  C   UNL     1       7.683   7.097  17.854  0.00  0.00    +0.000 C 
ATOM     22  C   UNL     1       6.317   4.961  17.748  0.00  0.00    +0.000 C 
ENDBRANCH  14  15
ENDBRANCH   1  14
TORSDOF 7
ENDMDL
MODEL 4
REMARK VINA RESULT:      -6.8      1.351      2.576
REMARK  Name = 
REMARK  10 active torsions:
REMARK  status: ('A' for Active; 'I' for Inactive)
REMARK    1  A    between atoms: C_1  and  O_2
REMARK    2  A    between atoms: O_2  and  C_3
REMARK    3  A    between atoms: C_6  and  O_7
REMARK    4  A    between atoms: O_7  and  C_8
REMARK    5  A    between atoms: C_8  and  C_9
REMARK    6  A    between atoms: C_9  and  O_10
REMARK    7  A    between atoms: C_9  and  C_11
REMARK    8  A    between atoms: C_11  and  N_12
REMARK    9  A    between atoms: C_14  and  C_15
REMARK   10  A    between atoms: C_17  and  C_18
REMARK                            x       y       z     vdW  Elec       q    Type
REMARK                         _______ _______ _______ _____ _____    ______ ____
ROOT
ATOM      1  C   UNL     1       4.426   4.614  18.815  0.00  0.00    +0.000 C 
ENDROOT
BRANCH   1   2
ATOM      2  O   UNL     1       4.884   3.458  19.537  0.00  0.00    +0.000 OA
ATOM      3  H   UNL     1       4.434   3.483  20.404  0.00  0.00    +0.000 HD
ENDBRANCH   1   2
BRANCH   1   4
ATOM      4  C   UNL     1       2.959   4.884  19.167  0.00  0.00    +0.000 C 
BRANCH   4   5
ATOM      5  O   UNL     1       2.907   5.970  20.101  0.00  0.00    +0.000 OA
BRANCH   5   9
ATOM      6  C   UNL     1       1.072   9.521  18.915  0.00  0.00    +0.000 A 
ATOM      7  C   UNL     1       1.010   9.066  20.233  0.00  0.00    +0.000 A 
ATOM      8  C   UNL     1       1.649   7.873  20.594  0.00  0.00    +0.000 A 
ATOM      9  C   UNL     1       2.316   7.118  19.634  0.00  0.00    +0.000 A 
ATOM     10  C   UNL     1       2.376   7.571  18.316  0.00  0.00    +0.000 A 
ATOM     11  C   UNL     1       1.750   8.765  17.961  0.00  0.00    +0.000 A 
BRANCH   6  13
ATOM     12  C   UNL     1      -0.933  10.562  18.254  0.00  0.00    +0.000 C 
ATOM     13  O   UNL     1       0.421  10.696  18.669  0.00  0.00    +0.000 OA
ENDBRANCH   6  13
ENDBRANCH   5   9
ENDBRANCH   4   5
ENDBRANCH   1   4
BRANCH   1  14
ATOM     14  C   UNL     1       4.684   4.383  17.307  0.00  0.00    +0.000 C 
BRANCH  14  15
ATOM     15  N   UNL     1       4.776   5.598  16.475  0.00  0.00    +0.000 NA
ATOM     16  C   UNL     1       5.583   6.672  17.098  0.00  0.00    +0.000 C 
ATOM     17  C   UNL     1       7.093   6.356  17.140  0.00  0.00    +0.000 C 
ATOM     18  C   UNL     1       7.870   7.467  17.832  0.00  0.00    +0.000 C 
ATOM     19  O   UNL     1       7.594   6.161  15.804  0.00  0.00    +0.000 OA
ATOM     20  C   UNL     1       6.912   5.053  15.183  0.00  0.00    +0.000 C 
ATOM     21  C   UNL     1       7.464   4.823  13.781  0.00  0.00    +0.000 C 
ATOM     22  C   UNL     1       5.380   5.301  15.149  0.00  0.00    +0.000 C 
ENDBRANCH  14  15
ENDBRANCH   1  14
TORSDOF 7
ENDMDL
MODEL 5
REMARK VINA RESULT:      -6.7      1.058      2.362
REMARK  Name = 
REMARK  10 active torsions:
REMARK  status: ('A' for Active; 'I' for Inactive)
REMARK    1  A    between atoms: C_1  and  O_2
REMARK    2  A    between atoms: O_2  and  C_3
REMARK    3  A    between atoms: C_6  and  O_7
REMARK    4  A    between atoms: O_7  and  C_8
REMARK    5  A    between atoms: C_8  and  C_9
REMARK    6  A    between atoms: C_9  and  O_10
REMARK    7  A    between atoms: C_9  and  C_11
REMARK    8  A    between atoms: C_11  and  N_12
REMARK    9  A    between atoms: C_14  and  C_15
REMARK   10  A    between atoms: C_17  and  C_18
REMARK                            x       y       z     vdW  Elec       q    Type
REMARK                         _______ _______ _______ _____ _____    ______ ____
ROOT
ATOM      1  C   UNL     1       4.594   3.672  19.240  0.00  0.00    +0.000 C 
ENDROOT
BRANCH   1   2
ATOM      2  O   UNL     1       4.900   2.372  19.774  0.00  0.00    +0.000 OA
ATOM      3  H   UNL     1       5.571   1.985  19.178  0.00  0.00    +0.000 HD
ENDBRANCH   1   2
BRANCH   1   4
ATOM      4  C   UNL     1       3.085   3.776  18.991  0.00  0.00    +0.000 C 
BRANCH   4   5
ATOM      5  O   UNL     1       2.509   4.600  20.014  0.00  0.00    +0.000 OA
BRANCH   5   9
ATOM      6  C   UNL     1       1.713   8.596  19.130  0.00  0.00    +0.000 A 
ATOM      7  C   UNL     1       1.589   8.091  20.425  0.00  0.00    +0.000 A 
ATOM      8  C   UNL     1       1.876   6.744  20.683  0.00  0.00    +0.000 A 
ATOM      9  C   UNL     1       2.250   5.896  19.644  0.00  0.00    +0.000 A 
ATOM     10  C   UNL     1       2.371   6.401  18.350  0.00  0.00    +0.000 A 
ATOM     11  C   UNL     1       2.097   7.744  18.096  0.00  0.00    +0.000 A 
BRANCH   6  13
ATOM     12  C   UNL     1       0.713  10.505  20.077  0.00  0.00    +0.000 C 
ATOM     13  O   UNL     1       1.415   9.922  18.986  0.00  0.00    +0.000 OA
ENDBRANCH   6  13
ENDBRANCH   5   9
ENDBRANCH   4   5
ENDBRANCH   1   4
BRANCH   1  14
ATOM     14  C   UNL     1       5.462   3.902  17.981  0.00  0.00    +0.000 C 
BRANCH  14  15
ATOM     15  N   UNL     1       5.080   5.049  17.134  0.00  0.00    +0.000 NA
ATOM     16  C   UNL     1       5.725   6.317  17.544  0.00  0.00    +0.000 C 
ATOM     17  C   UNL     1       7.240   6.356  17.244  0.00  0.00    +0.000 C 
ATOM     18  C   UNL     1       7.863   7.658  17.727  0.00  0.00    +0.000 C 
ATOM     19  O   UNL     1       7.468   6.192  15.832  0.00  0.00    +0.000 OA
ATOM     20  C   UNL     1       6.949   4.920  15.398  0.00  0.00    +0.000 C 
ATOM     21  C   UNL     1       7.219   4.730  13.910  0.00  0.00    +0.000 C 
ATOM     22  C   UNL     1       5.433   4.810  15.710  0.00  0.00    +0.000 C 
ENDBRANCH  14  15
ENDBRANCH   1  14
TORSDOF 7
ENDMDL
MODEL 6
REMARK VINA RESULT:      -6.7      2.262      7.013
REMARK  Name = 
REMARK  10 active torsions:
REMARK  status: ('A' for Active; 'I' for Inactive)
REMARK    1  A    between atoms: C_1  and  O_2
REMARK    2  A    between atoms: O_2  and  C_3
REMARK    3  A    between atoms: C_6  and  O_7
REMARK    4  A    between atoms: O_7  and  C_8
REMARK    5  A    between atoms: C_8  and  C_9
REMARK    6  A    between atoms: C_9  and  O_10
REMARK    7  A    between atoms: C_9  and  C_11
REMARK    8  A    between atoms: C_11  and  N_12
REMARK    9  A    between atoms: C_14  and  C_15
REMARK   10  A    between atoms: C_17  and  C_18
REMARK                            x       y       z     vdW  Elec       q    Type
REMARK                         _______ _______ _______ _____ _____    ______ ____
ROOT
ATOM      1  C   UNL     1       7.354   5.267  18.498  0.00  0.00    +0.000 C 
ENDROOT
BRANCH   1   2
ATOM      2  O   UNL     1       7.884   6.585  18.268  0.00  0.00    +0.000 OA
ATOM      3  H   UNL     1       7.186   7.210  18.544  0.00  0.00    +0.000 HD
ENDBRANCH   1   2
BRANCH   1   4
ATOM      4  C   UNL     1       7.368   4.478  17.184  0.00  0.00    +0.000 C 
BRANCH   4   5
ATOM      5  O   UNL     1       7.304   5.407  16.093  0.00  0.00    +0.000 OA
BRANCH   5   9
ATOM      6  C   UNL     1       6.025   3.708  12.507  0.00  0.00    +0.000 A 
ATOM      7  C   UNL     1       5.294   3.570  13.688  0.00  0.00    +0.000 A 
ATOM      8  C   UNL     1       5.752   4.165  14.870  0.00  0.00    +0.000 A 
ATOM      9  C   UNL     1       6.956   4.864  14.881  0.00  0.00    +0.000 A 
ATOM     10  C   UNL     1       7.688   4.999  13.702  0.00  0.00    +0.000 A 
ATOM     11  C   UNL     1       7.224   4.417  12.523  0.00  0.00    +0.000 A 
BRANCH   6  13
ATOM     12  C   UNL     1       4.074   3.178  11.302  0.00  0.00    +0.000 C 
ATOM     13  O   UNL     1       5.490   3.094  11.410  0.00  0.00    +0.000 OA
ENDBRANCH   6  13
ENDBRANCH   5   9
ENDBRANCH   4   5
ENDBRANCH   1   4
BRANCH   1  14
ATOM     14  C   UNL     1       5.953   5.408  19.138  0.00  0.00    +0.000 C 
BRANCH  14  15
ATOM     15  N   UNL     1       4.826   4.876  18.348  0.00  0.00    +0.000 NA
ATOM     16  C   UNL     1       3.870   4.085  19.157  0.00  0.00    +0.000 C 
ATOM     17  C   UNL     1       3.032   4.946  20.127  0.00  0.00    +0.000 C 
ATOM     18  C   UNL     1       2.101   4.083  20.967  0.00  0.00    +0.000 C 
ATOM     19  O   UNL     1       2.270   5.921  19.390  0.00  0.00    +0.000 OA
ATOM     20  C   UNL     1       3.162   6.789  18.662  0.00  0.00    +0.000 C 
ATOM     21  C   UNL     1       2.360   7.843  17.908  0.00  0.00    +0.000 C 
ATOM     22  C   UNL     1       4.058   5.970  17.696  0.00  0.00    +0.000 C 
ENDBRANCH  14  15
ENDBRANCH   1  14
TORSDOF 7
ENDMDL
MODEL 7
REMARK VINA RESULT:      -6.7      1.248      1.509
REMARK  Name = 
REMARK  10 active torsions:
REMARK  status: ('A' for Active; 'I' for Inactive)
REMARK    1  A    between atoms: C_1  and  O_2
REMARK    2  A    between atoms: O_2  and  C_3
REMARK    3  A    between atoms: C_6  and  O_7
REMARK    4  A    between atoms: O_7  and  C_8
REMARK    5  A    between atoms: C_8  and  C_9
REMARK    6  A    between atoms: C_9  and  O_10
REMARK    7  A    between atoms: C_9  and  C_11
REMARK    8  A    between atoms: C_11  and  N_12
REMARK    9  A    between atoms: C_14  and  C_15
REMARK   10  A    between atoms: C_17  and  C_18
REMARK                            x       y       z     vdW  Elec       q    Type
REMARK                         _______ _______ _______ _____ _____    ______ ____
ROOT
ATOM      1  C   UNL     1       3.528   4.432  18.907  0.00  0.00    +0.000 C 
ENDROOT
BRANCH   1   2
ATOM      2  O   UNL     1       3.063   3.144  18.469  0.00  0.00    +0.000 OA
ATOM      3  H   UNL     1       2.475   3.312  17.706  0.00  0.00    +0.000 HD
ENDBRANCH   1   2
BRANCH   1   4
ATOM      4  C   UNL     1       2.325   5.309  19.272  0.00  0.00    +0.000 C 
BRANCH   4   5
ATOM      5  O   UNL     1       2.803   6.478  19.951  0.00  0.00    +0.000 OA
BRANCH   5   9
ATOM      6  C   UNL     1       0.690   9.935  18.966  0.00  0.00    +0.000 A 
ATOM      7  C   UNL     1       1.452   9.245  18.022  0.00  0.00    +0.000 A 
ATOM      8  C   UNL     1       2.139   8.082  18.390  0.00  0.00    +0.000 A 
ATOM      9  C   UNL     1       2.095   7.629  19.706  0.00  0.00    +0.000 A 
ATOM     10  C   UNL     1       1.336   8.320  20.650  0.00  0.00    +0.000 A 
ATOM     11  C   UNL     1       0.642   9.471  20.279  0.00  0.00    +0.000 A 
BRANCH   6  13
ATOM     12  C   UNL     1      -1.321  10.881  18.191  0.00  0.00    +0.000 C 
ATOM     13  O   UNL     1       0.055  11.053  18.504  0.00  0.00    +0.000 OA
ENDBRANCH   6  13
ENDBRANCH   5   9
ENDBRANCH   4   5
ENDBRANCH   1   4
BRANCH   1  14
ATOM     14  C   UNL     1       4.435   5.026  17.803  0.00  0.00    +0.000 C 
BRANCH  14  15
ATOM     15  N   UNL     1       5.853   4.623  17.847  0.00  0.00    +0.000 NA
ATOM     16  C   UNL     1       6.368   4.160  16.537  0.00  0.00    +0.000 C 
ATOM     17  C   UNL     1       6.526   5.299  15.506  0.00  0.00    +0.000 C 
ATOM     18  C   UNL     1       7.011   4.765  14.166  0.00  0.00    +0.000 C 
ATOM     19  O   UNL     1       7.443   6.292  16.004  0.00  0.00    +0.000 OA
ATOM     20  C   UNL     1       6.936   6.853  17.231  0.00  0.00    +0.000 C 
ATOM     21  C   UNL     1       7.888   7.929  17.742  0.00  0.00    +0.000 C 
ATOM     22  C   UNL     1       6.721   5.744  18.295  0.00  0.00    +0.000 C 
ENDBRANCH  14  15
ENDBRANCH   1  14
TORSDOF 7
ENDMDL
MODEL 8
REMARK VINA RESULT:      -6.7      1.584      2.680
REMARK  Name = 
REMARK  10 active torsions:
REMARK  status: ('A' for Active; 'I' for Inactive)
REMARK    1  A    between atoms: C_1  and  O_2
REMARK    2  A    between atoms: O_2  and  C_3
REMARK    3  A    between atoms: C_6  and  O_7
REMARK    4  A    between atoms: O_7  and  C_8
REMARK    5  A    between atoms: C_8  and  C_9
REMARK    6  A    between atoms: C_9  and  O_10
REMARK    7  A    between atoms: C_9  and  C_11
REMARK    8  A    between atoms: C_11  and  N_12
REMARK    9  A    between atoms: C_14  and  C_15
REMARK   10  A    between atoms: C_17  and  C_18
REMARK                            x       y       z     vdW  Elec       q    Type
REMARK                         _______ _______ _______ _____ _____    ______ ____
ROOT
ATOM      1  C   UNL     1       4.292   3.325  18.131  0.00  0.00    +0.000 C 
ENDROOT
BRANCH   1   2
ATOM      2  O   UNL     1       5.218   2.929  19.158  0.00  0.00    +0.000 OA
ATOM      3  H   UNL     1       5.876   3.648  19.222  0.00  0.00    +0.000 HD
ENDBRANCH   1   2
BRANCH   1   4
ATOM      4  C   UNL     1       3.166   2.290  18.036  0.00  0.00    +0.000 C 
BRANCH   4   5
ATOM      5  O   UNL     1       1.909   2.979  18.081  0.00  0.00    +0.000 OA
BRANCH   5   9
ATOM      6  C   UNL     1       1.938   6.736  19.889  0.00  0.00    +0.000 A 
ATOM      7  C   UNL     1       2.113   6.581  18.513  0.00  0.00    +0.000 A 
ATOM      8  C   UNL     1       2.086   5.302  17.943  0.00  0.00    +0.000 A 
ATOM      9  C   UNL     1       1.922   4.179  18.748  0.00  0.00    +0.000 A 
ATOM     10  C   UNL     1       1.751   4.334  20.124  0.00  0.00    +0.000 A 
ATOM     11  C   UNL     1       1.765   5.608  20.689  0.00  0.00    +0.000 A 
BRANCH   6  13
ATOM     12  C   UNL     1       1.119   8.300  21.445  0.00  0.00    +0.000 C 
ATOM     13  O   UNL     1       1.976   8.023  20.344  0.00  0.00    +0.000 OA
ENDBRANCH   6  13
ENDBRANCH   5   9
ENDBRANCH   4   5
ENDBRANCH   1   4
BRANCH   1  14
ATOM     14  C   UNL     1       5.079   3.530  16.814  0.00  0.00    +0.000 C 
BRANCH  14  15
ATOM     15  N   UNL     1       4.919   4.845  16.165  0.00  0.00    +0.000 NA
ATOM     16  C   UNL     1       5.531   5.953  16.933  0.00  0.00    +0.000 C 
ATOM     17  C   UNL     1       7.075   5.923  16.925  0.00  0.00    +0.000 C 
ATOM     18  C   UNL     1       7.653   7.051  17.768  0.00  0.00    +0.000 C 
ATOM     19  O   UNL     1       7.564   6.014  15.574  0.00  0.00    +0.000 OA
ATOM     20  C   UNL     1       7.080   4.897  14.803  0.00  0.00    +0.000 C 
ATOM     21  C   UNL     1       7.623   4.973  13.381  0.00  0.00    +0.000 C 
ATOM     22  C   UNL     1       5.529   4.855  14.808  0.00  0.00    +0.000 C 
ENDBRANCH  14  15
ENDBRANCH   1  14
TORSDOF 7
ENDMDL
MODEL 9
REMARK VINA RESULT:      -6.6      1.543      2.471
REMARK  Name = 
REMARK  10 active torsions:
REMARK  status: ('A' for Active; 'I' for Inactive)
REMARK    1  A    between atoms: C_1  and  O_2
REMARK    2  A    between atoms: O_2  and  C_3
REMARK    3  A    between atoms: C_6  and  O_7
REMARK    4  A    between atoms: O_7  and  C_8
REMARK    5  A    between atoms: C_8  and  C_9
REMARK    6  A    between atoms: C_9  and  O_10
REMARK    7  A    between atoms: C_9  and  C_11
REMARK    8  A    between atoms: C_11  and  N_12
REMARK    9  A    between atoms: C_14  and  C_15
REMARK   10  A    between atoms: C_17  and  C_18
REMARK                            x       y       z     vdW  Elec       q    Type
REMARK                         _______ _______ _______ _____ _____    ______ ____
ROOT
ATOM      1  C   UNL     1       3.475   4.126  18.665  0.00  0.00    +0.000 C 
ENDROOT
BRANCH   1   2
ATOM      2  O   UNL     1       3.065   2.764  18.874  0.00  0.00    +0.000 OA
ATOM      3  H   UNL     1       3.837   2.303  19.255  0.00  0.00    +0.000 HD
ENDBRANCH   1   2
BRANCH   1   4
ATOM      4  C   UNL     1       2.299   5.063  18.966  0.00  0.00    +0.000 C 
BRANCH   4   5
ATOM      5  O   UNL     1       2.758   6.106  19.837  0.00  0.00    +0.000 OA
BRANCH   5   9
ATOM      6  C   UNL     1       1.025   9.801  18.987  0.00  0.00    +0.000 A 
ATOM      7  C   UNL     1       1.699   9.064  18.012  0.00  0.00    +0.000 A 
ATOM      8  C   UNL     1       2.258   7.821  18.335  0.00  0.00    +0.000 A 
ATOM      9  C   UNL     1       2.178   7.333  19.637  0.00  0.00    +0.000 A 
ATOM     10  C   UNL     1       1.507   8.072  20.611  0.00  0.00    +0.000 A 
ATOM     11  C   UNL     1       0.939   9.303  20.286  0.00  0.00    +0.000 A 
BRANCH   6  13
ATOM     12  C   UNL     1       0.715  12.086  19.460  0.00  0.00    +0.000 C 
ATOM     13  O   UNL     1       0.512  10.996  18.569  0.00  0.00    +0.000 OA
ENDBRANCH   6  13
ENDBRANCH   5   9
ENDBRANCH   4   5
ENDBRANCH   1   4
BRANCH   1  14
ATOM     14  C   UNL     1       4.036   4.255  17.229  0.00  0.00    +0.000 C 
BRANCH  14  15
ATOM     15  N   UNL     1       4.619   5.565  16.879  0.00  0.00    +0.000 NA
ATOM     16  C   UNL     1       5.625   6.036  17.859  0.00  0.00    +0.000 C 
ATOM     17  C   UNL     1       6.940   5.227  17.822  0.00  0.00    +0.000 C 
ATOM     18  C   UNL     1       7.919   5.719  18.878  0.00  0.00    +0.000 C 
ATOM     19  O   UNL     1       7.537   5.315  16.515  0.00  0.00    +0.000 OA
ATOM     20  C   UNL     1       6.637   4.770  15.529  0.00  0.00    +0.000 C 
ATOM     21  C   UNL     1       7.281   4.831  14.149  0.00  0.00    +0.000 C 
ATOM     22  C   UNL     1       5.281   5.524  15.548  0.00  0.00    +0.000 C 
ENDBRANCH  14  15
ENDBRANCH   1  14
TORSDOF 7
ENDMDL
