MODEL 1
REMARK VINA RESULT:      -8.7      0.000      0.000
REMARK  Name = 
REMARK  6 active torsions:
REMARK  status: ('A' for Active; 'I' for Inactive)
REMARK    1  A    between atoms: C_1  and  C_2
REMARK    2  A    between atoms: C_2  and  C_3
REMARK    3  A    between atoms: N_6  and  S_7
REMARK    4  A    between atoms: S_7  and  C_10
REMARK    5  A    between atoms: C_11  and  C_12
REMARK    6  A    between atoms: C_20  and  C_21
REMARK                            x       y       z     vdW  Elec       q    Type
REMARK                         _______ _______ _______ _____ _____    ______ ____
ROOT
ATOM      1  C   UNL     1       4.868   4.183  16.955  0.00  0.00    +0.000 A 
ATOM      2  S   UNL     1       3.678   3.052  17.486  0.00  0.00    +0.000 S 
ATOM      3  C   UNL     1       4.049   3.414  19.100  0.00  0.00    +0.000 A 
ATOM      4  N   UNL     1       3.520   2.683  20.185  0.00  0.00    +0.000 N 
ATOM      5  N   UNL     1       4.990   4.297  19.302  0.00  0.00    +0.000 NA
ATOM      6  C   UNL     1       5.404   4.825  18.075  0.00  0.00    +0.000 A 
ATOM      7  H   UNL     1       4.182   2.709  20.955  0.00  0.00    +0.000 HD
ENDROOT
BRANCH   6   8
ATOM      8  C   UNL     1       6.365   5.938  18.043  0.00  0.00    +0.000 A 
ATOM      9  C   UNL     1       7.493   5.920  18.880  0.00  0.00    +0.000 A 
ATOM     10  C   UNL     1       8.403   6.990  18.884  0.00  0.00    +0.000 A 
ATOM     11  C   UNL     1       8.204   8.084  18.045  0.00  0.00    +0.000 A 
ATOM     12  C   UNL     1       7.084   8.124  17.222  0.00  0.00    +0.000 A 
ATOM     13  C   UNL     1       6.165   7.070  17.238  0.00  0.00    +0.000 A 
ENDBRANCH   6   8
BRANCH   4  14
ATOM     14  S   UNL     1       2.032   3.311  20.716  0.00  0.00    +0.000 S 
ATOM     15  O   UNL     1       0.961   2.401  20.368  0.00  0.00    +0.000 OA
ATOM     16  O   UNL     1       2.240   3.675  22.104  0.00  0.00    +0.000 OA
BRANCH  14  17
ATOM     17  C   UNL     1       1.808   4.784  19.818  0.00  0.00    +0.000 C 
ATOM     18  C   UNL     1       2.220   5.940  20.361  0.00  0.00    +0.000 C 
BRANCH  18  19
ATOM     19  C   UNL     1       2.021   7.236  19.704  0.00  0.00    +0.000 A 
ATOM     20  C   UNL     1       2.511   7.387  18.398  0.00  0.00    +0.000 A 
ATOM     21  C   UNL     1       2.307   8.579  17.698  0.00  0.00    +0.000 A 
ATOM     22  C   UNL     1       1.614   9.629  18.294  0.00  0.00    +0.000 A 
ATOM     23  C   UNL     1       1.132   9.495  19.596  0.00  0.00    +0.000 A 
ATOM     24  C   UNL     1       1.335   8.305  20.301  0.00  0.00    +0.000 A 
ATOM     25 CL   UNL     1       0.697   8.194  21.903  0.00  0.00    +0.000 Cl
ENDBRANCH  18  19
ENDBRANCH  14  17
ENDBRANCH   4  14
BRANCH   1  27
ATOM     26  C   UNL     1       6.606   3.984  15.062  0.00  0.00    +0.000 C 
ATOM     27  C   UNL     1       5.189   4.344  15.489  0.00  0.00    +0.000 C 
ENDBRANCH   1  27
TORSDOF 5
ENDMDL
MODEL 2
REMARK VINA RESULT:      -8.2      1.165      1.573
REMARK  Name = 
REMARK  6 active torsions:
REMARK  status: ('A' for Active; 'I' for Inactive)
REMARK    1  A    between atoms: C_1  and  C_2
REMARK    2  A    between atoms: C_2  and  C_3
REMARK    3  A    between atoms: N_6  and  S_7
REMARK    4  A    between atoms: S_7  and  C_10
REMARK    5  A    between atoms: C_11  and  C_12
REMARK    6  A    between atoms: C_20  and  C_21
REMARK                            x       y       z     vdW  Elec       q    Type
REMARK                         _______ _______ _______ _____ _____    ______ ____
ROOT
ATOM      1  C   UNL     1       4.967   4.085  16.989  0.00  0.00    +0.000 A 
ATOM      2  S   UNL     1       3.903   2.853  17.559  0.00  0.00    +0.000 S 
ATOM      3  C   UNL     1       4.388   3.166  19.153  0.00  0.00    +0.000 A 
ATOM      4  N   UNL     1       4.003   2.351  20.239  0.00  0.00    +0.000 N 
ATOM      5  N   UNL     1       5.285   4.101  19.321  0.00  0.00    +0.000 NA
ATOM      6  C   UNL     1       5.556   4.711  18.091  0.00  0.00    +0.000 A 
ATOM      7  H   UNL     1       4.727   2.387  20.952  0.00  0.00    +0.000 HD
ENDROOT
BRANCH   6   8
ATOM      8  C   UNL     1       6.437   5.888  18.036  0.00  0.00    +0.000 A 
ATOM      9  C   UNL     1       7.580   5.950  18.850  0.00  0.00    +0.000 A 
ATOM     10  C   UNL     1       8.414   7.081  18.832  0.00  0.00    +0.000 A 
ATOM     11  C   UNL     1       8.122   8.155  17.995  0.00  0.00    +0.000 A 
ATOM     12  C   UNL     1       6.986   8.114  17.195  0.00  0.00    +0.000 A 
ATOM     13  C   UNL     1       6.142   6.999  17.233  0.00  0.00    +0.000 A 
ENDBRANCH   6   8
BRANCH   4  14
ATOM     14  S   UNL     1       2.530   2.851  20.924  0.00  0.00    +0.000 S 
ATOM     15  O   UNL     1       1.426   2.392  20.106  0.00  0.00    +0.000 OA
ATOM     16  O   UNL     1       2.599   2.460  22.318  0.00  0.00    +0.000 OA
BRANCH  14  17
ATOM     17  C   UNL     1       2.563   4.589  20.868  0.00  0.00    +0.000 C 
ATOM     18  C   UNL     1       1.467   5.244  20.454  0.00  0.00    +0.000 C 
BRANCH  18  19
ATOM     19  C   UNL     1       1.423   6.704  20.320  0.00  0.00    +0.000 A 
ATOM     20  C   UNL     1       0.893   7.440  21.389  0.00  0.00    +0.000 A 
ATOM     21  C   UNL     1       0.870   8.836  21.346  0.00  0.00    +0.000 A 
ATOM     22  C   UNL     1       1.375   9.509  20.236  0.00  0.00    +0.000 A 
ATOM     23  C   UNL     1       1.894   8.787  19.161  0.00  0.00    +0.000 A 
ATOM     24  C   UNL     1       1.916   7.389  19.200  0.00  0.00    +0.000 A 
ATOM     25 CL   UNL     1       2.589   6.554  17.846  0.00  0.00    +0.000 Cl
ENDBRANCH  18  19
ENDBRANCH  14  17
ENDBRANCH   4  14
BRANCH   1  27
ATOM     26  C   UNL     1       6.536   4.063  14.945  0.00  0.00    +0.000 C 
ATOM     27  C   UNL     1       5.149   4.335  15.512  0.00  0.00    +0.000 C 
ENDBRANCH   1  27
TORSDOF 5
ENDMDL
MODEL 3
REMARK VINA RESULT:      -7.7      1.128      1.772
REMARK  Name = 
REMARK  6 active torsions:
REMARK  status: ('A' for Active; 'I' for Inactive)
REMARK    1  A    between atoms: C_1  and  C_2
REMARK    2  A    between atoms: C_2  and  C_3
REMARK    3  A    between atoms: N_6  and  S_7
REMARK    4  A    between atoms: S_7  and  C_10
REMARK    5  A    between atoms: C_11  and  C_12
REMARK    6  A    between atoms: C_20  and  C_21
REMARK                            x       y       z     vdW  Elec       q    Type
REMARK                         _______ _______ _______ _____ _____    ______ ____
ROOT
ATOM      1  C   UNL     1       5.354   3.812  17.211  0.00  0.00    +0.000 A 
ATOM      2  S   UNL     1       4.243   2.613  17.761  0.00  0.00    +0.000 S 
ATOM      3  C   UNL     1       4.382   3.205  19.344  0.00  0.00    +0.000 A 
ATOM      4  N   UNL     1       3.815   2.546  20.455  0.00  0.00    +0.000 N 
ATOM      5  N   UNL     1       5.192   4.215  19.524  0.00  0.00    +0.000 NA
ATOM      6  C   UNL     1       5.684   4.642  18.286  0.00  0.00    +0.000 A 
ATOM      7  H   UNL     1       4.377   2.743  21.278  0.00  0.00    +0.000 HD
ENDROOT
BRANCH   6   8
ATOM      8  C   UNL     1       6.514   5.854  18.207  0.00  0.00    +0.000 A 
ATOM      9  C   UNL     1       6.191   6.871  17.294  0.00  0.00    +0.000 A 
ATOM     10  C   UNL     1       6.993   8.020  17.184  0.00  0.00    +0.000 A 
ATOM     11  C   UNL     1       8.116   8.171  17.992  0.00  0.00    +0.000 A 
ATOM     12  C   UNL     1       8.458   7.166  18.891  0.00  0.00    +0.000 A 
ATOM     13  C   UNL     1       7.675   6.011  18.980  0.00  0.00    +0.000 A 
ENDBRANCH   6   8
BRANCH   4  14
ATOM     14  S   UNL     1       2.216   3.043  20.747  0.00  0.00    +0.000 S 
ATOM     15  O   UNL     1       1.292   2.132  20.105  0.00  0.00    +0.000 OA
ATOM     16  O   UNL     1       2.133   3.256  22.179  0.00  0.00    +0.000 OA
BRANCH  14  17
ATOM     17  C   UNL     1       2.071   4.598  19.980  0.00  0.00    +0.000 C 
ATOM     18  C   UNL     1       1.897   5.683  20.748  0.00  0.00    +0.000 C 
BRANCH  18  19
ATOM     19  C   UNL     1       1.707   7.026  20.187  0.00  0.00    +0.000 A 
ATOM     20  C   UNL     1       1.151   8.007  21.021  0.00  0.00    +0.000 A 
ATOM     21  C   UNL     1       0.992   9.318  20.564  0.00  0.00    +0.000 A 
ATOM     22  C   UNL     1       1.386   9.660  19.273  0.00  0.00    +0.000 A 
ATOM     23  C   UNL     1       1.929   8.690  18.431  0.00  0.00    +0.000 A 
ATOM     24  C   UNL     1       2.087   7.376  18.883  0.00  0.00    +0.000 A 
ATOM     25 CL   UNL     1       2.784   6.226  17.799  0.00  0.00    +0.000 Cl
ENDBRANCH  18  19
ENDBRANCH  14  17
ENDBRANCH   4  14
BRANCH   1  27
ATOM     26  C   UNL     1       5.158   4.861  14.865  0.00  0.00    +0.000 C 
ATOM     27  C   UNL     1       5.823   3.839  15.777  0.00  0.00    +0.000 C 
ENDBRANCH   1  27
TORSDOF 5
ENDMDL
MODEL 4
REMARK VINA RESULT:      -7.3      0.987      1.396
REMARK  Name = 
REMARK  6 active torsions:
REMARK  status: ('A' for Active; 'I' for Inactive)
REMARK    1  A    between atoms: C_1  and  C_2
REMARK    2  A    between atoms: C_2  and  C_3
REMARK    3  A    between atoms: N_6  and  S_7
REMARK    4  A    between atoms: S_7  and  C_10
REMARK    5  A    between atoms: C_11  and  C_12
REMARK    6  A    between atoms: C_20  and  C_21
REMARK                            x       y       z     vdW  Elec       q    Type
REMARK                         _______ _______ _______ _____ _____    ______ ____
ROOT
ATOM      1  C   UNL     1       6.081   4.684  16.609  0.00  0.00    +0.000 A 
ATOM      2  S   UNL     1       5.065   3.321  16.900  0.00  0.00    +0.000 S 
ATOM      3  C   UNL     1       5.092   3.650  18.562  0.00  0.00    +0.000 A 
ATOM      4  N   UNL     1       4.548   2.769  19.522  0.00  0.00    +0.000 N 
ATOM      5  N   UNL     1       5.798   4.680  18.945  0.00  0.00    +0.000 NA
ATOM      6  C   UNL     1       6.294   5.349  17.821  0.00  0.00    +0.000 A 
ATOM      7  H   UNL     1       5.060   2.873  20.393  0.00  0.00    +0.000 HD
ENDROOT
BRANCH   6   8
ATOM      8  C   UNL     1       7.012   6.622  17.983  0.00  0.00    +0.000 A 
ATOM      9  C   UNL     1       6.628   7.747  17.235  0.00  0.00    +0.000 A 
ATOM     10  C   UNL     1       7.323   8.962  17.355  0.00  0.00    +0.000 A 
ATOM     11  C   UNL     1       8.401   9.069  18.230  0.00  0.00    +0.000 A 
ATOM     12  C   UNL     1       8.803   7.960  18.966  0.00  0.00    +0.000 A 
ATOM     13  C   UNL     1       8.126   6.744  18.826  0.00  0.00    +0.000 A 
ENDBRANCH   6   8
BRANCH   4  14
ATOM     14  S   UNL     1       2.900   3.074  19.809  0.00  0.00    +0.000 S 
ATOM     15  O   UNL     1       2.091   2.072  19.147  0.00  0.00    +0.000 OA
ATOM     16  O   UNL     1       2.785   3.254  21.243  0.00  0.00    +0.000 OA
BRANCH  14  17
ATOM     17  C   UNL     1       2.581   4.613  19.063  0.00  0.00    +0.000 C 
ATOM     18  C   UNL     1       2.685   5.725  19.806  0.00  0.00    +0.000 C 
BRANCH  18  19
ATOM     19  C   UNL     1       2.379   7.059  19.279  0.00  0.00    +0.000 A 
ATOM     20  C   UNL     1       2.897   7.397  18.021  0.00  0.00    +0.000 A 
ATOM     21  C   UNL     1       2.599   8.632  17.439  0.00  0.00    +0.000 A 
ATOM     22  C   UNL     1       1.781   9.540  18.109  0.00  0.00    +0.000 A 
ATOM     23  C   UNL     1       1.270   9.219  19.366  0.00  0.00    +0.000 A 
ATOM     24  C   UNL     1       1.568   7.985  19.952  0.00  0.00    +0.000 A 
ATOM     25 CL   UNL     1       0.888   7.641  21.503  0.00  0.00    +0.000 Cl
ENDBRANCH  18  19
ENDBRANCH  14  17
ENDBRANCH   4  14
BRANCH   1  27
ATOM     26  C   UNL     1       6.127   4.068  14.107  0.00  0.00    +0.000 C 
ATOM     27  C   UNL     1       6.597   4.990  15.225  0.00  0.00    +0.000 C 
ENDBRANCH   1  27
TORSDOF 5
ENDMDL
MODEL 5
REMARK VINA RESULT:      -7.1      6.434      8.389
REMARK  Name = 
REMARK  6 active torsions:
REMARK  status: ('A' for Active; 'I' for Inactive)
REMARK    1  A    between atoms: C_1  and  C_2
REMARK    2  A    between atoms: C_2  and  C_3
REMARK    3  A    between atoms: N_6  and  S_7
REMARK    4  A    between atoms: S_7  and  C_10
REMARK    5  A    between atoms: C_11  and  C_12
REMARK    6  A    between atoms: C_20  and  C_21
REMARK                            x       y       z     vdW  Elec       q    Type
REMARK                         _______ _______ _______ _____ _____    ______ ____
ROOT
ATOM      1  C   UNL     1       0.726   9.568  20.424  0.00  0.00    +0.000 A 
ATOM      2  S   UNL     1      -0.518  10.739  20.180  0.00  0.00    +0.000 S 
ATOM      3  C   UNL     1      -0.305  10.621  18.503  0.00  0.00    +0.000 A 
ATOM      4  N   UNL     1      -0.943  11.491  17.592  0.00  0.00    +0.000 N 
ATOM      5  N   UNL     1       0.617   9.797  18.084  0.00  0.00    +0.000 NA
ATOM      6  C   UNL     1       1.154   9.105  19.176  0.00  0.00    +0.000 A 
ATOM      7  H   UNL     1      -0.360  11.590  16.766  0.00  0.00    +0.000 HD
ENDROOT
BRANCH   6   8
ATOM      8  C   UNL     1       2.120   8.020  18.952  0.00  0.00    +0.000 A 
ATOM      9  C   UNL     1       2.958   8.043  17.825  0.00  0.00    +0.000 A 
ATOM     10  C   UNL     1       3.864   6.998  17.580  0.00  0.00    +0.000 A 
ATOM     11  C   UNL     1       3.952   5.925  18.464  0.00  0.00    +0.000 A 
ATOM     12  C   UNL     1       3.119   5.879  19.576  0.00  0.00    +0.000 A 
ATOM     13  C   UNL     1       2.198   6.908  19.804  0.00  0.00    +0.000 A 
ENDBRANCH   6   8
BRANCH   4  14
ATOM     14  S   UNL     1      -2.472  10.915  17.121  0.00  0.00    +0.000 S 
ATOM     15  O   UNL     1      -2.778  11.369  15.780  0.00  0.00    +0.000 OA
ATOM     16  O   UNL     1      -2.455   9.494  17.410  0.00  0.00    +0.000 OA
BRANCH  14  17
ATOM     17  C   UNL     1      -3.601  11.656  18.218  0.00  0.00    +0.000 C 
ATOM     18  C   UNL     1      -4.765  11.036  18.463  0.00  0.00    +0.000 C 
BRANCH  18  19
ATOM     19  C   UNL     1      -5.800  11.613  19.327  0.00  0.00    +0.000 A 
ATOM     20  C   UNL     1      -5.725  12.985  19.607  0.00  0.00    +0.000 A 
ATOM     21  C   UNL     1      -6.709  13.606  20.380  0.00  0.00    +0.000 A 
ATOM     22  C   UNL     1      -7.776  12.863  20.881  0.00  0.00    +0.000 A 
ATOM     23  C   UNL     1      -7.854  11.495  20.620  0.00  0.00    +0.000 A 
ATOM     24  C   UNL     1      -6.870  10.869  19.848  0.00  0.00    +0.000 A 
ATOM     25 CL   UNL     1      -7.035   9.177  19.544  0.00  0.00    +0.000 Cl
ENDBRANCH  18  19
ENDBRANCH  14  17
ENDBRANCH   4  14
BRANCH   1  27
ATOM     26  C   UNL     1       0.193   9.423  22.941  0.00  0.00    +0.000 C 
ATOM     27  C   UNL     1       1.191   9.203  21.812  0.00  0.00    +0.000 C 
ENDBRANCH   1  27
TORSDOF 5
ENDMDL
MODEL 6
REMARK VINA RESULT:      -7.1      4.712      6.496
REMARK  Name = 
REMARK  6 active torsions:
REMARK  status: ('A' for Active; 'I' for Inactive)
REMARK    1  A    between atoms: C_1  and  C_2
REMARK    2  A    between atoms: C_2  and  C_3
REMARK    3  A    between atoms: N_6  and  S_7
REMARK    4  A    between atoms: S_7  and  C_10
REMARK    5  A    between atoms: C_11  and  C_12
REMARK    6  A    between atoms: C_20  and  C_21
REMARK                            x       y       z     vdW  Elec       q    Type
REMARK                         _______ _______ _______ _____ _____    ______ ____
ROOT
ATOM      1  C   UNL     1       3.663   6.349  18.055  0.00  0.00    +0.000 A 
ATOM      2  S   UNL     1       3.660   8.004  17.566  0.00  0.00    +0.000 S 
ATOM      3  C   UNL     1       1.995   8.095  17.874  0.00  0.00    +0.000 A 
ATOM      4  N   UNL     1       1.216   9.217  17.519  0.00  0.00    +0.000 N 
ATOM      5  N   UNL     1       1.417   7.005  18.302  0.00  0.00    +0.000 NA
ATOM      6  C   UNL     1       2.383   6.015  18.508  0.00  0.00    +0.000 A 
ATOM      7  H   UNL     1       0.265   8.913  17.332  0.00  0.00    +0.000 HD
ENDROOT
BRANCH   6   8
ATOM      8  C   UNL     1       2.000   4.733  19.117  0.00  0.00    +0.000 A 
ATOM      9  C   UNL     1       2.006   4.586  20.514  0.00  0.00    +0.000 A 
ATOM     10  C   UNL     1       1.673   3.357  21.110  0.00  0.00    +0.000 A 
ATOM     11  C   UNL     1       1.321   2.267  20.318  0.00  0.00    +0.000 A 
ATOM     12  C   UNL     1       1.325   2.392  18.934  0.00  0.00    +0.000 A 
ATOM     13  C   UNL     1       1.682   3.608  18.341  0.00  0.00    +0.000 A 
ENDBRANCH   6   8
BRANCH   4  14
ATOM     14  S   UNL     1       1.189  10.392  18.748  0.00  0.00    +0.000 S 
ATOM     15  O   UNL     1       1.459   9.771  20.029  0.00  0.00    +0.000 OA
ATOM     16  O   UNL     1       2.044  11.464  18.278  0.00  0.00    +0.000 OA
BRANCH  14  17
ATOM     17  C   UNL     1      -0.442  10.998  18.770  0.00  0.00    +0.000 C 
ATOM     18  C   UNL     1      -1.320  10.521  17.874  0.00  0.00    +0.000 C 
BRANCH  18  19
ATOM     19  C   UNL     1      -2.698  11.014  17.779  0.00  0.00    +0.000 A 
ATOM     20  C   UNL     1      -3.245  11.639  18.910  0.00  0.00    +0.000 A 
ATOM     21  C   UNL     1      -4.534  12.177  18.868  0.00  0.00    +0.000 A 
ATOM     22  C   UNL     1      -5.287  12.096  17.699  0.00  0.00    +0.000 A 
ATOM     23  C   UNL     1      -4.758  11.467  16.572  0.00  0.00    +0.000 A 
ATOM     24  C   UNL     1      -3.469  10.925  16.611  0.00  0.00    +0.000 A 
ATOM     25 CL   UNL     1      -2.864  10.176  15.176  0.00  0.00    +0.000 Cl
ENDBRANCH  18  19
ENDBRANCH  14  17
ENDBRANCH   4  14
BRANCH   1  27
ATOM     26  C   UNL     1       5.036   4.637  16.705  0.00  0.00    +0.000 C 
ATOM     27  C   UNL     1       4.911   5.508  17.948  0.00  0.00    +0.000 C 
ENDBRANCH   1  27
TORSDOF 5
ENDMDL
MODEL 7
REMARK VINA RESULT:      -7.0      6.726      8.651
REMARK  Name = 
REMARK  6 active torsions:
REMARK  status: ('A' for Active; 'I' for Inactive)
REMARK    1  A    between atoms: C_1  and  C_2
REMARK    2  A    between atoms: C_2  and  C_3
REMARK    3  A    between atoms: N_6  and  S_7
REMARK    4  A    between atoms: S_7  and  C_10
REMARK    5  A    between atoms: C_11  and  C_12
REMARK    6  A    between atoms: C_20  and  C_21
REMARK                            x       y       z     vdW  Elec       q    Type
REMARK                         _______ _______ _______ _____ _____    ______ ____
ROOT
ATOM      1  C   UNL     1       0.688   9.528  20.450  0.00  0.00    +0.000 A 
ATOM      2  S   UNL     1      -0.585  10.676  20.255  0.00  0.00    +0.000 S 
ATOM      3  C   UNL     1      -0.387  10.615  18.572  0.00  0.00    +0.000 A 
ATOM      4  N   UNL     1      -1.055  11.497  17.695  0.00  0.00    +0.000 N 
ATOM      5  N   UNL     1       0.551   9.827  18.120  0.00  0.00    +0.000 NA
ATOM      6  C   UNL     1       1.115   9.115  19.184  0.00  0.00    +0.000 A 
ATOM      7  H   UNL     1      -0.482  11.636  16.868  0.00  0.00    +0.000 HD
ENDROOT
BRANCH   6   8
ATOM      8  C   UNL     1       2.104   8.061  18.918  0.00  0.00    +0.000 A 
ATOM      9  C   UNL     1       2.920   8.132  17.776  0.00  0.00    +0.000 A 
ATOM     10  C   UNL     1       3.848   7.116  17.491  0.00  0.00    +0.000 A 
ATOM     11  C   UNL     1       3.980   6.026  18.347  0.00  0.00    +0.000 A 
ATOM     12  C   UNL     1       3.170   5.934  19.473  0.00  0.00    +0.000 A 
ATOM     13  C   UNL     1       2.227   6.932  19.742  0.00  0.00    +0.000 A 
ENDBRANCH   6   8
BRANCH   4  14
ATOM     14  S   UNL     1      -2.574  10.899  17.221  0.00  0.00    +0.000 S 
ATOM     15  O   UNL     1      -2.885  11.352  15.881  0.00  0.00    +0.000 OA
ATOM     16  O   UNL     1      -2.536   9.478  17.506  0.00  0.00    +0.000 OA
BRANCH  14  17
ATOM     17  C   UNL     1      -3.715  11.620  18.318  0.00  0.00    +0.000 C 
ATOM     18  C   UNL     1      -4.992  11.750  17.929  0.00  0.00    +0.000 C 
BRANCH  18  19
ATOM     19  C   UNL     1      -6.011  12.397  18.763  0.00  0.00    +0.000 A 
ATOM     20  C   UNL     1      -6.150  11.950  20.085  0.00  0.00    +0.000 A 
ATOM     21  C   UNL     1      -7.064  12.560  20.947  0.00  0.00    +0.000 A 
ATOM     22  C   UNL     1      -7.849  13.620  20.497  0.00  0.00    +0.000 A 
ATOM     23  C   UNL     1      -7.728  14.065  19.180  0.00  0.00    +0.000 A 
ATOM     24  C   UNL     1      -6.815  13.455  18.314  0.00  0.00    +0.000 A 
ATOM     25 CL   UNL     1      -6.699  14.065  16.702  0.00  0.00    +0.000 Cl
ENDBRANCH  18  19
ENDBRANCH  14  17
ENDBRANCH   4  14
BRANCH   1  27
ATOM     26  C   UNL     1       0.249   9.447  22.988  0.00  0.00    +0.000 C 
ATOM     27  C   UNL     1       1.176   9.132  21.822  0.00  0.00    +0.000 C 
ENDBRANCH   1  27
TORSDOF 5
ENDMDL
MODEL 8
REMARK VINA RESULT:      -6.9      4.779      6.517
REMARK  Name = 
REMARK  6 active torsions:
REMARK  status: ('A' for Active; 'I' for Inactive)
REMARK    1  A    between atoms: C_1  and  C_2
REMARK    2  A    between atoms: C_2  and  C_3
REMARK    3  A    between atoms: N_6  and  S_7
REMARK    4  A    between atoms: S_7  and  C_10
REMARK    5  A    between atoms: C_11  and  C_12
REMARK    6  A    between atoms: C_20  and  C_21
REMARK                            x       y       z     vdW  Elec       q    Type
REMARK                         _______ _______ _______ _____ _____    ______ ____
ROOT
ATOM      1  C   UNL     1       3.800   6.522  17.880  0.00  0.00    +0.000 A 
ATOM      2  S   UNL     1       3.685   8.223  17.613  0.00  0.00    +0.000 S 
ATOM      3  C   UNL     1       2.002   8.143  17.799  0.00  0.00    +0.000 A 
ATOM      4  N   UNL     1       1.154   9.239  17.535  0.00  0.00    +0.000 N 
ATOM      5  N   UNL     1       1.493   6.963  18.034  0.00  0.00    +0.000 NA
ATOM      6  C   UNL     1       2.527   6.032  18.184  0.00  0.00    +0.000 A 
ATOM      7  H   UNL     1       0.248   8.891  17.236  0.00  0.00    +0.000 HD
ENDROOT
BRANCH   6   8
ATOM      8  C   UNL     1       2.217   4.652  18.588  0.00  0.00    +0.000 A 
ATOM      9  C   UNL     1       2.348   3.601  17.666  0.00  0.00    +0.000 A 
ATOM     10  C   UNL     1       2.026   2.282  18.027  0.00  0.00    +0.000 A 
ATOM     11  C   UNL     1       1.579   1.997  19.315  0.00  0.00    +0.000 A 
ATOM     12  C   UNL     1       1.429   3.029  20.235  0.00  0.00    +0.000 A 
ATOM     13  C   UNL     1       1.726   4.345  19.866  0.00  0.00    +0.000 A 
ENDBRANCH   6   8
BRANCH   4  14
ATOM     14  S   UNL     1       0.942  10.229  18.901  0.00  0.00    +0.000 S 
ATOM     15  O   UNL     1       1.351   9.516  20.093  0.00  0.00    +0.000 OA
ATOM     16  O   UNL     1       1.577  11.489  18.567  0.00  0.00    +0.000 OA
BRANCH  14  17
ATOM     17  C   UNL     1      -0.770  10.518  18.998  0.00  0.00    +0.000 C 
ATOM     18  C   UNL     1      -1.391  11.079  17.949  0.00  0.00    +0.000 C 
BRANCH  18  19
ATOM     19  C   UNL     1      -2.820  11.413  17.964  0.00  0.00    +0.000 A 
ATOM     20  C   UNL     1      -3.368  11.878  19.167  0.00  0.00    +0.000 A 
ATOM     21  C   UNL     1      -4.709  12.263  19.234  0.00  0.00    +0.000 A 
ATOM     22  C   UNL     1      -5.515  12.186  18.100  0.00  0.00    +0.000 A 
ATOM     23  C   UNL     1      -4.984  11.713  16.900  0.00  0.00    +0.000 A 
ATOM     24  C   UNL     1      -3.642  11.325  16.830  0.00  0.00    +0.000 A 
ATOM     25 CL   UNL     1      -3.040  10.766  15.310  0.00  0.00    +0.000 Cl
ENDBRANCH  18  19
ENDBRANCH  14  17
ENDBRANCH   4  14
BRANCH   1  27
ATOM     26  C   UNL     1       5.427   5.168  16.412  0.00  0.00    +0.000 C 
ATOM     27  C   UNL     1       5.121   5.803  17.761  0.00  0.00    +0.000 C 
ENDBRANCH   1  27
TORSDOF 5
ENDMDL
MODEL 9
REMARK VINA RESULT:      -6.7      5.363      9.147
REMARK  Name = 
REMARK  6 active torsions:
REMARK  status: ('A' for Active; 'I' for Inactive)
REMARK    1  A    between atoms: C_1  and  C_2
REMARK    2  A    between atoms: C_2  and  C_3
REMARK    3  A    between atoms: N_6  and  S_7
REMARK    4  A    between atoms: S_7  and  C_10
REMARK    5  A    between atoms: C_11  and  C_12
REMARK    6  A    between atoms: C_20  and  C_21
REMARK                            x       y       z     vdW  Elec       q    Type
REMARK                         _______ _______ _______ _____ _____    ______ ____
ROOT
ATOM      1  C   UNL     1      -1.850  11.383  18.188  0.00  0.00    +0.000 A 
ATOM      2  S   UNL     1      -0.286  10.686  18.396  0.00  0.00    +0.000 S 
ATOM      3  C   UNL     1      -0.336  11.058  20.049  0.00  0.00    +0.000 A 
ATOM      4  N   UNL     1       0.780  10.899  20.899  0.00  0.00    +0.000 N 
ATOM      5  N   UNL     1      -1.407  11.669  20.481  0.00  0.00    +0.000 NA
ATOM      6  C   UNL     1      -2.335  11.775  19.439  0.00  0.00    +0.000 A 
ATOM      7  H   UNL     1       0.723  11.582  21.650  0.00  0.00    +0.000 HD
ENDROOT
BRANCH   6   8
ATOM      8  C   UNL     1      -3.679  12.307  19.707  0.00  0.00    +0.000 A 
ATOM      9  C   UNL     1      -3.856  13.329  20.654  0.00  0.00    +0.000 A 
ATOM     10  C   UNL     1      -5.138  13.826  20.944  0.00  0.00    +0.000 A 
ATOM     11  C   UNL     1      -6.254  13.317  20.285  0.00  0.00    +0.000 A 
ATOM     12  C   UNL     1      -6.096  12.294  19.356  0.00  0.00    +0.000 A 
ATOM     13  C   UNL     1      -4.823  11.782  19.087  0.00  0.00    +0.000 A 
ENDBRANCH   6   8
BRANCH   4  14
ATOM     14  S   UNL     1       0.853   9.341  21.574  0.00  0.00    +0.000 S 
ATOM     15  O   UNL     1       1.724   9.345  22.731  0.00  0.00    +0.000 OA
ATOM     16  O   UNL     1      -0.526   8.917  21.719  0.00  0.00    +0.000 OA
BRANCH  14  17
ATOM     17  C   UNL     1       1.579   8.342  20.349  0.00  0.00    +0.000 C 
ATOM     18  C   UNL     1       1.606   7.013  20.531  0.00  0.00    +0.000 C 
BRANCH  18  19
ATOM     19  C   UNL     1       2.248   6.099  19.580  0.00  0.00    +0.000 A 
ATOM     20  C   UNL     1       3.027   6.662  18.559  0.00  0.00    +0.000 A 
ATOM     21  C   UNL     1       3.707   5.844  17.653  0.00  0.00    +0.000 A 
ATOM     22  C   UNL     1       3.615   4.458  17.758  0.00  0.00    +0.000 A 
ATOM     23  C   UNL     1       2.833   3.887  18.762  0.00  0.00    +0.000 A 
ATOM     24  C   UNL     1       2.149   4.702  19.670  0.00  0.00    +0.000 A 
ATOM     25 CL   UNL     1       1.213   3.933  20.901  0.00  0.00    +0.000 Cl
ENDBRANCH  18  19
ENDBRANCH  14  17
ENDBRANCH   4  14
BRANCH   1  27
ATOM     26  C   UNL     1      -2.738  10.197  16.079  0.00  0.00    +0.000 C 
ATOM     27  C   UNL     1      -2.474  11.502  16.819  0.00  0.00    +0.000 C 
ENDBRANCH   1  27
TORSDOF 5
ENDMDL
