MODEL 1
REMARK VINA RESULT:      -7.5      0.000      0.000
REMARK  Name = 
REMARK  7 active torsions:
REMARK  status: ('A' for Active; 'I' for Inactive)
REMARK    1  A    between atoms: C_1  and  C_2
REMARK    2  A    between atoms: C_2  and  O_3
REMARK    3  A    between atoms: O_3  and  C_4
REMARK    4  A    between atoms: C_4  and  C_6
REMARK    5  A    between atoms: C_7  and  C_8
REMARK    6  A    between atoms: N_10  and  C_11
REMARK    7  A    between atoms: C_18  and  C_19
REMARK                            x       y       z     vdW  Elec       q    Type
REMARK                         _______ _______ _______ _____ _____    ______ ____
ROOT
ATOM      1  C   UNL     1       6.334   5.171  17.615  0.00  0.00    +0.000 A 
ATOM      2  C   UNL     1       6.671   5.240  18.986  0.00  0.00    +0.000 A 
ATOM      3  C   UNL     1       7.944   5.648  19.637  0.00  0.00    +0.000 C 
ATOM      4  N   UNL     1       5.647   4.901  19.768  0.00  0.00    +0.000 NA
ATOM      5  N   UNL     1       4.629   4.589  18.939  0.00  0.00    +0.000 N 
ATOM      6  C   UNL     1       4.995   4.760  17.607  0.00  0.00    +0.000 A 
ATOM      7  C   UNL     1       4.063   4.634  16.450  0.00  0.00    +0.000 C 
ENDROOT
BRANCH   5   8
ATOM      8  C   UNL     1       3.422   4.060  19.480  0.00  0.00    +0.000 A 
ATOM      9  C   UNL     1       2.587   4.906  20.235  0.00  0.00    +0.000 A 
ATOM     10  C   UNL     1       1.379   4.437  20.755  0.00  0.00    +0.000 A 
ATOM     11  C   UNL     1       0.977   3.129  20.511  0.00  0.00    +0.000 A 
ATOM     12  C   UNL     1       1.791   2.285  19.756  0.00  0.00    +0.000 A 
ATOM     13  C   UNL     1       3.014   2.738  19.241  0.00  0.00    +0.000 A 
ATOM     14 CL   UNL     1       3.983   1.537  18.455  0.00  0.00    +0.000 Cl
ENDBRANCH   5   8
BRANCH   1  15
ATOM     15  C   UNL     1       7.161   5.541  16.472  0.00  0.00    +0.000 C 
ATOM     16  O   UNL     1       7.617   6.663  16.302  0.00  0.00    +0.000 OA
BRANCH  15  17
ATOM     17  O   UNL     1       7.291   4.525  15.571  0.00  0.00    +0.000 OA
BRANCH  17  19
ATOM     18  C   UNL     1       6.189   3.793  13.580  0.00  0.00    +0.000 C 
ATOM     19  C   UNL     1       7.055   4.874  14.203  0.00  0.00    +0.000 C 
ENDBRANCH  17  19
ENDBRANCH  15  17
ENDBRANCH   1  15
TORSDOF 4
ENDMDL
MODEL 2
REMARK VINA RESULT:      -7.4      1.336      1.696
REMARK  Name = 
REMARK  7 active torsions:
REMARK  status: ('A' for Active; 'I' for Inactive)
REMARK    1  A    between atoms: C_1  and  C_2
REMARK    2  A    between atoms: C_2  and  O_3
REMARK    3  A    between atoms: O_3  and  C_4
REMARK    4  A    between atoms: C_4  and  C_6
REMARK    5  A    between atoms: C_7  and  C_8
REMARK    6  A    between atoms: N_10  and  C_11
REMARK    7  A    between atoms: C_18  and  C_19
REMARK                            x       y       z     vdW  Elec       q    Type
REMARK                         _______ _______ _______ _____ _____    ______ ____
ROOT
ATOM      1  C   UNL     1       6.346   5.130  17.554  0.00  0.00    +0.000 A 
ATOM      2  C   UNL     1       6.756   5.316  18.895  0.00  0.00    +0.000 A 
ATOM      3  C   UNL     1       8.064   5.766  19.441  0.00  0.00    +0.000 C 
ATOM      4  N   UNL     1       5.771   5.060  19.756  0.00  0.00    +0.000 NA
ATOM      5  N   UNL     1       4.709   4.687  19.011  0.00  0.00    +0.000 N 
ATOM      6  C   UNL     1       5.007   4.735  17.652  0.00  0.00    +0.000 A 
ATOM      7  C   UNL     1       4.014   4.517  16.560  0.00  0.00    +0.000 C 
ENDROOT
BRANCH   5   8
ATOM      8  C   UNL     1       3.529   4.223  19.659  0.00  0.00    +0.000 A 
ATOM      9  C   UNL     1       3.439   2.864  20.016  0.00  0.00    +0.000 A 
ATOM     10  C   UNL     1       2.313   2.375  20.683  0.00  0.00    +0.000 A 
ATOM     11  C   UNL     1       1.276   3.235  21.023  0.00  0.00    +0.000 A 
ATOM     12  C   UNL     1       1.359   4.586  20.685  0.00  0.00    +0.000 A 
ATOM     13  C   UNL     1       2.476   5.087  20.001  0.00  0.00    +0.000 A 
ATOM     14 CL   UNL     1       2.370   6.747  19.517  0.00  0.00    +0.000 Cl
ENDBRANCH   5   8
BRANCH   1  15
ATOM     15  C   UNL     1       7.115   5.386  16.342  0.00  0.00    +0.000 C 
ATOM     16  O   UNL     1       7.667   6.451  16.104  0.00  0.00    +0.000 OA
BRANCH  15  17
ATOM     17  O   UNL     1       7.072   4.342  15.465  0.00  0.00    +0.000 OA
BRANCH  17  19
ATOM     18  C   UNL     1       5.959   3.746  13.435  0.00  0.00    +0.000 C 
ATOM     19  C   UNL     1       6.951   4.696  14.084  0.00  0.00    +0.000 C 
ENDBRANCH  17  19
ENDBRANCH  15  17
ENDBRANCH   1  15
TORSDOF 4
ENDMDL
MODEL 3
REMARK VINA RESULT:      -7.3      0.982      1.124
REMARK  Name = 
REMARK  7 active torsions:
REMARK  status: ('A' for Active; 'I' for Inactive)
REMARK    1  A    between atoms: C_1  and  C_2
REMARK    2  A    between atoms: C_2  and  O_3
REMARK    3  A    between atoms: O_3  and  C_4
REMARK    4  A    between atoms: C_4  and  C_6
REMARK    5  A    between atoms: C_7  and  C_8
REMARK    6  A    between atoms: N_10  and  C_11
REMARK    7  A    between atoms: C_18  and  C_19
REMARK                            x       y       z     vdW  Elec       q    Type
REMARK                         _______ _______ _______ _____ _____    ______ ____
ROOT
ATOM      1  C   UNL     1       6.404   6.149  17.931  0.00  0.00    +0.000 A 
ATOM      2  C   UNL     1       6.809   5.489  19.115  0.00  0.00    +0.000 A 
ATOM      3  C   UNL     1       8.161   5.351  19.717  0.00  0.00    +0.000 C 
ATOM      4  N   UNL     1       5.776   4.951  19.762  0.00  0.00    +0.000 NA
ATOM      5  N   UNL     1       4.683   5.225  19.019  0.00  0.00    +0.000 N 
ATOM      6  C   UNL     1       5.015   5.977  17.896  0.00  0.00    +0.000 A 
ATOM      7  C   UNL     1       4.025   6.562  16.946  0.00  0.00    +0.000 C 
ENDROOT
BRANCH   5   8
ATOM      8  C   UNL     1       3.427   4.665  19.389  0.00  0.00    +0.000 A 
ATOM      9  C   UNL     1       2.634   5.341  20.336  0.00  0.00    +0.000 A 
ATOM     10  C   UNL     1       1.380   4.844  20.701  0.00  0.00    +0.000 A 
ATOM     11  C   UNL     1       0.893   3.683  20.113  0.00  0.00    +0.000 A 
ATOM     12  C   UNL     1       1.665   3.012  19.165  0.00  0.00    +0.000 A 
ATOM     13  C   UNL     1       2.931   3.490  18.801  0.00  0.00    +0.000 A 
ATOM     14 CL   UNL     1       3.833   2.472  17.728  0.00  0.00    +0.000 Cl
ENDBRANCH   5   8
BRANCH   1  15
ATOM     15  C   UNL     1       7.233   6.917  17.010  0.00  0.00    +0.000 C 
ATOM     16  O   UNL     1       7.523   8.093  17.181  0.00  0.00    +0.000 OA
BRANCH  15  17
ATOM     17  O   UNL     1       7.569   6.208  15.893  0.00  0.00    +0.000 OA
BRANCH  17  19
ATOM     18  C   UNL     1       6.487   4.572  14.528  0.00  0.00    +0.000 C 
ATOM     19  C   UNL     1       7.140   4.843  15.872  0.00  0.00    +0.000 C 
ENDBRANCH  17  19
ENDBRANCH  15  17
ENDBRANCH   1  15
TORSDOF 4
ENDMDL
MODEL 4
REMARK VINA RESULT:      -7.1      1.673      2.609
REMARK  Name = 
REMARK  7 active torsions:
REMARK  status: ('A' for Active; 'I' for Inactive)
REMARK    1  A    between atoms: C_1  and  C_2
REMARK    2  A    between atoms: C_2  and  O_3
REMARK    3  A    between atoms: O_3  and  C_4
REMARK    4  A    between atoms: C_4  and  C_6
REMARK    5  A    between atoms: C_7  and  C_8
REMARK    6  A    between atoms: N_10  and  C_11
REMARK    7  A    between atoms: C_18  and  C_19
REMARK                            x       y       z     vdW  Elec       q    Type
REMARK                         _______ _______ _______ _____ _____    ______ ____
ROOT
ATOM      1  C   UNL     1       6.386   6.154  17.940  0.00  0.00    +0.000 A 
ATOM      2  C   UNL     1       6.793   5.482  19.116  0.00  0.00    +0.000 A 
ATOM      3  C   UNL     1       8.147   5.339  19.714  0.00  0.00    +0.000 C 
ATOM      4  N   UNL     1       5.763   4.933  19.758  0.00  0.00    +0.000 NA
ATOM      5  N   UNL     1       4.668   5.215  19.020  0.00  0.00    +0.000 N 
ATOM      6  C   UNL     1       4.997   5.981  17.905  0.00  0.00    +0.000 A 
ATOM      7  C   UNL     1       4.004   6.574  16.963  0.00  0.00    +0.000 C 
ENDROOT
BRANCH   5   8
ATOM      8  C   UNL     1       3.414   4.648  19.385  0.00  0.00    +0.000 A 
ATOM      9  C   UNL     1       2.613   5.320  20.328  0.00  0.00    +0.000 A 
ATOM     10  C   UNL     1       1.361   4.816  20.689  0.00  0.00    +0.000 A 
ATOM     11  C   UNL     1       0.882   3.653  20.098  0.00  0.00    +0.000 A 
ATOM     12  C   UNL     1       1.661   2.985  19.154  0.00  0.00    +0.000 A 
ATOM     13  C   UNL     1       2.926   3.470  18.794  0.00  0.00    +0.000 A 
ATOM     14 CL   UNL     1       3.838   2.456  17.726  0.00  0.00    +0.000 Cl
ENDBRANCH   5   8
BRANCH   1  15
ATOM     15  C   UNL     1       7.212   6.935  17.027  0.00  0.00    +0.000 C 
ATOM     16  O   UNL     1       7.827   6.449  16.088  0.00  0.00    +0.000 OA
BRANCH  15  17
ATOM     17  O   UNL     1       7.295   8.248  17.389  0.00  0.00    +0.000 OA
BRANCH  17  19
ATOM     18  C   UNL     1       8.573  10.112  18.168  0.00  0.00    +0.000 C 
ATOM     19  C   UNL     1       8.428   8.600  18.189  0.00  0.00    +0.000 C 
ENDBRANCH  17  19
ENDBRANCH  15  17
ENDBRANCH   1  15
TORSDOF 4
ENDMDL
MODEL 5
REMARK VINA RESULT:      -7.1      1.901      3.312
REMARK  Name = 
REMARK  7 active torsions:
REMARK  status: ('A' for Active; 'I' for Inactive)
REMARK    1  A    between atoms: C_1  and  C_2
REMARK    2  A    between atoms: C_2  and  O_3
REMARK    3  A    between atoms: O_3  and  C_4
REMARK    4  A    between atoms: C_4  and  C_6
REMARK    5  A    between atoms: C_7  and  C_8
REMARK    6  A    between atoms: N_10  and  C_11
REMARK    7  A    between atoms: C_18  and  C_19
REMARK                            x       y       z     vdW  Elec       q    Type
REMARK                         _______ _______ _______ _____ _____    ______ ____
ROOT
ATOM      1  C   UNL     1       6.001   4.638  17.010  0.00  0.00    +0.000 A 
ATOM      2  C   UNL     1       5.131   4.342  15.936  0.00  0.00    +0.000 A 
ATOM      3  C   UNL     1       5.374   4.388  14.469  0.00  0.00    +0.000 C 
ATOM      4  N   UNL     1       3.933   3.942  16.361  0.00  0.00    +0.000 NA
ATOM      5  N   UNL     1       3.982   3.981  17.709  0.00  0.00    +0.000 N 
ATOM      6  C   UNL     1       5.237   4.382  18.156  0.00  0.00    +0.000 A 
ATOM      7  C   UNL     1       5.663   4.396  19.586  0.00  0.00    +0.000 C 
ENDROOT
BRANCH   5   8
ATOM      8  C   UNL     1       2.798   3.727  18.459  0.00  0.00    +0.000 A 
ATOM      9  C   UNL     1       2.240   2.434  18.434  0.00  0.00    +0.000 A 
ATOM     10  C   UNL     1       1.100   2.134  19.182  0.00  0.00    +0.000 A 
ATOM     11  C   UNL     1       0.515   3.109  19.981  0.00  0.00    +0.000 A 
ATOM     12  C   UNL     1       1.064   4.390  20.024  0.00  0.00    +0.000 A 
ATOM     13  C   UNL     1       2.199   4.710  19.266  0.00  0.00    +0.000 A 
ATOM     14 CL   UNL     1       2.677   6.375  19.302  0.00  0.00    +0.000 Cl
ENDBRANCH   5   8
BRANCH   1  15
ATOM     15  C   UNL     1       7.405   5.027  16.942  0.00  0.00    +0.000 C 
ATOM     16  O   UNL     1       8.331   4.241  17.086  0.00  0.00    +0.000 OA
BRANCH  15  17
ATOM     17  O   UNL     1       7.569   6.373  16.793  0.00  0.00    +0.000 OA
BRANCH  17  19
ATOM     18  C   UNL     1       7.894   8.583  17.643  0.00  0.00    +0.000 C 
ATOM     19  C   UNL     1       7.744   7.115  18.004  0.00  0.00    +0.000 C 
ENDBRANCH  17  19
ENDBRANCH  15  17
ENDBRANCH   1  15
TORSDOF 4
ENDMDL
MODEL 6
REMARK VINA RESULT:      -7.0      2.071      3.061
REMARK  Name = 
REMARK  7 active torsions:
REMARK  status: ('A' for Active; 'I' for Inactive)
REMARK    1  A    between atoms: C_1  and  C_2
REMARK    2  A    between atoms: C_2  and  O_3
REMARK    3  A    between atoms: O_3  and  C_4
REMARK    4  A    between atoms: C_4  and  C_6
REMARK    5  A    between atoms: C_7  and  C_8
REMARK    6  A    between atoms: N_10  and  C_11
REMARK    7  A    between atoms: C_18  and  C_19
REMARK                            x       y       z     vdW  Elec       q    Type
REMARK                         _______ _______ _______ _____ _____    ______ ____
ROOT
ATOM      1  C   UNL     1       6.338   6.079  17.953  0.00  0.00    +0.000 A 
ATOM      2  C   UNL     1       6.802   5.486  19.150  0.00  0.00    +0.000 A 
ATOM      3  C   UNL     1       8.173   5.436  19.723  0.00  0.00    +0.000 C 
ATOM      4  N   UNL     1       5.812   4.924  19.843  0.00  0.00    +0.000 NA
ATOM      5  N   UNL     1       4.690   5.116  19.118  0.00  0.00    +0.000 N 
ATOM      6  C   UNL     1       4.958   5.839  17.960  0.00  0.00    +0.000 A 
ATOM      7  C   UNL     1       3.918   6.338  17.013  0.00  0.00    +0.000 C 
ENDROOT
BRANCH   5   8
ATOM      8  C   UNL     1       3.472   4.511  19.540  0.00  0.00    +0.000 A 
ATOM      9  C   UNL     1       3.351   3.109  19.476  0.00  0.00    +0.000 A 
ATOM     10  C   UNL     1       2.186   2.473  19.912  0.00  0.00    +0.000 A 
ATOM     11  C   UNL     1       1.139   3.221  20.437  0.00  0.00    +0.000 A 
ATOM     12  C   UNL     1       1.252   4.609  20.517  0.00  0.00    +0.000 A 
ATOM     13  C   UNL     1       2.409   5.262  20.068  0.00  0.00    +0.000 A 
ATOM     14 CL   UNL     1       2.344   6.993  20.090  0.00  0.00    +0.000 Cl
ENDBRANCH   5   8
BRANCH   1  15
ATOM     15  C   UNL     1       7.105   6.850  16.983  0.00  0.00    +0.000 C 
ATOM     16  O   UNL     1       7.676   6.352  16.022  0.00  0.00    +0.000 OA
BRANCH  15  17
ATOM     17  O   UNL     1       7.194   8.170  17.315  0.00  0.00    +0.000 OA
BRANCH  17  19
ATOM     18  C   UNL     1       8.412  10.065  18.115  0.00  0.00    +0.000 C 
ATOM     19  C   UNL     1       8.362   8.548  18.050  0.00  0.00    +0.000 C 
ENDBRANCH  17  19
ENDBRANCH  15  17
ENDBRANCH   1  15
TORSDOF 4
ENDMDL
MODEL 7
REMARK VINA RESULT:      -6.9      1.939      2.950
REMARK  Name = 
REMARK  7 active torsions:
REMARK  status: ('A' for Active; 'I' for Inactive)
REMARK    1  A    between atoms: C_1  and  C_2
REMARK    2  A    between atoms: C_2  and  O_3
REMARK    3  A    between atoms: O_3  and  C_4
REMARK    4  A    between atoms: C_4  and  C_6
REMARK    5  A    between atoms: C_7  and  C_8
REMARK    6  A    between atoms: N_10  and  C_11
REMARK    7  A    between atoms: C_18  and  C_19
REMARK                            x       y       z     vdW  Elec       q    Type
REMARK                         _______ _______ _______ _____ _____    ______ ____
ROOT
ATOM      1  C   UNL     1       5.024   5.412  16.706  0.00  0.00    +0.000 A 
ATOM      2  C   UNL     1       5.211   4.030  16.475  0.00  0.00    +0.000 A 
ATOM      3  C   UNL     1       6.032   3.336  15.447  0.00  0.00    +0.000 C 
ATOM      4  N   UNL     1       4.549   3.283  17.358  0.00  0.00    +0.000 NA
ATOM      5  N   UNL     1       3.904   4.147  18.171  0.00  0.00    +0.000 N 
ATOM      6  C   UNL     1       4.182   5.466  17.824  0.00  0.00    +0.000 A 
ATOM      7  C   UNL     1       3.739   6.657  18.605  0.00  0.00    +0.000 C 
ENDROOT
BRANCH   5   8
ATOM      8  C   UNL     1       3.000   3.644  19.149  0.00  0.00    +0.000 A 
ATOM      9  C   UNL     1       3.515   3.164  20.369  0.00  0.00    +0.000 A 
ATOM     10  C   UNL     1       2.661   2.694  21.368  0.00  0.00    +0.000 A 
ATOM     11  C   UNL     1       1.285   2.717  21.176  0.00  0.00    +0.000 A 
ATOM     12  C   UNL     1       0.762   3.200  19.977  0.00  0.00    +0.000 A 
ATOM     13  C   UNL     1       1.608   3.661  18.959  0.00  0.00    +0.000 A 
ATOM     14 CL   UNL     1       0.825   4.088  17.474  0.00  0.00    +0.000 Cl
ENDBRANCH   5   8
BRANCH   1  15
ATOM     15  C   UNL     1       5.645   6.528  16.003  0.00  0.00    +0.000 C 
ATOM     16  O   UNL     1       5.049   7.244  15.211  0.00  0.00    +0.000 OA
BRANCH  15  17
ATOM     17  O   UNL     1       6.982   6.626  16.255  0.00  0.00    +0.000 OA
BRANCH  17  19
ATOM     18  C   UNL     1       7.795   8.403  17.633  0.00  0.00    +0.000 C 
ATOM     19  C   UNL     1       7.337   6.954  17.602  0.00  0.00    +0.000 C 
ENDBRANCH  17  19
ENDBRANCH  15  17
ENDBRANCH   1  15
TORSDOF 4
ENDMDL
MODEL 8
REMARK VINA RESULT:      -6.9      1.175      1.229
REMARK  Name = 
REMARK  7 active torsions:
REMARK  status: ('A' for Active; 'I' for Inactive)
REMARK    1  A    between atoms: C_1  and  C_2
REMARK    2  A    between atoms: C_2  and  O_3
REMARK    3  A    between atoms: O_3  and  C_4
REMARK    4  A    between atoms: C_4  and  C_6
REMARK    5  A    between atoms: C_7  and  C_8
REMARK    6  A    between atoms: N_10  and  C_11
REMARK    7  A    between atoms: C_18  and  C_19
REMARK                            x       y       z     vdW  Elec       q    Type
REMARK                         _______ _______ _______ _____ _____    ______ ____
ROOT
ATOM      1  C   UNL     1       5.508   4.892  16.998  0.00  0.00    +0.000 A 
ATOM      2  C   UNL     1       6.114   5.354  18.189  0.00  0.00    +0.000 A 
ATOM      3  C   UNL     1       7.409   6.056  18.392  0.00  0.00    +0.000 C 
ATOM      4  N   UNL     1       5.352   5.122  19.257  0.00  0.00    +0.000 NA
ATOM      5  N   UNL     1       4.248   4.493  18.801  0.00  0.00    +0.000 N 
ATOM      6  C   UNL     1       4.288   4.349  17.418  0.00  0.00    +0.000 A 
ATOM      7  C   UNL     1       3.165   3.822  16.589  0.00  0.00    +0.000 C 
ENDROOT
BRANCH   5   8
ATOM      8  C   UNL     1       3.292   3.996  19.732  0.00  0.00    +0.000 A 
ATOM      9  C   UNL     1       2.103   4.721  19.939  0.00  0.00    +0.000 A 
ATOM     10  C   UNL     1       1.124   4.251  20.817  0.00  0.00    +0.000 A 
ATOM     11  C   UNL     1       1.306   3.044  21.481  0.00  0.00    +0.000 A 
ATOM     12  C   UNL     1       2.475   2.311  21.276  0.00  0.00    +0.000 A 
ATOM     13  C   UNL     1       3.472   2.778  20.409  0.00  0.00    +0.000 A 
ATOM     14 CL   UNL     1       4.928   1.839  20.371  0.00  0.00    +0.000 Cl
ENDBRANCH   5   8
BRANCH   1  15
ATOM     15  C   UNL     1       5.998   5.037  15.632  0.00  0.00    +0.000 C 
ATOM     16  O   UNL     1       6.161   6.118  15.083  0.00  0.00    +0.000 OA
BRANCH  15  17
ATOM     17  O   UNL     1       6.165   3.836  15.006  0.00  0.00    +0.000 OA
BRANCH  17  19
ATOM     18  C   UNL     1       5.361   3.485  12.782  0.00  0.00    +0.000 C 
ATOM     19  C   UNL     1       6.551   3.903  13.630  0.00  0.00    +0.000 C 
ENDBRANCH  17  19
ENDBRANCH  15  17
ENDBRANCH   1  15
TORSDOF 4
ENDMDL
MODEL 9
REMARK VINA RESULT:      -6.8      3.354      6.101
REMARK  Name = 
REMARK  7 active torsions:
REMARK  status: ('A' for Active; 'I' for Inactive)
REMARK    1  A    between atoms: C_1  and  C_2
REMARK    2  A    between atoms: C_2  and  O_3
REMARK    3  A    between atoms: O_3  and  C_4
REMARK    4  A    between atoms: C_4  and  C_6
REMARK    5  A    between atoms: C_7  and  C_8
REMARK    6  A    between atoms: N_10  and  C_11
REMARK    7  A    between atoms: C_18  and  C_19
REMARK                            x       y       z     vdW  Elec       q    Type
REMARK                         _______ _______ _______ _____ _____    ______ ____
ROOT
ATOM      1  C   UNL     1       2.706   3.782  18.613  0.00  0.00    +0.000 A 
ATOM      2  C   UNL     1       3.698   2.831  18.281  0.00  0.00    +0.000 A 
ATOM      3  C   UNL     1       3.591   1.358  18.113  0.00  0.00    +0.000 C 
ATOM      4  N   UNL     1       4.885   3.401  18.074  0.00  0.00    +0.000 NA
ATOM      5  N   UNL     1       4.707   4.723  18.279  0.00  0.00    +0.000 N 
ATOM      6  C   UNL     1       3.381   5.009  18.590  0.00  0.00    +0.000 A 
ATOM      7  C   UNL     1       2.824   6.385  18.739  0.00  0.00    +0.000 C 
ENDROOT
BRANCH   5   8
ATOM      8  C   UNL     1       5.835   5.593  18.256  0.00  0.00    +0.000 A 
ATOM      9  C   UNL     1       6.789   5.495  19.287  0.00  0.00    +0.000 A 
ATOM     10  C   UNL     1       7.927   6.305  19.284  0.00  0.00    +0.000 A 
ATOM     11  C   UNL     1       8.139   7.204  18.246  0.00  0.00    +0.000 A 
ATOM     12  C   UNL     1       7.206   7.302  17.214  0.00  0.00    +0.000 A 
ATOM     13  C   UNL     1       6.052   6.507  17.212  0.00  0.00    +0.000 A 
ATOM     14 CL   UNL     1       4.915   6.845  15.950  0.00  0.00    +0.000 Cl
ENDBRANCH   5   8
BRANCH   1  15
ATOM     15  C   UNL     1       1.283   3.550  18.830  0.00  0.00    +0.000 C 
ATOM     16  O   UNL     1       0.509   3.218  17.943  0.00  0.00    +0.000 OA
BRANCH  15  17
ATOM     17  O   UNL     1       0.895   3.834  20.107  0.00  0.00    +0.000 OA
BRANCH  17  19
ATOM     18  C   UNL     1       2.313   3.240  21.937  0.00  0.00    +0.000 C 
ATOM     19  C   UNL     1       1.142   2.807  21.073  0.00  0.00    +0.000 C 
ENDBRANCH  17  19
ENDBRANCH  15  17
ENDBRANCH   1  15
TORSDOF 4
ENDMDL
