MODEL 1
REMARK VINA RESULT:      -8.4      0.000      0.000
REMARK  Name = 
REMARK  7 active torsions:
REMARK  status: ('A' for Active; 'I' for Inactive)
REMARK    1  A    between atoms: C_1  and  O_2
REMARK    2  A    between atoms: O_2  and  C_3
REMARK    3  A    between atoms: C_8  and  O_9
REMARK    4  A    between atoms: O_9  and  C_10
REMARK    5  A    between atoms: C_10  and  C_11
REMARK    6  A    between atoms: C_17  and  C_18
REMARK    7  A    between atoms: C_18  and  C_19
REMARK                            x       y       z     vdW  Elec       q    Type
REMARK                         _______ _______ _______ _____ _____    ______ ____
ROOT
ATOM      1  C   UNL     1       2.693   7.165  18.393  0.00  0.00    +0.000 A 
ATOM      2  C   UNL     1       2.316   8.320  17.697  0.00  0.00    +0.000 A 
ATOM      3  C   UNL     1       1.612   9.332  18.341  0.00  0.00    +0.000 A 
ATOM      4  C   UNL     1       1.225   9.179  19.685  0.00  0.00    +0.000 A 
ATOM      5  C   UNL     1       1.600   8.021  20.378  0.00  0.00    +0.000 A 
ATOM      6  C   UNL     1       2.366   7.031  19.752  0.00  0.00    +0.000 A 
ATOM      7  C   UNL     1       0.515  10.307  20.423  0.00  0.00    +0.000 C 
ATOM      8  N   UNL     1       0.979  11.623  19.941  0.00  0.00    +0.000 N 
ATOM      9  C   UNL     1       1.061  12.695  20.809  0.00  0.00    +0.000 C 
ATOM     10  O   UNL     1       0.661  12.703  21.963  0.00  0.00    +0.000 OA
ATOM     11  C   UNL     1       1.709  11.747  18.671  0.00  0.00    +0.000 C 
ATOM     12  C   UNL     1       1.372  10.651  17.666  0.00  0.00    +0.000 C 
ENDROOT
BRANCH   1  14
ATOM     13  C   UNL     1       4.835   6.624  17.554  0.00  0.00    +0.000 C 
ATOM     14  O   UNL     1       3.454   6.295  17.653  0.00  0.00    +0.000 OA
ENDBRANCH   1  14
BRANCH   6  15
ATOM     15  O   UNL     1       2.950   6.011  20.440  0.00  0.00    +0.000 OA
BRANCH  15  16
ATOM     16  C   UNL     1       2.099   5.021  21.006  0.00  0.00    +0.000 C 
BRANCH  16  17
ATOM     17  C   UNL     1       2.105   3.860  20.040  0.00  0.00    +0.000 A 
ATOM     18  C   UNL     1       3.321   3.361  19.547  0.00  0.00    +0.000 A 
ATOM     19  C   UNL     1       3.341   2.307  18.633  0.00  0.00    +0.000 A 
ATOM     20  C   UNL     1       2.145   1.740  18.205  0.00  0.00    +0.000 A 
ATOM     21  C   UNL     1       0.929   2.225  18.686  0.00  0.00    +0.000 A 
ATOM     22  C   UNL     1       0.908   3.281  19.600  0.00  0.00    +0.000 A 
ENDBRANCH  16  17
ENDBRANCH  15  16
ENDBRANCH   6  15
BRANCH   7  23
ATOM     23  C   UNL     1      -1.027  10.227  20.378  0.00  0.00    +0.000 C 
BRANCH  23  24
ATOM     24  C   UNL     1      -1.794  10.953  19.295  0.00  0.00    +0.000 A 
ATOM     25  C   UNL     1      -2.290  12.232  19.488  0.00  0.00    +0.000 A 
ATOM     26  N   UNL     1      -3.383  12.324  18.681  0.00  0.00    +0.000 N 
ATOM     27  C   UNL     1      -3.181  11.546  17.573  0.00  0.00    +0.000 A 
ATOM     28  C   UNL     1      -3.806  11.599  16.321  0.00  0.00    +0.000 A 
ATOM     29  C   UNL     1      -3.415  10.645  15.386  0.00  0.00    +0.000 A 
ATOM     30  C   UNL     1      -2.534   9.627  15.743  0.00  0.00    +0.000 A 
ATOM     31  C   UNL     1      -1.970   9.554  17.035  0.00  0.00    +0.000 A 
ATOM     32  C   UNL     1      -2.242  10.587  17.963  0.00  0.00    +0.000 A 
ATOM     33  H   UNL     1      -4.189  12.907  18.846  0.00  0.00    +0.000 HD
ENDBRANCH  23  24
ENDBRANCH   7  23
TORSDOF 6
ENDMDL
MODEL 2
REMARK VINA RESULT:      -7.8      3.781      7.785
REMARK  Name = 
REMARK  7 active torsions:
REMARK  status: ('A' for Active; 'I' for Inactive)
REMARK    1  A    between atoms: C_1  and  O_2
REMARK    2  A    between atoms: O_2  and  C_3
REMARK    3  A    between atoms: C_8  and  O_9
REMARK    4  A    between atoms: O_9  and  C_10
REMARK    5  A    between atoms: C_10  and  C_11
REMARK    6  A    between atoms: C_17  and  C_18
REMARK    7  A    between atoms: C_18  and  C_19
REMARK                            x       y       z     vdW  Elec       q    Type
REMARK                         _______ _______ _______ _____ _____    ______ ____
ROOT
ATOM      1  C   UNL     1      -2.338   9.964  17.063  0.00  0.00    +0.000 A 
ATOM      2  C   UNL     1      -0.958   9.759  17.189  0.00  0.00    +0.000 A 
ATOM      3  C   UNL     1      -0.312  10.034  18.389  0.00  0.00    +0.000 A 
ATOM      4  C   UNL     1      -1.031  10.574  19.471  0.00  0.00    +0.000 A 
ATOM      5  C   UNL     1      -2.410  10.782  19.342  0.00  0.00    +0.000 A 
ATOM      6  C   UNL     1      -3.075  10.443  18.158  0.00  0.00    +0.000 A 
ATOM      7  C   UNL     1      -0.351  10.816  20.812  0.00  0.00    +0.000 C 
ATOM      8  N   UNL     1       0.693   9.803  21.061  0.00  0.00    +0.000 N 
ATOM      9  C   UNL     1       0.948   9.364  22.347  0.00  0.00    +0.000 C 
ATOM     10  O   UNL     1       0.459   9.831  23.364  0.00  0.00    +0.000 OA
ATOM     11  C   UNL     1       1.215   8.972  19.966  0.00  0.00    +0.000 C 
ATOM     12  C   UNL     1       1.120   9.639  18.598  0.00  0.00    +0.000 C 
ENDROOT
BRANCH   1  14
ATOM     13  C   UNL     1      -3.032  10.609  14.898  0.00  0.00    +0.000 C 
ATOM     14  O   UNL     1      -2.849   9.569  15.852  0.00  0.00    +0.000 OA
ENDBRANCH   1  14
BRANCH   6  15
ATOM     15  O   UNL     1      -4.433  10.404  18.064  0.00  0.00    +0.000 OA
BRANCH  15  16
ATOM     16  C   UNL     1      -5.129  11.644  18.009  0.00  0.00    +0.000 C 
BRANCH  16  17
ATOM     17  C   UNL     1      -5.879  11.764  19.314  0.00  0.00    +0.000 A 
ATOM     18  C   UNL     1      -6.981  10.933  19.571  0.00  0.00    +0.000 A 
ATOM     19  C   UNL     1      -7.700  11.052  20.761  0.00  0.00    +0.000 A 
ATOM     20  C   UNL     1      -7.323  12.000  21.707  0.00  0.00    +0.000 A 
ATOM     21  C   UNL     1      -6.230  12.832  21.465  0.00  0.00    +0.000 A 
ATOM     22  C   UNL     1      -5.510  12.716  20.273  0.00  0.00    +0.000 A 
ENDBRANCH  16  17
ENDBRANCH  15  16
ENDBRANCH   6  15
BRANCH   7  23
ATOM     23  C   UNL     1       0.222  12.239  20.990  0.00  0.00    +0.000 C 
BRANCH  23  24
ATOM     24  C   UNL     1      -0.483  13.238  21.880  0.00  0.00    +0.000 A 
ATOM     25  C   UNL     1      -0.039  14.545  22.000  0.00  0.00    +0.000 A 
ATOM     26  N   UNL     1      -0.424  14.946  23.243  0.00  0.00    +0.000 N 
ATOM     27  C   UNL     1      -1.591  14.311  23.571  0.00  0.00    +0.000 A 
ATOM     28  C   UNL     1      -2.553  14.654  24.528  0.00  0.00    +0.000 A 
ATOM     29  C   UNL     1      -3.634  13.788  24.666  0.00  0.00    +0.000 A 
ATOM     30  C   UNL     1      -3.671  12.587  23.961  0.00  0.00    +0.000 A 
ATOM     31  C   UNL     1      -2.652  12.231  23.052  0.00  0.00    +0.000 A 
ATOM     32  C   UNL     1      -1.611  13.152  22.789  0.00  0.00    +0.000 A 
ATOM     33  H   UNL     1       0.045  15.636  23.810  0.00  0.00    +0.000 HD
ENDBRANCH  23  24
ENDBRANCH   7  23
TORSDOF 6
ENDMDL
MODEL 3
REMARK VINA RESULT:      -7.7      4.049      8.013
REMARK  Name = 
REMARK  7 active torsions:
REMARK  status: ('A' for Active; 'I' for Inactive)
REMARK    1  A    between atoms: C_1  and  O_2
REMARK    2  A    between atoms: O_2  and  C_3
REMARK    3  A    between atoms: C_8  and  O_9
REMARK    4  A    between atoms: O_9  and  C_10
REMARK    5  A    between atoms: C_10  and  C_11
REMARK    6  A    between atoms: C_17  and  C_18
REMARK    7  A    between atoms: C_18  and  C_19
REMARK                            x       y       z     vdW  Elec       q    Type
REMARK                         _______ _______ _______ _____ _____    ______ ____
ROOT
ATOM      1  C   UNL     1      -5.756  12.859  21.372  0.00  0.00    +0.000 A 
ATOM      2  C   UNL     1      -5.322  13.245  22.647  0.00  0.00    +0.000 A 
ATOM      3  C   UNL     1      -3.967  13.263  22.954  0.00  0.00    +0.000 A 
ATOM      4  C   UNL     1      -3.020  12.839  22.004  0.00  0.00    +0.000 A 
ATOM      5  C   UNL     1      -3.456  12.449  20.731  0.00  0.00    +0.000 A 
ATOM      6  C   UNL     1      -4.814  12.494  20.396  0.00  0.00    +0.000 A 
ATOM      7  C   UNL     1      -1.529  12.917  22.303  0.00  0.00    +0.000 C 
ATOM      8  N   UNL     1      -1.228  14.075  23.168  0.00  0.00    +0.000 N 
ATOM      9  C   UNL     1      -0.035  14.759  23.029  0.00  0.00    +0.000 C 
ATOM     10  O   UNL     1       0.894  14.422  22.311  0.00  0.00    +0.000 OA
ATOM     11  C   UNL     1      -2.295  14.758  23.913  0.00  0.00    +0.000 C 
ATOM     12  C   UNL     1      -3.479  13.856  24.244  0.00  0.00    +0.000 C 
ENDROOT
BRANCH   1  14
ATOM     13  C   UNL     1      -7.915  12.434  22.232  0.00  0.00    +0.000 C 
ATOM     14  O   UNL     1      -7.111  12.972  21.189  0.00  0.00    +0.000 OA
ENDBRANCH   1  14
BRANCH   6  15
ATOM     15  O   UNL     1      -5.259  12.354  19.117  0.00  0.00    +0.000 OA
BRANCH  15  16
ATOM     16  C   UNL     1      -5.485  11.035  18.635  0.00  0.00    +0.000 C 
BRANCH  16  17
ATOM     17  C   UNL     1      -4.390  10.761  17.631  0.00  0.00    +0.000 A 
ATOM     18  C   UNL     1      -4.503  11.245  16.318  0.00  0.00    +0.000 A 
ATOM     19  C   UNL     1      -3.513  10.976  15.372  0.00  0.00    +0.000 A 
ATOM     20  C   UNL     1      -2.399  10.223  15.731  0.00  0.00    +0.000 A 
ATOM     21  C   UNL     1      -2.274   9.736  17.031  0.00  0.00    +0.000 A 
ATOM     22  C   UNL     1      -3.266  10.003  17.979  0.00  0.00    +0.000 A 
ENDBRANCH  16  17
ENDBRANCH  15  16
ENDBRANCH   6  15
BRANCH   7  23
ATOM     23  C   UNL     1      -0.929  11.625  22.900  0.00  0.00    +0.000 C 
BRANCH  23  24
ATOM     24  C   UNL     1      -0.393  10.544  21.989  0.00  0.00    +0.000 A 
ATOM     25  C   UNL     1      -0.353   9.216  22.382  0.00  0.00    +0.000 A 
ATOM     26  N   UNL     1       0.685   8.665  21.695  0.00  0.00    +0.000 N 
ATOM     27  C   UNL     1       0.801   9.296  20.485  0.00  0.00    +0.000 A 
ATOM     28  C   UNL     1       1.430   8.865  19.312  0.00  0.00    +0.000 A 
ATOM     29  C   UNL     1       1.416   9.746  18.235  0.00  0.00    +0.000 A 
ATOM     30  C   UNL     1       0.902  11.033  18.383  0.00  0.00    +0.000 A 
ATOM     31  C   UNL     1       0.334  11.468  19.599  0.00  0.00    +0.000 A 
ATOM     32  C   UNL     1       0.211  10.550  20.668  0.00  0.00    +0.000 A 
ATOM     33  H   UNL     1       1.248   7.886  22.003  0.00  0.00    +0.000 HD
ENDBRANCH  23  24
ENDBRANCH   7  23
TORSDOF 6
ENDMDL
MODEL 4
REMARK VINA RESULT:      -7.5      4.181      7.530
REMARK  Name = 
REMARK  7 active torsions:
REMARK  status: ('A' for Active; 'I' for Inactive)
REMARK    1  A    between atoms: C_1  and  O_2
REMARK    2  A    between atoms: O_2  and  C_3
REMARK    3  A    between atoms: C_8  and  O_9
REMARK    4  A    between atoms: O_9  and  C_10
REMARK    5  A    between atoms: C_10  and  C_11
REMARK    6  A    between atoms: C_17  and  C_18
REMARK    7  A    between atoms: C_18  and  C_19
REMARK                            x       y       z     vdW  Elec       q    Type
REMARK                         _______ _______ _______ _____ _____    ______ ____
ROOT
ATOM      1  C   UNL     1      -1.863  14.546  23.782  0.00  0.00    +0.000 A 
ATOM      2  C   UNL     1      -3.110  15.164  23.932  0.00  0.00    +0.000 A 
ATOM      3  C   UNL     1      -4.232  14.651  23.290  0.00  0.00    +0.000 A 
ATOM      4  C   UNL     1      -4.112  13.537  22.439  0.00  0.00    +0.000 A 
ATOM      5  C   UNL     1      -2.862  12.923  22.288  0.00  0.00    +0.000 A 
ATOM      6  C   UNL     1      -1.745  13.396  22.985  0.00  0.00    +0.000 A 
ATOM      7  C   UNL     1      -5.342  12.923  21.784  0.00  0.00    +0.000 C 
ATOM      8  N   UNL     1      -6.521  13.047  22.664  0.00  0.00    +0.000 N 
ATOM      9  C   UNL     1      -7.492  12.063  22.675  0.00  0.00    +0.000 C 
ATOM     10  O   UNL     1      -7.540  11.109  21.913  0.00  0.00    +0.000 OA
ATOM     11  C   UNL     1      -6.523  13.986  23.795  0.00  0.00    +0.000 C 
ATOM     12  C   UNL     1      -5.601  15.183  23.594  0.00  0.00    +0.000 C 
ENDROOT
BRANCH   1  14
ATOM     13  C   UNL     1      -0.408  16.382  24.093  0.00  0.00    +0.000 C 
ATOM     14  O   UNL     1      -0.868  15.112  24.540  0.00  0.00    +0.000 OA
ENDBRANCH   1  14
BRANCH   6  15
ATOM     15  O   UNL     1      -0.576  12.701  23.056  0.00  0.00    +0.000 OA
BRANCH  15  16
ATOM     16  C   UNL     1       0.129  12.466  21.843  0.00  0.00    +0.000 C 
BRANCH  16  17
ATOM     17  C   UNL     1       0.201  10.965  21.683  0.00  0.00    +0.000 A 
ATOM     18  C   UNL     1       0.887  10.406  20.594  0.00  0.00    +0.000 A 
ATOM     19  C   UNL     1       0.938   9.023  20.417  0.00  0.00    +0.000 A 
ATOM     20  C   UNL     1       0.306   8.185  21.331  0.00  0.00    +0.000 A 
ATOM     21  C   UNL     1      -0.379   8.727  22.418  0.00  0.00    +0.000 A 
ATOM     22  C   UNL     1      -0.433  10.112  22.595  0.00  0.00    +0.000 A 
ENDBRANCH  16  17
ENDBRANCH  15  16
ENDBRANCH   6  15
BRANCH   7  23
ATOM     23  C   UNL     1      -5.657  13.472  20.376  0.00  0.00    +0.000 C 
BRANCH  23  24
ATOM     24  C   UNL     1      -5.317  12.658  19.148  0.00  0.00    +0.000 A 
ATOM     25  C   UNL     1      -6.247  12.428  18.148  0.00  0.00    +0.000 A 
ATOM     26  N   UNL     1      -5.891  11.240  17.586  0.00  0.00    +0.000 N 
ATOM     27  C   UNL     1      -4.530  11.106  17.659  0.00  0.00    +0.000 A 
ATOM     28  C   UNL     1      -3.674  10.286  16.916  0.00  0.00    +0.000 A 
ATOM     29  C   UNL     1      -2.322  10.337  17.240  0.00  0.00    +0.000 A 
ATOM     30  C   UNL     1      -1.886  11.082  18.334  0.00  0.00    +0.000 A 
ATOM     31  C   UNL     1      -2.780  11.847  19.112  0.00  0.00    +0.000 A 
ATOM     32  C   UNL     1      -4.138  11.924  18.723  0.00  0.00    +0.000 A 
ATOM     33  H   UNL     1      -6.518  10.587  17.142  0.00  0.00    +0.000 HD
ENDBRANCH  23  24
ENDBRANCH   7  23
TORSDOF 6
ENDMDL
MODEL 5
REMARK VINA RESULT:      -7.4      4.128      7.588
REMARK  Name = 
REMARK  7 active torsions:
REMARK  status: ('A' for Active; 'I' for Inactive)
REMARK    1  A    between atoms: C_1  and  O_2
REMARK    2  A    between atoms: O_2  and  C_3
REMARK    3  A    between atoms: C_8  and  O_9
REMARK    4  A    between atoms: O_9  and  C_10
REMARK    5  A    between atoms: C_10  and  C_11
REMARK    6  A    between atoms: C_17  and  C_18
REMARK    7  A    between atoms: C_18  and  C_19
REMARK                            x       y       z     vdW  Elec       q    Type
REMARK                         _______ _______ _______ _____ _____    ______ ____
ROOT
ATOM      1  C   UNL     1      -3.143  10.523  17.614  0.00  0.00    +0.000 A 
ATOM      2  C   UNL     1      -4.540  10.429  17.599  0.00  0.00    +0.000 A 
ATOM      3  C   UNL     1      -5.312  11.268  18.396  0.00  0.00    +0.000 A 
ATOM      4  C   UNL     1      -4.692  12.183  19.266  0.00  0.00    +0.000 A 
ATOM      5  C   UNL     1      -3.294  12.274  19.283  0.00  0.00    +0.000 A 
ATOM      6  C   UNL     1      -2.517  11.477  18.434  0.00  0.00    +0.000 A 
ATOM      7  C   UNL     1      -5.523  13.155  20.093  0.00  0.00    +0.000 C 
ATOM      8  N   UNL     1      -6.745  13.550  19.365  0.00  0.00    +0.000 N 
ATOM      9  C   UNL     1      -7.265  14.823  19.513  0.00  0.00    +0.000 C 
ATOM     10  O   UNL     1      -6.871  15.660  20.310  0.00  0.00    +0.000 OA
ATOM     11  C   UNL     1      -7.218  12.777  18.208  0.00  0.00    +0.000 C 
ATOM     12  C   UNL     1      -6.804  11.310  18.246  0.00  0.00    +0.000 C 
ENDROOT
BRANCH   1  14
ATOM     13  C   UNL     1      -2.787   9.966  15.346  0.00  0.00    +0.000 C 
ATOM     14  O   UNL     1      -2.521   9.693  16.717  0.00  0.00    +0.000 OA
ENDBRANCH   1  14
BRANCH   6  15
ATOM     15  O   UNL     1      -1.186  11.691  18.242  0.00  0.00    +0.000 OA
BRANCH  15  16
ATOM     16  C   UNL     1      -0.432  12.194  19.339  0.00  0.00    +0.000 C 
BRANCH  16  17
ATOM     17  C   UNL     1      -0.035  10.991  20.163  0.00  0.00    +0.000 A 
ATOM     18  C   UNL     1      -0.400  10.915  21.516  0.00  0.00    +0.000 A 
ATOM     19  C   UNL     1      -0.017   9.824  22.297  0.00  0.00    +0.000 A 
ATOM     20  C   UNL     1       0.733   8.797  21.731  0.00  0.00    +0.000 A 
ATOM     21  C   UNL     1       1.101   8.859  20.387  0.00  0.00    +0.000 A 
ATOM     22  C   UNL     1       0.720   9.952  19.605  0.00  0.00    +0.000 A 
ENDBRANCH  16  17
ENDBRANCH  15  16
ENDBRANCH   6  15
BRANCH   7  23
ATOM     23  C   UNL     1      -5.878  12.647  21.508  0.00  0.00    +0.000 C 
BRANCH  23  24
ATOM     24  C   UNL     1      -5.334  13.356  22.729  0.00  0.00    +0.000 A 
ATOM     25  C   UNL     1      -6.172  13.851  23.715  0.00  0.00    +0.000 A 
ATOM     26  N   UNL     1      -5.504  14.903  24.264  0.00  0.00    +0.000 N 
ATOM     27  C   UNL     1      -4.159  14.655  24.204  0.00  0.00    +0.000 A 
ATOM     28  C   UNL     1      -3.115  15.218  24.946  0.00  0.00    +0.000 A 
ATOM     29  C   UNL     1      -1.827  14.790  24.637  0.00  0.00    +0.000 A 
ATOM     30  C   UNL     1      -1.607  13.935  23.559  0.00  0.00    +0.000 A 
ATOM     31  C   UNL     1      -2.672  13.434  22.782  0.00  0.00    +0.000 A 
ATOM     32  C   UNL     1      -4.002  13.743  23.156  0.00  0.00    +0.000 A 
ATOM     33  H   UNL     1      -5.930  15.712  24.691  0.00  0.00    +0.000 HD
ENDBRANCH  23  24
ENDBRANCH   7  23
TORSDOF 6
ENDMDL
MODEL 6
REMARK VINA RESULT:      -7.3      4.787      7.741
REMARK  Name = 
REMARK  7 active torsions:
REMARK  status: ('A' for Active; 'I' for Inactive)
REMARK    1  A    between atoms: C_1  and  O_2
REMARK    2  A    between atoms: O_2  and  C_3
REMARK    3  A    between atoms: C_8  and  O_9
REMARK    4  A    between atoms: O_9  and  C_10
REMARK    5  A    between atoms: C_10  and  C_11
REMARK    6  A    between atoms: C_17  and  C_18
REMARK    7  A    between atoms: C_18  and  C_19
REMARK                            x       y       z     vdW  Elec       q    Type
REMARK                         _______ _______ _______ _____ _____    ______ ____
ROOT
ATOM      1  C   UNL     1      -2.803  10.322  17.010  0.00  0.00    +0.000 A 
ATOM      2  C   UNL     1      -1.538  10.221  17.602  0.00  0.00    +0.000 A 
ATOM      3  C   UNL     1      -1.259  10.893  18.787  0.00  0.00    +0.000 A 
ATOM      4  C   UNL     1      -2.230  11.726  19.372  0.00  0.00    +0.000 A 
ATOM      5  C   UNL     1      -3.494  11.829  18.777  0.00  0.00    +0.000 A 
ATOM      6  C   UNL     1      -3.799  11.101  17.621  0.00  0.00    +0.000 A 
ATOM      7  C   UNL     1      -1.963  12.413  20.705  0.00  0.00    +0.000 C 
ATOM      8  N   UNL     1      -1.104  11.575  21.565  0.00  0.00    +0.000 N 
ATOM      9  C   UNL     1      -1.269  11.584  22.937  0.00  0.00    +0.000 C 
ATOM     10  O   UNL     1      -2.006  12.336  23.556  0.00  0.00    +0.000 OA
ATOM     11  C   UNL     1      -0.336  10.456  21.001  0.00  0.00    +0.000 C 
ATOM     12  C   UNL     1       0.020  10.641  19.530  0.00  0.00    +0.000 C 
ENDROOT
BRANCH   1  14
ATOM     13  C   UNL     1      -3.025  10.242  14.659  0.00  0.00    +0.000 C 
ATOM     14  O   UNL     1      -2.957   9.538  15.894  0.00  0.00    +0.000 OA
ENDBRANCH   1  14
BRANCH   6  15
ATOM     15  O   UNL     1      -5.068  10.982  17.142  0.00  0.00    +0.000 OA
BRANCH  15  16
ATOM     16  C   UNL     1      -6.061  11.850  17.677  0.00  0.00    +0.000 C 
BRANCH  16  17
ATOM     17  C   UNL     1      -6.701  11.101  18.822  0.00  0.00    +0.000 A 
ATOM     18  C   UNL     1      -7.225  11.806  19.918  0.00  0.00    +0.000 A 
ATOM     19  C   UNL     1      -7.793  11.126  20.996  0.00  0.00    +0.000 A 
ATOM     20  C   UNL     1      -7.847   9.736  20.988  0.00  0.00    +0.000 A 
ATOM     21  C   UNL     1      -7.332   9.023  19.905  0.00  0.00    +0.000 A 
ATOM     22  C   UNL     1      -6.760   9.702  18.826  0.00  0.00    +0.000 A 
ENDBRANCH  16  17
ENDBRANCH  15  16
ENDBRANCH   6  15
BRANCH   7  23
ATOM     23  C   UNL     1      -1.380  13.838  20.583  0.00  0.00    +0.000 C 
BRANCH  23  24
ATOM     24  C   UNL     1       0.109  14.065  20.719  0.00  0.00    +0.000 A 
ATOM     25  C   UNL     1       0.682  14.420  21.928  0.00  0.00    +0.000 A 
ATOM     26  N   UNL     1       1.799  15.131  21.606  0.00  0.00    +0.000 N 
ATOM     27  C   UNL     1       2.302  14.653  20.426  0.00  0.00    +0.000 A 
ATOM     28  C   UNL     1       3.590  14.777  19.892  0.00  0.00    +0.000 A 
ATOM     29  C   UNL     1       3.804  14.210  18.639  0.00  0.00    +0.000 A 
ATOM     30  C   UNL     1       2.743  13.659  17.923  0.00  0.00    +0.000 A 
ATOM     31  C   UNL     1       1.438  13.608  18.456  0.00  0.00    +0.000 A 
ATOM     32  C   UNL     1       1.218  14.053  19.781  0.00  0.00    +0.000 A 
ATOM     33  H   UNL     1       2.217  15.856  22.168  0.00  0.00    +0.000 HD
ENDBRANCH  23  24
ENDBRANCH   7  23
TORSDOF 6
ENDMDL
MODEL 7
REMARK VINA RESULT:      -7.3      2.516      4.924
REMARK  Name = 
REMARK  7 active torsions:
REMARK  status: ('A' for Active; 'I' for Inactive)
REMARK    1  A    between atoms: C_1  and  O_2
REMARK    2  A    between atoms: O_2  and  C_3
REMARK    3  A    between atoms: C_8  and  O_9
REMARK    4  A    between atoms: O_9  and  C_10
REMARK    5  A    between atoms: C_10  and  C_11
REMARK    6  A    between atoms: C_17  and  C_18
REMARK    7  A    between atoms: C_18  and  C_19
REMARK                            x       y       z     vdW  Elec       q    Type
REMARK                         _______ _______ _______ _____ _____    ______ ____
ROOT
ATOM      1  C   UNL     1       2.080   7.096  20.153  0.00  0.00    +0.000 A 
ATOM      2  C   UNL     1       1.433   7.717  21.227  0.00  0.00    +0.000 A 
ATOM      3  C   UNL     1       0.945   9.013  21.103  0.00  0.00    +0.000 A 
ATOM      4  C   UNL     1       1.149   9.733  19.911  0.00  0.00    +0.000 A 
ATOM      5  C   UNL     1       1.800   9.112  18.838  0.00  0.00    +0.000 A 
ATOM      6  C   UNL     1       2.232   7.784  18.937  0.00  0.00    +0.000 A 
ATOM      7  C   UNL     1       0.562  11.128  19.735  0.00  0.00    +0.000 C 
ATOM      8  N   UNL     1      -0.722  11.250  20.454  0.00  0.00    +0.000 N 
ATOM      9  C   UNL     1      -1.733  12.046  19.947  0.00  0.00    +0.000 C 
ATOM     10  O   UNL     1      -1.633  12.787  18.981  0.00  0.00    +0.000 OA
ATOM     11  C   UNL     1      -1.106  10.275  21.485  0.00  0.00    +0.000 C 
ATOM     12  C   UNL     1       0.084   9.617  22.173  0.00  0.00    +0.000 C 
ENDROOT
BRANCH   1  14
ATOM     13  C   UNL     1       1.342   4.889  20.565  0.00  0.00    +0.000 C 
ATOM     14  O   UNL     1       2.430   5.791  20.394  0.00  0.00    +0.000 OA
ENDBRANCH   1  14
BRANCH   6  15
ATOM     15  O   UNL     1       2.652   7.066  17.860  0.00  0.00    +0.000 OA
BRANCH  15  16
ATOM     16  C   UNL     1       3.906   7.412  17.282  0.00  0.00    +0.000 C 
BRANCH  16  17
ATOM     17  C   UNL     1       4.507   6.121  16.777  0.00  0.00    +0.000 A 
ATOM     18  C   UNL     1       5.382   6.135  15.680  0.00  0.00    +0.000 A 
ATOM     19  C   UNL     1       5.923   4.947  15.185  0.00  0.00    +0.000 A 
ATOM     20  C   UNL     1       5.596   3.735  15.785  0.00  0.00    +0.000 A 
ATOM     21  C   UNL     1       4.727   3.707  16.876  0.00  0.00    +0.000 A 
ATOM     22  C   UNL     1       4.184   4.895  17.371  0.00  0.00    +0.000 A 
ENDBRANCH  16  17
ENDBRANCH  15  16
ENDBRANCH   6  15
BRANCH   7  23
ATOM     23  C   UNL     1       1.516  12.276  20.132  0.00  0.00    +0.000 C 
BRANCH  23  24
ATOM     24  C   UNL     1       2.087  13.191  19.071  0.00  0.00    +0.000 A 
ATOM     25  C   UNL     1       2.955  12.723  18.099  0.00  0.00    +0.000 A 
ATOM     26  N   UNL     1       3.729  13.790  17.759  0.00  0.00    +0.000 N 
ATOM     27  C   UNL     1       2.989  14.934  17.893  0.00  0.00    +0.000 A 
ATOM     28  C   UNL     1       3.190  16.197  17.325  0.00  0.00    +0.000 A 
ATOM     29  C   UNL     1       2.281  17.192  17.674  0.00  0.00    +0.000 A 
ATOM     30  C   UNL     1       1.302  16.948  18.635  0.00  0.00    +0.000 A 
ATOM     31  C   UNL     1       1.164  15.683  19.246  0.00  0.00    +0.000 A 
ATOM     32  C   UNL     1       1.984  14.616  18.812  0.00  0.00    +0.000 A 
ATOM     33  H   UNL     1       4.677  13.745  17.416  0.00  0.00    +0.000 HD
ENDBRANCH  23  24
ENDBRANCH   7  23
TORSDOF 6
ENDMDL
MODEL 8
REMARK VINA RESULT:      -7.3      4.247      7.820
REMARK  Name = 
REMARK  7 active torsions:
REMARK  status: ('A' for Active; 'I' for Inactive)
REMARK    1  A    between atoms: C_1  and  O_2
REMARK    2  A    between atoms: O_2  and  C_3
REMARK    3  A    between atoms: C_8  and  O_9
REMARK    4  A    between atoms: O_9  and  C_10
REMARK    5  A    between atoms: C_10  and  C_11
REMARK    6  A    between atoms: C_17  and  C_18
REMARK    7  A    between atoms: C_18  and  C_19
REMARK                            x       y       z     vdW  Elec       q    Type
REMARK                         _______ _______ _______ _____ _____    ______ ____
ROOT
ATOM      1  C   UNL     1      -2.833  10.189  16.775  0.00  0.00    +0.000 A 
ATOM      2  C   UNL     1      -1.524   9.850  17.139  0.00  0.00    +0.000 A 
ATOM      3  C   UNL     1      -0.953  10.380  18.291  0.00  0.00    +0.000 A 
ATOM      4  C   UNL     1      -1.669  11.305  19.073  0.00  0.00    +0.000 A 
ATOM      5  C   UNL     1      -2.977  11.646  18.706  0.00  0.00    +0.000 A 
ATOM      6  C   UNL     1      -3.578  11.063  17.584  0.00  0.00    +0.000 A 
ATOM      7  C   UNL     1      -1.084  11.841  20.373  0.00  0.00    +0.000 C 
ATOM      8  N   UNL     1      -0.248  10.818  21.033  0.00  0.00    +0.000 N 
ATOM      9  C   UNL     1      -0.188  10.748  22.412  0.00  0.00    +0.000 C 
ATOM     10  O   UNL     1      -0.684  11.555  23.183  0.00  0.00    +0.000 OA
ATOM     11  C   UNL     1       0.227   9.640  20.293  0.00  0.00    +0.000 C 
ATOM     12  C   UNL     1       0.369   9.879  18.794  0.00  0.00    +0.000 C 
ENDROOT
BRANCH   1  14
ATOM     13  C   UNL     1      -3.230  10.260  14.447  0.00  0.00    +0.000 C 
ATOM     14  O   UNL     1      -3.290   9.525  15.665  0.00  0.00    +0.000 OA
ENDBRANCH   1  14
BRANCH   6  15
ATOM     15  O   UNL     1      -4.909  11.177  17.322  0.00  0.00    +0.000 OA
BRANCH  15  16
ATOM     16  C   UNL     1      -5.547  12.405  17.658  0.00  0.00    +0.000 C 
BRANCH  16  17
ATOM     17  C   UNL     1      -6.250  12.167  18.973  0.00  0.00    +0.000 A 
ATOM     18  C   UNL     1      -6.155  13.117  20.003  0.00  0.00    +0.000 A 
ATOM     19  C   UNL     1      -6.775  12.899  21.233  0.00  0.00    +0.000 A 
ATOM     20  C   UNL     1      -7.500  11.729  21.446  0.00  0.00    +0.000 A 
ATOM     21  C   UNL     1      -7.602  10.778  20.432  0.00  0.00    +0.000 A 
ATOM     22  C   UNL     1      -6.980  10.994  19.200  0.00  0.00    +0.000 A 
ENDBRANCH  16  17
ENDBRANCH  15  16
ENDBRANCH   6  15
BRANCH   7  23
ATOM     23  C   UNL     1      -0.301  13.164  20.224  0.00  0.00    +0.000 C 
BRANCH  23  24
ATOM     24  C   UNL     1      -1.008  14.490  20.399  0.00  0.00    +0.000 A 
ATOM     25  C   UNL     1      -1.869  14.719  21.460  0.00  0.00    +0.000 A 
ATOM     26  N   UNL     1      -2.760  15.646  21.010  0.00  0.00    +0.000 N 
ATOM     27  C   UNL     1      -2.133  16.463  20.108  0.00  0.00    +0.000 A 
ATOM     28  C   UNL     1      -2.484  17.745  19.673  0.00  0.00    +0.000 A 
ATOM     29  C   UNL     1      -1.665  18.325  18.710  0.00  0.00    +0.000 A 
ATOM     30  C   UNL     1      -0.624  17.597  18.137  0.00  0.00    +0.000 A 
ATOM     31  C   UNL     1      -0.332  16.278  18.544  0.00  0.00    +0.000 A 
ATOM     32  C   UNL     1      -1.061  15.712  19.617  0.00  0.00    +0.000 A 
ATOM     33  H   UNL     1      -3.713  15.747  21.325  0.00  0.00    +0.000 HD
ENDBRANCH  23  24
ENDBRANCH   7  23
TORSDOF 6
ENDMDL
MODEL 9
REMARK VINA RESULT:      -7.2      4.367      8.250
REMARK  Name = 
REMARK  7 active torsions:
REMARK  status: ('A' for Active; 'I' for Inactive)
REMARK    1  A    between atoms: C_1  and  O_2
REMARK    2  A    between atoms: O_2  and  C_3
REMARK    3  A    between atoms: C_8  and  O_9
REMARK    4  A    between atoms: O_9  and  C_10
REMARK    5  A    between atoms: C_10  and  C_11
REMARK    6  A    between atoms: C_17  and  C_18
REMARK    7  A    between atoms: C_18  and  C_19
REMARK                            x       y       z     vdW  Elec       q    Type
REMARK                         _______ _______ _______ _____ _____    ______ ____
ROOT
ATOM      1  C   UNL     1      -2.701  10.208  16.818  0.00  0.00    +0.000 A 
ATOM      2  C   UNL     1      -1.455   9.842  17.343  0.00  0.00    +0.000 A 
ATOM      3  C   UNL     1      -0.982  10.428  18.511  0.00  0.00    +0.000 A 
ATOM      4  C   UNL     1      -1.729  11.437  19.147  0.00  0.00    +0.000 A 
ATOM      5  C   UNL     1      -2.972  11.805  18.620  0.00  0.00    +0.000 A 
ATOM      6  C   UNL     1      -3.481  11.169  17.481  0.00  0.00    +0.000 A 
ATOM      7  C   UNL     1      -1.256  12.040  20.464  0.00  0.00    +0.000 C 
ATOM      8  N   UNL     1      -0.546  11.033  21.277  0.00  0.00    +0.000 N 
ATOM      9  C   UNL     1      -0.634  11.060  22.656  0.00  0.00    +0.000 C 
ATOM     10  O   UNL     1      -1.167  11.941  23.314  0.00  0.00    +0.000 OA
ATOM     11  C   UNL     1      -0.056   9.785  20.673  0.00  0.00    +0.000 C 
ATOM     12  C   UNL     1       0.253   9.909  19.186  0.00  0.00    +0.000 C 
ENDROOT
BRANCH   1  14
ATOM     13  C   UNL     1      -2.972  10.176  14.471  0.00  0.00    +0.000 C 
ATOM     14  O   UNL     1      -3.071   9.486  15.712  0.00  0.00    +0.000 OA
ENDBRANCH   1  14
BRANCH   6  15
ATOM     15  O   UNL     1      -4.771  11.321  17.071  0.00  0.00    +0.000 OA
BRANCH  15  16
ATOM     16  C   UNL     1      -5.802  11.026  18.006  0.00  0.00    +0.000 C 
BRANCH  16  17
ATOM     17  C   UNL     1      -6.557  12.316  18.219  0.00  0.00    +0.000 A 
ATOM     18  C   UNL     1      -6.835  13.157  17.130  0.00  0.00    +0.000 A 
ATOM     19  C   UNL     1      -7.507  14.365  17.315  0.00  0.00    +0.000 A 
ATOM     20  C   UNL     1      -7.912  14.744  18.591  0.00  0.00    +0.000 A 
ATOM     21  C   UNL     1      -7.643  13.919  19.683  0.00  0.00    +0.000 A 
ATOM     22  C   UNL     1      -6.968  12.709  19.499  0.00  0.00    +0.000 A 
ENDBRANCH  16  17
ENDBRANCH  15  16
ENDBRANCH   6  15
BRANCH   7  23
ATOM     23  C   UNL     1      -0.398  13.315  20.311  0.00  0.00    +0.000 C 
BRANCH  23  24
ATOM     24  C   UNL     1      -1.057  14.675  20.271  0.00  0.00    +0.000 A 
ATOM     25  C   UNL     1      -2.080  15.013  21.141  0.00  0.00    +0.000 A 
ATOM     26  N   UNL     1      -2.829  15.938  20.480  0.00  0.00    +0.000 N 
ATOM     27  C   UNL     1      -2.011  16.664  19.657  0.00  0.00    +0.000 A 
ATOM     28  C   UNL     1      -2.214  17.925  19.084  0.00  0.00    +0.000 A 
ATOM     29  C   UNL     1      -1.208  18.402  18.250  0.00  0.00    +0.000 A 
ATOM     30  C   UNL     1      -0.120  17.596  17.923  0.00  0.00    +0.000 A 
ATOM     31  C   UNL     1       0.028  16.299  18.459  0.00  0.00    +0.000 A 
ATOM     32  C   UNL     1      -0.908  15.839  19.416  0.00  0.00    +0.000 A 
ATOM     33  H   UNL     1      -3.817  16.098  20.610  0.00  0.00    +0.000 HD
ENDBRANCH  23  24
ENDBRANCH   7  23
TORSDOF 6
ENDMDL
