MODEL 1
REMARK VINA RESULT:      -7.5      0.000      0.000
REMARK  Name = 
REMARK  11 active torsions:
REMARK  status: ('A' for Active; 'I' for Inactive)
REMARK    1  A    between atoms: C_1  and  O_2
REMARK    2  A    between atoms: O_2  and  C_3
REMARK    3  A    between atoms: C_3  and  C_5
REMARK    4  A    between atoms: C_5  and  O_6
REMARK    5  A    between atoms: C_8  and  O_9
REMARK    6  A    between atoms: C_10  and  O_11
REMARK    7  A    between atoms: C_12  and  O_13
REMARK    8  A    between atoms: O_13  and  C_14
REMARK    9  A    between atoms: C_14  and  C_16
REMARK   10  A    between atoms: C_17  and  C_18
REMARK   11  A    between atoms: C_21  and  O_22
REMARK                            x       y       z     vdW  Elec       q    Type
REMARK                         _______ _______ _______ _____ _____    ______ ____
ROOT
ATOM      1  C   UNL     1       5.641   5.060  17.358  0.00  0.00    +0.000 C 
ATOM      2  C   UNL     1       4.933   4.165  16.324  0.00  0.00    +0.000 C 
ATOM      3  C   UNL     1       3.774   3.367  16.937  0.00  0.00    +0.000 C 
ATOM      4  C   UNL     1       2.785   4.272  17.692  0.00  0.00    +0.000 C 
ATOM      5  C   UNL     1       3.508   5.155  18.726  0.00  0.00    +0.000 C 
ATOM      6  C   UNL     1       4.625   5.966  18.075  0.00  0.00    +0.000 C 
ENDROOT
BRANCH   1   7
ATOM      7  C   UNL     1       6.647   5.989  16.624  0.00  0.00    +0.000 C 
ATOM      8  O   UNL     1       7.399   5.645  15.740  0.00  0.00    +0.000 OA
BRANCH   7  10
ATOM      9  C   UNL     1       7.684   7.874  17.589  0.00  0.00    +0.000 C 
ATOM     10  O   UNL     1       6.489   7.290  17.049  0.00  0.00    +0.000 OA
ENDBRANCH   7  10
ENDBRANCH   1   7
BRANCH   1  11
ATOM     11  O   UNL     1       6.208   4.161  18.318  0.00  0.00    +0.000 OA
ATOM     12  H   UNL     1       7.000   4.574  18.715  0.00  0.00    +0.000 HD
ENDBRANCH   1  11
BRANCH   3  13
ATOM     13  O   UNL     1       4.234   2.349  17.840  0.00  0.00    +0.000 OA
ATOM     14  H   UNL     1       5.193   2.483  17.991  0.00  0.00    +0.000 HD
ENDBRANCH   3  13
BRANCH   4  15
ATOM     15  O   UNL     1       1.820   3.453  18.357  0.00  0.00    +0.000 OA
ATOM     16  H   UNL     1       1.295   3.026  17.649  0.00  0.00    +0.000 HD
ENDBRANCH   4  15
BRANCH   5  17
ATOM     17  O   UNL     1       2.560   6.084  19.299  0.00  0.00    +0.000 OA
BRANCH  17  18
ATOM     18  C   UNL     1       2.040   5.726  20.508  0.00  0.00    +0.000 C 
ATOM     19  O   UNL     1       2.281   4.710  21.133  0.00  0.00    +0.000 OA
BRANCH  18  20
ATOM     20  C   UNL     1       1.142   6.807  20.967  0.00  0.00    +0.000 C 
ATOM     21  C   UNL     1       1.575   8.078  20.992  0.00  0.00    +0.000 C 
BRANCH  21  22
ATOM     22  C   UNL     1       0.769   9.214  21.473  0.00  0.00    +0.000 A 
ATOM     23  C   UNL     1       0.795  10.424  20.759  0.00  0.00    +0.000 A 
ATOM     24  C   UNL     1       0.075  11.537  21.210  0.00  0.00    +0.000 A 
ATOM     25  C   UNL     1      -0.690  11.434  22.367  0.00  0.00    +0.000 A 
ATOM     26  C   UNL     1      -0.766  10.234  23.060  0.00  0.00    +0.000 A 
ATOM     27  C   UNL     1      -0.046   9.125  22.610  0.00  0.00    +0.000 A 
BRANCH  25  28
ATOM     28  O   UNL     1      -1.384  12.497  22.861  0.00  0.00    +0.000 OA
ATOM     29  H   UNL     1      -2.333  12.300  22.808  0.00  0.00    +0.000 HD
ENDBRANCH  25  28
ENDBRANCH  21  22
ENDBRANCH  18  20
ENDBRANCH  17  18
ENDBRANCH   5  17
TORSDOF 10
ENDMDL
MODEL 2
REMARK VINA RESULT:      -7.3      0.834      1.260
REMARK  Name = 
REMARK  11 active torsions:
REMARK  status: ('A' for Active; 'I' for Inactive)
REMARK    1  A    between atoms: C_1  and  O_2
REMARK    2  A    between atoms: O_2  and  C_3
REMARK    3  A    between atoms: C_3  and  C_5
REMARK    4  A    between atoms: C_5  and  O_6
REMARK    5  A    between atoms: C_8  and  O_9
REMARK    6  A    between atoms: C_10  and  O_11
REMARK    7  A    between atoms: C_12  and  O_13
REMARK    8  A    between atoms: O_13  and  C_14
REMARK    9  A    between atoms: C_14  and  C_16
REMARK   10  A    between atoms: C_17  and  C_18
REMARK   11  A    between atoms: C_21  and  O_22
REMARK                            x       y       z     vdW  Elec       q    Type
REMARK                         _______ _______ _______ _____ _____    ______ ____
ROOT
ATOM      1  C   UNL     1       5.885   4.818  17.355  0.00  0.00    +0.000 C 
ATOM      2  C   UNL     1       5.157   3.770  16.492  0.00  0.00    +0.000 C 
ATOM      3  C   UNL     1       3.906   3.210  17.184  0.00  0.00    +0.000 C 
ATOM      4  C   UNL     1       2.960   4.326  17.659  0.00  0.00    +0.000 C 
ATOM      5  C   UNL     1       3.701   5.360  18.526  0.00  0.00    +0.000 C 
ATOM      6  C   UNL     1       4.914   5.928  17.792  0.00  0.00    +0.000 C 
ENDROOT
BRANCH   1   7
ATOM      7  C   UNL     1       7.000   5.490  16.507  0.00  0.00    +0.000 C 
ATOM      8  O   UNL     1       7.473   6.585  16.716  0.00  0.00    +0.000 OA
BRANCH   7  10
ATOM      9  C   UNL     1       7.157   5.038  14.198  0.00  0.00    +0.000 C 
ATOM     10  O   UNL     1       7.450   4.620  15.539  0.00  0.00    +0.000 OA
ENDBRANCH   7  10
ENDBRANCH   1   7
BRANCH   1  11
ATOM     11  O   UNL     1       6.327   4.114  18.521  0.00  0.00    +0.000 OA
ATOM     12  H   UNL     1       5.834   3.274  18.593  0.00  0.00    +0.000 HD
ENDBRANCH   1  11
BRANCH   3  13
ATOM     13  O   UNL     1       4.234   2.385  18.312  0.00  0.00    +0.000 OA
ATOM     14  H   UNL     1       4.179   2.935  19.121  0.00  0.00    +0.000 HD
ENDBRANCH   3  13
BRANCH   4  15
ATOM     15  O   UNL     1       1.899   3.742  18.419  0.00  0.00    +0.000 OA
ATOM     16  H   UNL     1       2.151   3.849  19.359  0.00  0.00    +0.000 HD
ENDBRANCH   4  15
BRANCH   5  17
ATOM     17  O   UNL     1       2.808   6.457  18.821  0.00  0.00    +0.000 OA
BRANCH  17  18
ATOM     18  C   UNL     1       2.243   6.439  20.063  0.00  0.00    +0.000 C 
ATOM     19  O   UNL     1       2.141   5.479  20.803  0.00  0.00    +0.000 OA
BRANCH  18  20
ATOM     20  C   UNL     1       1.794   7.810  20.390  0.00  0.00    +0.000 C 
ATOM     21  C   UNL     1       0.828   8.003  21.303  0.00  0.00    +0.000 C 
BRANCH  21  22
ATOM     22  C   UNL     1       0.287   9.325  21.663  0.00  0.00    +0.000 A 
ATOM     23  C   UNL     1       0.594  10.433  20.856  0.00  0.00    +0.000 A 
ATOM     24  C   UNL     1       0.133  11.712  21.190  0.00  0.00    +0.000 A 
ATOM     25  C   UNL     1      -0.654  11.881  22.323  0.00  0.00    +0.000 A 
ATOM     26  C   UNL     1      -1.007  10.791  23.108  0.00  0.00    +0.000 A 
ATOM     27  C   UNL     1      -0.545   9.517  22.774  0.00  0.00    +0.000 A 
BRANCH  25  28
ATOM     28  O   UNL     1      -1.103  13.109  22.706  0.00  0.00    +0.000 OA
ATOM     29  H   UNL     1      -2.054  13.165  22.519  0.00  0.00    +0.000 HD
ENDBRANCH  25  28
ENDBRANCH  21  22
ENDBRANCH  18  20
ENDBRANCH  17  18
ENDBRANCH   5  17
TORSDOF 10
ENDMDL
MODEL 3
REMARK VINA RESULT:      -7.3      0.468      1.072
REMARK  Name = 
REMARK  11 active torsions:
REMARK  status: ('A' for Active; 'I' for Inactive)
REMARK    1  A    between atoms: C_1  and  O_2
REMARK    2  A    between atoms: O_2  and  C_3
REMARK    3  A    between atoms: C_3  and  C_5
REMARK    4  A    between atoms: C_5  and  O_6
REMARK    5  A    between atoms: C_8  and  O_9
REMARK    6  A    between atoms: C_10  and  O_11
REMARK    7  A    between atoms: C_12  and  O_13
REMARK    8  A    between atoms: O_13  and  C_14
REMARK    9  A    between atoms: C_14  and  C_16
REMARK   10  A    between atoms: C_17  and  C_18
REMARK   11  A    between atoms: C_21  and  O_22
REMARK                            x       y       z     vdW  Elec       q    Type
REMARK                         _______ _______ _______ _____ _____    ______ ____
ROOT
ATOM      1  C   UNL     1       5.929   5.067  17.623  0.00  0.00    +0.000 C 
ATOM      2  C   UNL     1       5.271   4.374  16.414  0.00  0.00    +0.000 C 
ATOM      3  C   UNL     1       4.003   3.600  16.802  0.00  0.00    +0.000 C 
ATOM      4  C   UNL     1       3.006   4.477  17.578  0.00  0.00    +0.000 C 
ATOM      5  C   UNL     1       3.676   5.156  18.787  0.00  0.00    +0.000 C 
ATOM      6  C   UNL     1       4.908   5.951  18.360  0.00  0.00    +0.000 C 
ENDROOT
BRANCH   1   7
ATOM      7  C   UNL     1       7.065   5.999  17.121  0.00  0.00    +0.000 C 
ATOM      8  O   UNL     1       7.448   6.077  15.975  0.00  0.00    +0.000 OA
BRANCH   7  10
ATOM      9  C   UNL     1       7.856   8.133  17.735  0.00  0.00    +0.000 C 
ATOM     10  O   UNL     1       7.509   6.803  18.147  0.00  0.00    +0.000 OA
ENDBRANCH   7  10
ENDBRANCH   1   7
BRANCH   1  11
ATOM     11  O   UNL     1       6.331   4.008  18.500  0.00  0.00    +0.000 OA
ATOM     12  H   UNL     1       5.652   3.306  18.486  0.00  0.00    +0.000 HD
ENDBRANCH   1  11
BRANCH   3  13
ATOM     13  O   UNL     1       4.298   2.440  17.595  0.00  0.00    +0.000 OA
ATOM     14  H   UNL     1       4.799   2.728  18.386  0.00  0.00    +0.000 HD
ENDBRANCH   3  13
BRANCH   4  15
ATOM     15  O   UNL     1       1.924   3.660  18.031  0.00  0.00    +0.000 OA
ATOM     16  H   UNL     1       1.252   4.276  18.388  0.00  0.00    +0.000 HD
ENDBRANCH   4  15
BRANCH   5  17
ATOM     17  O   UNL     1       2.740   6.077  19.391  0.00  0.00    +0.000 OA
BRANCH  17  18
ATOM     18  C   UNL     1       2.059   5.601  20.472  0.00  0.00    +0.000 C 
ATOM     19  O   UNL     1       2.006   4.445  20.849  0.00  0.00    +0.000 OA
BRANCH  18  20
ATOM     20  C   UNL     1       1.409   6.742  21.153  0.00  0.00    +0.000 C 
ATOM     21  C   UNL     1       1.292   7.923  20.525  0.00  0.00    +0.000 C 
BRANCH  21  22
ATOM     22  C   UNL     1       0.699   9.125  21.137  0.00  0.00    +0.000 A 
ATOM     23  C   UNL     1      -0.030   8.998  22.331  0.00  0.00    +0.000 A 
ATOM     24  C   UNL     1      -0.643  10.111  22.918  0.00  0.00    +0.000 A 
ATOM     25  C   UNL     1      -0.509  11.359  22.321  0.00  0.00    +0.000 A 
ATOM     26  C   UNL     1       0.246  11.514  21.167  0.00  0.00    +0.000 A 
ATOM     27  C   UNL     1       0.855  10.402  20.581  0.00  0.00    +0.000 A 
BRANCH  25  28
ATOM     28  O   UNL     1      -1.111  12.467  22.838  0.00  0.00    +0.000 OA
ATOM     29  H   UNL     1      -0.858  12.551  23.772  0.00  0.00    +0.000 HD
ENDBRANCH  25  28
ENDBRANCH  21  22
ENDBRANCH  18  20
ENDBRANCH  17  18
ENDBRANCH   5  17
TORSDOF 10
ENDMDL
MODEL 4
REMARK VINA RESULT:      -7.3      3.925      7.192
REMARK  Name = 
REMARK  11 active torsions:
REMARK  status: ('A' for Active; 'I' for Inactive)
REMARK    1  A    between atoms: C_1  and  O_2
REMARK    2  A    between atoms: O_2  and  C_3
REMARK    3  A    between atoms: C_3  and  C_5
REMARK    4  A    between atoms: C_5  and  O_6
REMARK    5  A    between atoms: C_8  and  O_9
REMARK    6  A    between atoms: C_10  and  O_11
REMARK    7  A    between atoms: C_12  and  O_13
REMARK    8  A    between atoms: O_13  and  C_14
REMARK    9  A    between atoms: C_14  and  C_16
REMARK   10  A    between atoms: C_17  and  C_18
REMARK   11  A    between atoms: C_21  and  O_22
REMARK                            x       y       z     vdW  Elec       q    Type
REMARK                         _______ _______ _______ _____ _____    ______ ____
ROOT
ATOM      1  C   UNL     1       3.587   4.860  18.919  0.00  0.00    +0.000 C 
ATOM      2  C   UNL     1       3.864   3.461  18.337  0.00  0.00    +0.000 C 
ATOM      3  C   UNL     1       4.859   3.500  17.169  0.00  0.00    +0.000 C 
ATOM      4  C   UNL     1       6.156   4.238  17.540  0.00  0.00    +0.000 C 
ATOM      5  C   UNL     1       5.863   5.637  18.112  0.00  0.00    +0.000 C 
ATOM      6  C   UNL     1       4.904   5.558  19.298  0.00  0.00    +0.000 C 
ENDROOT
BRANCH   1   7
ATOM      7  C   UNL     1       2.752   4.714  20.221  0.00  0.00    +0.000 C 
ATOM      8  O   UNL     1       2.032   5.567  20.688  0.00  0.00    +0.000 OA
BRANCH   7  10
ATOM      9  C   UNL     1       1.797   3.053  21.595  0.00  0.00    +0.000 C 
ATOM     10  O   UNL     1       2.866   3.434  20.717  0.00  0.00    +0.000 OA
ENDBRANCH   7  10
ENDBRANCH   1   7
BRANCH   1  11
ATOM     11  O   UNL     1       2.967   5.600  17.860  0.00  0.00    +0.000 OA
ATOM     12  H   UNL     1       2.818   6.518  18.156  0.00  0.00    +0.000 HD
ENDBRANCH   1  11
BRANCH   3  13
ATOM     13  O   UNL     1       4.302   4.124  16.002  0.00  0.00    +0.000 OA
ATOM     14  H   UNL     1       5.010   4.206  15.329  0.00  0.00    +0.000 HD
ENDBRANCH   3  13
BRANCH   4  15
ATOM     15  O   UNL     1       6.969   4.365  16.371  0.00  0.00    +0.000 OA
ATOM     16  H   UNL     1       7.840   4.687  16.682  0.00  0.00    +0.000 HD
ENDBRANCH   4  15
BRANCH   5  17
ATOM     17  O   UNL     1       7.097   6.226  18.579  0.00  0.00    +0.000 OA
BRANCH  17  18
ATOM     18  C   UNL     1       7.697   7.097  17.717  0.00  0.00    +0.000 C 
ATOM     19  O   UNL     1       7.726   7.018  16.503  0.00  0.00    +0.000 OA
BRANCH  18  20
ATOM     20  C   UNL     1       8.292   8.198  18.506  0.00  0.00    +0.000 C 
ATOM     21  C   UNL     1       8.436   9.417  17.960  0.00  0.00    +0.000 C 
BRANCH  21  22
ATOM     22  C   UNL     1       9.054  10.561  18.652  0.00  0.00    +0.000 A 
ATOM     23  C   UNL     1       9.193  11.781  17.969  0.00  0.00    +0.000 A 
ATOM     24  C   UNL     1       9.813  12.877  18.580  0.00  0.00    +0.000 A 
ATOM     25  C   UNL     1      10.280  12.760  19.884  0.00  0.00    +0.000 A 
ATOM     26  C   UNL     1      10.110  11.578  20.592  0.00  0.00    +0.000 A 
ATOM     27  C   UNL     1       9.493  10.485  19.981  0.00  0.00    +0.000 A 
BRANCH  25  28
ATOM     28  O   UNL     1      10.916  13.788  20.511  0.00  0.00    +0.000 OA
ATOM     29  H   UNL     1      10.544  14.626  20.191  0.00  0.00    +0.000 HD
ENDBRANCH  25  28
ENDBRANCH  21  22
ENDBRANCH  18  20
ENDBRANCH  17  18
ENDBRANCH   5  17
TORSDOF 10
ENDMDL
MODEL 5
REMARK VINA RESULT:      -7.3      2.221      3.792
REMARK  Name = 
REMARK  11 active torsions:
REMARK  status: ('A' for Active; 'I' for Inactive)
REMARK    1  A    between atoms: C_1  and  O_2
REMARK    2  A    between atoms: O_2  and  C_3
REMARK    3  A    between atoms: C_3  and  C_5
REMARK    4  A    between atoms: C_5  and  O_6
REMARK    5  A    between atoms: C_8  and  O_9
REMARK    6  A    between atoms: C_10  and  O_11
REMARK    7  A    between atoms: C_12  and  O_13
REMARK    8  A    between atoms: O_13  and  C_14
REMARK    9  A    between atoms: C_14  and  C_16
REMARK   10  A    between atoms: C_17  and  C_18
REMARK   11  A    between atoms: C_21  and  O_22
REMARK                            x       y       z     vdW  Elec       q    Type
REMARK                         _______ _______ _______ _____ _____    ______ ____
ROOT
ATOM      1  C   UNL     1       6.344   5.154  15.507  0.00  0.00    +0.000 C 
ATOM      2  C   UNL     1       7.548   4.894  16.432  0.00  0.00    +0.000 C 
ATOM      3  C   UNL     1       7.186   5.033  17.918  0.00  0.00    +0.000 C 
ATOM      4  C   UNL     1       5.968   4.175  18.298  0.00  0.00    +0.000 C 
ATOM      5  C   UNL     1       4.772   4.452  17.370  0.00  0.00    +0.000 C 
ATOM      6  C   UNL     1       5.155   4.262  15.905  0.00  0.00    +0.000 C 
ENDROOT
BRANCH   1   7
ATOM      7  C   UNL     1       6.731   4.782  14.050  0.00  0.00    +0.000 C 
ATOM      8  O   UNL     1       7.603   5.315  13.401  0.00  0.00    +0.000 OA
BRANCH   7  10
ATOM      9  C   UNL     1       6.170   3.380  12.239  0.00  0.00    +0.000 C 
ATOM     10  O   UNL     1       6.010   3.685  13.632  0.00  0.00    +0.000 OA
ENDBRANCH   7  10
ENDBRANCH   1   7
BRANCH   1  11
ATOM     11  O   UNL     1       5.981   6.522  15.727  0.00  0.00    +0.000 OA
ATOM     12  H   UNL     1       6.559   6.899  16.419  0.00  0.00    +0.000 HD
ENDBRANCH   1  11
BRANCH   3  13
ATOM     13  O   UNL     1       6.911   6.395  18.283  0.00  0.00    +0.000 OA
ATOM     14  H   UNL     1       6.888   6.452  19.261  0.00  0.00    +0.000 HD
ENDBRANCH   3  13
BRANCH   4  15
ATOM     15  O   UNL     1       5.599   4.465  19.649  0.00  0.00    +0.000 OA
ATOM     16  H   UNL     1       6.151   5.228  19.921  0.00  0.00    +0.000 HD
ENDBRANCH   4  15
BRANCH   5  17
ATOM     17  O   UNL     1       3.710   3.520  17.675  0.00  0.00    +0.000 OA
BRANCH  17  18
ATOM     18  C   UNL     1       2.781   3.959  18.572  0.00  0.00    +0.000 C 
ATOM     19  O   UNL     1       2.292   3.321  19.486  0.00  0.00    +0.000 OA
BRANCH  18  20
ATOM     20  C   UNL     1       2.479   5.376  18.276  0.00  0.00    +0.000 C 
ATOM     21  C   UNL     1       2.363   6.264  19.277  0.00  0.00    +0.000 C 
BRANCH  21  22
ATOM     22  C   UNL     1       2.024   7.684  19.083  0.00  0.00    +0.000 A 
ATOM     23  C   UNL     1       1.459   8.406  20.148  0.00  0.00    +0.000 A 
ATOM     24  C   UNL     1       1.085   9.745  19.988  0.00  0.00    +0.000 A 
ATOM     25  C   UNL     1       1.293  10.372  18.764  0.00  0.00    +0.000 A 
ATOM     26  C   UNL     1       1.892   9.690  17.714  0.00  0.00    +0.000 A 
ATOM     27  C   UNL     1       2.263   8.353  17.875  0.00  0.00    +0.000 A 
BRANCH  25  28
ATOM     28  O   UNL     1       0.920  11.664  18.550  0.00  0.00    +0.000 OA
ATOM     29  H   UNL     1       0.354  11.697  17.761  0.00  0.00    +0.000 HD
ENDBRANCH  25  28
ENDBRANCH  21  22
ENDBRANCH  18  20
ENDBRANCH  17  18
ENDBRANCH   5  17
TORSDOF 10
ENDMDL
MODEL 6
REMARK VINA RESULT:      -7.2      1.837      4.145
REMARK  Name = 
REMARK  11 active torsions:
REMARK  status: ('A' for Active; 'I' for Inactive)
REMARK    1  A    between atoms: C_1  and  O_2
REMARK    2  A    between atoms: O_2  and  C_3
REMARK    3  A    between atoms: C_3  and  C_5
REMARK    4  A    between atoms: C_5  and  O_6
REMARK    5  A    between atoms: C_8  and  O_9
REMARK    6  A    between atoms: C_10  and  O_11
REMARK    7  A    between atoms: C_12  and  O_13
REMARK    8  A    between atoms: O_13  and  C_14
REMARK    9  A    between atoms: C_14  and  C_16
REMARK   10  A    between atoms: C_17  and  C_18
REMARK   11  A    between atoms: C_21  and  O_22
REMARK                            x       y       z     vdW  Elec       q    Type
REMARK                         _______ _______ _______ _____ _____    ______ ____
ROOT
ATOM      1  C   UNL     1       2.181   3.608  18.361  0.00  0.00    +0.000 C 
ATOM      2  C   UNL     1       3.665   3.200  18.425  0.00  0.00    +0.000 C 
ATOM      3  C   UNL     1       4.587   4.247  17.784  0.00  0.00    +0.000 C 
ATOM      4  C   UNL     1       4.349   5.654  18.358  0.00  0.00    +0.000 C 
ATOM      5  C   UNL     1       2.863   6.049  18.280  0.00  0.00    +0.000 C 
ATOM      6  C   UNL     1       1.979   5.009  18.964  0.00  0.00    +0.000 C 
ENDROOT
BRANCH   1   7
ATOM      7  C   UNL     1       1.344   2.616  19.215  0.00  0.00    +0.000 C 
ATOM      8  O   UNL     1       0.268   2.159  18.900  0.00  0.00    +0.000 OA
BRANCH   7  10
ATOM      9  C   UNL     1       1.426   2.638  21.571  0.00  0.00    +0.000 C 
ATOM     10  O   UNL     1       2.048   2.245  20.339  0.00  0.00    +0.000 OA
ENDBRANCH   7  10
ENDBRANCH   1   7
BRANCH   1  11
ATOM     11  O   UNL     1       1.857   3.660  16.967  0.00  0.00    +0.000 OA
ATOM     12  H   UNL     1       1.990   2.775  16.574  0.00  0.00    +0.000 HD
ENDBRANCH   1  11
BRANCH   3  13
ATOM     13  O   UNL     1       4.430   4.308  16.358  0.00  0.00    +0.000 OA
ATOM     14  H   UNL     1       4.052   5.182  16.128  0.00  0.00    +0.000 HD
ENDBRANCH   3  13
BRANCH   4  15
ATOM     15  O   UNL     1       5.130   6.595  17.618  0.00  0.00    +0.000 OA
ATOM     16  H   UNL     1       5.041   6.339  16.676  0.00  0.00    +0.000 HD
ENDBRANCH   4  15
BRANCH   5  17
ATOM     17  O   UNL     1       2.673   7.310  18.962  0.00  0.00    +0.000 OA
BRANCH  17  18
ATOM     18  C   UNL     1       2.315   8.360  18.169  0.00  0.00    +0.000 C 
ATOM     19  O   UNL     1       2.645   8.546  17.013  0.00  0.00    +0.000 OA
BRANCH  18  20
ATOM     20  C   UNL     1       1.413   9.241  18.942  0.00  0.00    +0.000 C 
ATOM     21  C   UNL     1       1.225   9.029  20.255  0.00  0.00    +0.000 C 
BRANCH  21  22
ATOM     22  C   UNL     1       0.314   9.826  21.096  0.00  0.00    +0.000 A 
ATOM     23  C   UNL     1       0.062   9.412  22.414  0.00  0.00    +0.000 A 
ATOM     24  C   UNL     1      -0.829  10.120  23.229  0.00  0.00    +0.000 A 
ATOM     25  C   UNL     1      -1.456  11.256  22.731  0.00  0.00    +0.000 A 
ATOM     26  C   UNL     1      -1.184  11.708  21.446  0.00  0.00    +0.000 A 
ATOM     27  C   UNL     1      -0.296  10.999  20.635  0.00  0.00    +0.000 A 
BRANCH  25  28
ATOM     28  O   UNL     1      -2.354  11.962  23.474  0.00  0.00    +0.000 OA
ATOM     29  H   UNL     1      -3.119  12.176  22.916  0.00  0.00    +0.000 HD
ENDBRANCH  25  28
ENDBRANCH  21  22
ENDBRANCH  18  20
ENDBRANCH  17  18
ENDBRANCH   5  17
TORSDOF 10
ENDMDL
MODEL 7
REMARK VINA RESULT:      -7.0      0.907      1.018
REMARK  Name = 
REMARK  11 active torsions:
REMARK  status: ('A' for Active; 'I' for Inactive)
REMARK    1  A    between atoms: C_1  and  O_2
REMARK    2  A    between atoms: O_2  and  C_3
REMARK    3  A    between atoms: C_3  and  C_5
REMARK    4  A    between atoms: C_5  and  O_6
REMARK    5  A    between atoms: C_8  and  O_9
REMARK    6  A    between atoms: C_10  and  O_11
REMARK    7  A    between atoms: C_12  and  O_13
REMARK    8  A    between atoms: O_13  and  C_14
REMARK    9  A    between atoms: C_14  and  C_16
REMARK   10  A    between atoms: C_17  and  C_18
REMARK   11  A    between atoms: C_21  and  O_22
REMARK                            x       y       z     vdW  Elec       q    Type
REMARK                         _______ _______ _______ _____ _____    ______ ____
ROOT
ATOM      1  C   UNL     1       5.732   4.435  18.174  0.00  0.00    +0.000 C 
ATOM      2  C   UNL     1       5.029   3.994  16.876  0.00  0.00    +0.000 C 
ATOM      3  C   UNL     1       3.539   3.690  17.092  0.00  0.00    +0.000 C 
ATOM      4  C   UNL     1       2.806   4.854  17.780  0.00  0.00    +0.000 C 
ATOM      5  C   UNL     1       3.517   5.277  19.079  0.00  0.00    +0.000 C 
ATOM      6  C   UNL     1       4.983   5.613  18.820  0.00  0.00    +0.000 C 
ENDROOT
BRANCH   1   7
ATOM      7  C   UNL     1       7.164   4.931  17.834  0.00  0.00    +0.000 C 
ATOM      8  O   UNL     1       8.191   4.424  18.228  0.00  0.00    +0.000 OA
BRANCH   7  10
ATOM      9  C   UNL     1       7.574   7.222  17.456  0.00  0.00    +0.000 C 
ATOM     10  O   UNL     1       7.105   5.970  16.932  0.00  0.00    +0.000 OA
ENDBRANCH   7  10
ENDBRANCH   1   7
BRANCH   1  11
ATOM     11  O   UNL     1       5.654   3.307  19.054  0.00  0.00    +0.000 OA
ATOM     12  H   UNL     1       4.716   3.113  19.243  0.00  0.00    +0.000 HD
ENDBRANCH   1  11
BRANCH   3  13
ATOM     13  O   UNL     1       3.336   2.503  17.874  0.00  0.00    +0.000 OA
ATOM     14  H   UNL     1       4.069   2.432  18.521  0.00  0.00    +0.000 HD
ENDBRANCH   3  13
BRANCH   4  15
ATOM     15  O   UNL     1       1.469   4.447  18.081  0.00  0.00    +0.000 OA
ATOM     16  H   UNL     1       1.064   5.193  18.569  0.00  0.00    +0.000 HD
ENDBRANCH   4  15
BRANCH   5  17
ATOM     17  O   UNL     1       2.876   6.461  19.604  0.00  0.00    +0.000 OA
BRANCH  17  18
ATOM     18  C   UNL     1       1.882   6.240  20.511  0.00  0.00    +0.000 C 
ATOM     19  O   UNL     1       1.707   5.232  21.170  0.00  0.00    +0.000 OA
BRANCH  18  20
ATOM     20  C   UNL     1       1.050   7.460  20.597  0.00  0.00    +0.000 C 
ATOM     21  C   UNL     1       1.159   8.278  21.657  0.00  0.00    +0.000 C 
BRANCH  21  22
ATOM     22  C   UNL     1       0.344   9.489  21.851  0.00  0.00    +0.000 A 
ATOM     23  C   UNL     1       0.311  10.461  20.837  0.00  0.00    +0.000 A 
ATOM     24  C   UNL     1      -0.420  11.644  21.002  0.00  0.00    +0.000 A 
ATOM     25  C   UNL     1      -1.134  11.848  22.177  0.00  0.00    +0.000 A 
ATOM     26  C   UNL     1      -1.152  10.879  23.171  0.00  0.00    +0.000 A 
ATOM     27  C   UNL     1      -0.422   9.700  23.005  0.00  0.00    +0.000 A 
BRANCH  25  28
ATOM     28  O   UNL     1      -1.836  12.995  22.398  0.00  0.00    +0.000 OA
ATOM     29  H   UNL     1      -1.216  13.692  22.665  0.00  0.00    +0.000 HD
ENDBRANCH  25  28
ENDBRANCH  21  22
ENDBRANCH  18  20
ENDBRANCH  17  18
ENDBRANCH   5  17
TORSDOF 10
ENDMDL
MODEL 8
REMARK VINA RESULT:      -6.9      2.626      4.643
REMARK  Name = 
REMARK  11 active torsions:
REMARK  status: ('A' for Active; 'I' for Inactive)
REMARK    1  A    between atoms: C_1  and  O_2
REMARK    2  A    between atoms: O_2  and  C_3
REMARK    3  A    between atoms: C_3  and  C_5
REMARK    4  A    between atoms: C_5  and  O_6
REMARK    5  A    between atoms: C_8  and  O_9
REMARK    6  A    between atoms: C_10  and  O_11
REMARK    7  A    between atoms: C_12  and  O_13
REMARK    8  A    between atoms: O_13  and  C_14
REMARK    9  A    between atoms: C_14  and  C_16
REMARK   10  A    between atoms: C_17  and  C_18
REMARK   11  A    between atoms: C_21  and  O_22
REMARK                            x       y       z     vdW  Elec       q    Type
REMARK                         _______ _______ _______ _____ _____    ______ ____
ROOT
ATOM      1  C   UNL     1       1.940   3.680  18.451  0.00  0.00    +0.000 C 
ATOM      2  C   UNL     1       3.360   3.117  18.654  0.00  0.00    +0.000 C 
ATOM      3  C   UNL     1       4.440   4.015  18.035  0.00  0.00    +0.000 C 
ATOM      4  C   UNL     1       4.322   5.472  18.513  0.00  0.00    +0.000 C 
ATOM      5  C   UNL     1       2.900   6.022  18.296  0.00  0.00    +0.000 C 
ATOM      6  C   UNL     1       1.856   5.129  18.960  0.00  0.00    +0.000 C 
ENDROOT
BRANCH   1   7
ATOM      7  C   UNL     1       0.935   2.840  19.285  0.00  0.00    +0.000 C 
ATOM      8  O   UNL     1       0.375   1.837  18.902  0.00  0.00    +0.000 OA
BRANCH   7  10
ATOM      9  C   UNL     1       1.509   2.530  21.551  0.00  0.00    +0.000 C 
ATOM     10  O   UNL     1       0.848   3.338  20.566  0.00  0.00    +0.000 OA
ENDBRANCH   7  10
ENDBRANCH   1   7
BRANCH   1  11
ATOM     11  O   UNL     1       1.728   3.681  17.034  0.00  0.00    +0.000 OA
ATOM     12  H   UNL     1       2.588   3.581  16.582  0.00  0.00    +0.000 HD
ENDBRANCH   1  11
BRANCH   3  13
ATOM     13  O   UNL     1       4.396   4.005  16.600  0.00  0.00    +0.000 OA
ATOM     14  H   UNL     1       4.920   3.240  16.282  0.00  0.00    +0.000 HD
ENDBRANCH   3  13
BRANCH   4  15
ATOM     15  O   UNL     1       5.258   6.275  17.789  0.00  0.00    +0.000 OA
ATOM     16  H   UNL     1       6.080   6.276  18.321  0.00  0.00    +0.000 HD
ENDBRANCH   4  15
BRANCH   5  17
ATOM     17  O   UNL     1       2.804   7.336  18.892  0.00  0.00    +0.000 OA
BRANCH  17  18
ATOM     18  C   UNL     1       2.534   8.356  18.029  0.00  0.00    +0.000 C 
ATOM     19  O   UNL     1       3.060   8.558  16.951  0.00  0.00    +0.000 OA
BRANCH  18  20
ATOM     20  C   UNL     1       1.449   9.179  18.606  0.00  0.00    +0.000 C 
ATOM     21  C   UNL     1       0.384   9.512  17.858  0.00  0.00    +0.000 C 
BRANCH  21  22
ATOM     22  C   UNL     1      -0.722  10.362  18.332  0.00  0.00    +0.000 A 
ATOM     23  C   UNL     1      -1.945  10.342  17.642  0.00  0.00    +0.000 A 
ATOM     24  C   UNL     1      -3.005  11.167  18.038  0.00  0.00    +0.000 A 
ATOM     25  C   UNL     1      -2.848  12.000  19.139  0.00  0.00    +0.000 A 
ATOM     26  C   UNL     1      -1.663  12.000  19.863  0.00  0.00    +0.000 A 
ATOM     27  C   UNL     1      -0.607  11.178  19.465  0.00  0.00    +0.000 A 
BRANCH  25  28
ATOM     28  O   UNL     1      -3.839  12.842  19.546  0.00  0.00    +0.000 OA
ATOM     29  H   UNL     1      -3.743  12.998  20.500  0.00  0.00    +0.000 HD
ENDBRANCH  25  28
ENDBRANCH  21  22
ENDBRANCH  18  20
ENDBRANCH  17  18
ENDBRANCH   5  17
TORSDOF 10
ENDMDL
MODEL 9
REMARK VINA RESULT:      -6.9      4.993      7.243
REMARK  Name = 
REMARK  11 active torsions:
REMARK  status: ('A' for Active; 'I' for Inactive)
REMARK    1  A    between atoms: C_1  and  O_2
REMARK    2  A    between atoms: O_2  and  C_3
REMARK    3  A    between atoms: C_3  and  C_5
REMARK    4  A    between atoms: C_5  and  O_6
REMARK    5  A    between atoms: C_8  and  O_9
REMARK    6  A    between atoms: C_10  and  O_11
REMARK    7  A    between atoms: C_12  and  O_13
REMARK    8  A    between atoms: O_13  and  C_14
REMARK    9  A    between atoms: C_14  and  C_16
REMARK   10  A    between atoms: C_17  and  C_18
REMARK   11  A    between atoms: C_21  and  O_22
REMARK                            x       y       z     vdW  Elec       q    Type
REMARK                         _______ _______ _______ _____ _____    ______ ____
ROOT
ATOM      1  C   UNL     1       6.244   4.405  15.089  0.00  0.00    +0.000 C 
ATOM      2  C   UNL     1       4.765   4.139  15.428  0.00  0.00    +0.000 C 
ATOM      3  C   UNL     1       4.440   4.434  16.899  0.00  0.00    +0.000 C 
ATOM      4  C   UNL     1       4.884   5.845  17.317  0.00  0.00    +0.000 C 
ATOM      5  C   UNL     1       6.366   6.092  16.979  0.00  0.00    +0.000 C 
ATOM      6  C   UNL     1       6.645   5.832  15.501  0.00  0.00    +0.000 C 
ENDROOT
BRANCH   1   7
ATOM      7  C   UNL     1       6.442   4.297  13.552  0.00  0.00    +0.000 C 
ATOM      8  O   UNL     1       7.408   4.697  12.943  0.00  0.00    +0.000 OA
BRANCH   7  10
ATOM      9  C   UNL     1       5.804   2.739  11.901  0.00  0.00    +0.000 C 
ATOM     10  O   UNL     1       5.405   3.587  12.989  0.00  0.00    +0.000 OA
ENDBRANCH   7  10
ENDBRANCH   1   7
BRANCH   1  11
ATOM     11  O   UNL     1       6.991   3.475  15.882  0.00  0.00    +0.000 OA
ATOM     12  H   UNL     1       6.420   3.129  16.594  0.00  0.00    +0.000 HD
ENDBRANCH   1  11
BRANCH   3  13
ATOM     13  O   UNL     1       5.049   3.486  17.789  0.00  0.00    +0.000 OA
ATOM     14  H   UNL     1       5.328   2.707  17.265  0.00  0.00    +0.000 HD
ENDBRANCH   3  13
BRANCH   4  15
ATOM     15  O   UNL     1       4.686   5.996  18.725  0.00  0.00    +0.000 OA
ATOM     16  H   UNL     1       4.948   5.142  19.127  0.00  0.00    +0.000 HD
ENDBRANCH   4  15
BRANCH   5  17
ATOM     17  O   UNL     1       6.690   7.474  17.255  0.00  0.00    +0.000 OA
BRANCH  17  18
ATOM     18  C   UNL     1       7.776   7.675  18.055  0.00  0.00    +0.000 C 
ATOM     19  O   UNL     1       8.262   6.881  18.839  0.00  0.00    +0.000 OA
BRANCH  18  20
ATOM     20  C   UNL     1       8.307   9.030  17.789  0.00  0.00    +0.000 C 
ATOM     21  C   UNL     1       8.964   9.698  18.751  0.00  0.00    +0.000 C 
BRANCH  21  22
ATOM     22  C   UNL     1       9.488  11.065  18.593  0.00  0.00    +0.000 A 
ATOM     23  C   UNL     1      10.727  11.395  19.169  0.00  0.00    +0.000 A 
ATOM     24  C   UNL     1      11.237  12.695  19.075  0.00  0.00    +0.000 A 
ATOM     25  C   UNL     1      10.517  13.664  18.386  0.00  0.00    +0.000 A 
ATOM     26  C   UNL     1       9.315  13.347  17.770  0.00  0.00    +0.000 A 
ATOM     27  C   UNL     1       8.806  12.050  17.866  0.00  0.00    +0.000 A 
BRANCH  25  28
ATOM     28  O   UNL     1      10.958  14.950  18.292  0.00  0.00    +0.000 OA
ATOM     29  H   UNL     1      10.214  15.548  18.474  0.00  0.00    +0.000 HD
ENDBRANCH  25  28
ENDBRANCH  21  22
ENDBRANCH  18  20
ENDBRANCH  17  18
ENDBRANCH   5  17
TORSDOF 10
ENDMDL
