MODEL 1
REMARK VINA RESULT:      -8.0      0.000      0.000
REMARK  Name = 
REMARK  5 active torsions:
REMARK  status: ('A' for Active; 'I' for Inactive)
REMARK    1  A    between atoms: C_6  and  C_7
REMARK    2  A    between atoms: C_7  and  C_8
REMARK    3  A    between atoms: C_8  and  C_9
REMARK    4  A    between atoms: C_11  and  C_12
REMARK    5  A    between atoms: C_18  and  C_19
REMARK                            x       y       z     vdW  Elec       q    Type
REMARK                         _______ _______ _______ _____ _____    ______ ____
ROOT
ATOM      1  C   UNL     1       1.635   9.065  18.177  0.00  0.00    +0.000 C 
ATOM      2  N   UNL     1       2.075   9.927  19.056  0.00  0.00    +0.000 NA
ATOM      3  C   UNL     1       0.927  10.878  19.259  0.00  0.00    +0.000 C 
ATOM      4  C   UNL     1      -0.010  10.653  18.018  0.00  0.00    +0.000 C 
ATOM      5  N   UNL     1       0.396   9.308  17.633  0.00  0.00    +0.000 N 
ATOM      6  H   UNL     1       0.201   9.023  16.684  0.00  0.00    +0.000 HD
ENDROOT
BRANCH   3   7
ATOM      7  C   UNL     1       0.296  10.633  20.626  0.00  0.00    +0.000 A 
ATOM      8  C   UNL     1      -0.133  11.707  21.415  0.00  0.00    +0.000 A 
ATOM      9  C   UNL     1      -0.759  11.478  22.642  0.00  0.00    +0.000 A 
ATOM     10  C   UNL     1      -0.960  10.177  23.097  0.00  0.00    +0.000 A 
ATOM     11  C   UNL     1      -0.521   9.100  22.335  0.00  0.00    +0.000 A 
ATOM     12  C   UNL     1       0.109   9.327  21.116  0.00  0.00    +0.000 A 
ENDBRANCH   3   7
BRANCH   4  13
ATOM     13  C   UNL     1      -1.499  10.811  18.240  0.00  0.00    +0.000 A 
ATOM     14  C   UNL     1      -2.372   9.804  17.790  0.00  0.00    +0.000 A 
ATOM     15  C   UNL     1      -3.757   9.969  17.867  0.00  0.00    +0.000 A 
ATOM     16  C   UNL     1      -4.292  11.130  18.420  0.00  0.00    +0.000 A 
ATOM     17  C   UNL     1      -3.443  12.117  18.913  0.00  0.00    +0.000 A 
ATOM     18  C   UNL     1      -2.058  11.957  18.829  0.00  0.00    +0.000 A 
ENDBRANCH   4  13
BRANCH   1  19
ATOM     19  C   UNL     1       2.445   7.828  17.873  0.00  0.00    +0.000 C 
BRANCH  19  20
ATOM     20  C   UNL     1       2.849   7.039  19.110  0.00  0.00    +0.000 C 
BRANCH  20  26
ATOM     21 CL   UNL     1       1.324   2.779  21.725  0.00  0.00    +0.000 Cl
ATOM     22  C   UNL     1       1.584   3.630  20.252  0.00  0.00    +0.000 A 
ATOM     23  C   UNL     1       1.272   3.021  19.038  0.00  0.00    +0.000 A 
ATOM     24  C   UNL     1       1.484   3.711  17.846  0.00  0.00    +0.000 A 
ATOM     25  C   UNL     1       2.000   5.008  17.869  0.00  0.00    +0.000 A 
ATOM     26  C   UNL     1       2.302   5.632  19.087  0.00  0.00    +0.000 A 
ATOM     27  C   UNL     1       2.102   4.926  20.282  0.00  0.00    +0.000 A 
ENDBRANCH  20  26
ENDBRANCH  19  20
ENDBRANCH   1  19
TORSDOF 5
ENDMDL
MODEL 2
REMARK VINA RESULT:      -8.0      1.002      1.522
REMARK  Name = 
REMARK  5 active torsions:
REMARK  status: ('A' for Active; 'I' for Inactive)
REMARK    1  A    between atoms: C_6  and  C_7
REMARK    2  A    between atoms: C_7  and  C_8
REMARK    3  A    between atoms: C_8  and  C_9
REMARK    4  A    between atoms: C_11  and  C_12
REMARK    5  A    between atoms: C_18  and  C_19
REMARK                            x       y       z     vdW  Elec       q    Type
REMARK                         _______ _______ _______ _____ _____    ______ ____
ROOT
ATOM      1  C   UNL     1       1.463   9.398  18.068  0.00  0.00    +0.000 C 
ATOM      2  N   UNL     1       1.869  10.203  19.015  0.00  0.00    +0.000 NA
ATOM      3  C   UNL     1       0.681  11.082  19.297  0.00  0.00    +0.000 C 
ATOM      4  C   UNL     1      -0.251  10.919  18.043  0.00  0.00    +0.000 C 
ATOM      5  N   UNL     1       0.213   9.630  17.548  0.00  0.00    +0.000 N 
ATOM      6  H   UNL     1       0.026   9.416  16.578  0.00  0.00    +0.000 HD
ENDROOT
BRANCH   3   7
ATOM      7  C   UNL     1       0.069  10.696  20.639  0.00  0.00    +0.000 A 
ATOM      8  C   UNL     1      -0.030   9.351  21.018  0.00  0.00    +0.000 A 
ATOM      9  C   UNL     1      -0.541   9.004  22.270  0.00  0.00    +0.000 A 
ATOM     10  C   UNL     1      -0.963   9.992  23.156  0.00  0.00    +0.000 A 
ATOM     11  C   UNL     1      -0.891  11.331  22.788  0.00  0.00    +0.000 A 
ATOM     12  C   UNL     1      -0.388  11.678  21.538  0.00  0.00    +0.000 A 
ENDBRANCH   3   7
BRANCH   4  13
ATOM     13  C   UNL     1      -1.744  10.991  18.279  0.00  0.00    +0.000 A 
ATOM     14  C   UNL     1      -2.570   9.970  17.776  0.00  0.00    +0.000 A 
ATOM     15  C   UNL     1      -3.962  10.063  17.867  0.00  0.00    +0.000 A 
ATOM     16  C   UNL     1      -4.548  11.163  18.487  0.00  0.00    +0.000 A 
ATOM     17  C   UNL     1      -3.745  12.160  19.033  0.00  0.00    +0.000 A 
ATOM     18  C   UNL     1      -2.354  12.073  18.935  0.00  0.00    +0.000 A 
ENDBRANCH   4  13
BRANCH   1  19
ATOM     19  C   UNL     1       2.327   8.228  17.661  0.00  0.00    +0.000 C 
BRANCH  19  20
ATOM     20  C   UNL     1       2.614   7.254  18.794  0.00  0.00    +0.000 C 
BRANCH  20  26
ATOM     21 CL   UNL     1       0.818   2.349  18.606  0.00  0.00    +0.000 Cl
ATOM     22  C   UNL     1       1.979   3.546  18.178  0.00  0.00    +0.000 A 
ATOM     23  C   UNL     1       3.051   3.207  17.355  0.00  0.00    +0.000 A 
ATOM     24  C   UNL     1       3.990   4.177  17.011  0.00  0.00    +0.000 A 
ATOM     25  C   UNL     1       3.852   5.485  17.481  0.00  0.00    +0.000 A 
ATOM     26  C   UNL     1       2.767   5.837  18.297  0.00  0.00    +0.000 A 
ATOM     27  C   UNL     1       1.835   4.851  18.653  0.00  0.00    +0.000 A 
ENDBRANCH  20  26
ENDBRANCH  19  20
ENDBRANCH   1  19
TORSDOF 5
ENDMDL
MODEL 3
REMARK VINA RESULT:      -8.0      1.694      2.164
REMARK  Name = 
REMARK  5 active torsions:
REMARK  status: ('A' for Active; 'I' for Inactive)
REMARK    1  A    between atoms: C_6  and  C_7
REMARK    2  A    between atoms: C_7  and  C_8
REMARK    3  A    between atoms: C_8  and  C_9
REMARK    4  A    between atoms: C_11  and  C_12
REMARK    5  A    between atoms: C_18  and  C_19
REMARK                            x       y       z     vdW  Elec       q    Type
REMARK                         _______ _______ _______ _____ _____    ______ ____
ROOT
ATOM      1  C   UNL     1       1.503   9.554  18.084  0.00  0.00    +0.000 C 
ATOM      2  N   UNL     1       1.862  10.403  19.012  0.00  0.00    +0.000 NA
ATOM      3  C   UNL     1       0.626  11.220  19.274  0.00  0.00    +0.000 C 
ATOM      4  C   UNL     1      -0.294  10.975  18.024  0.00  0.00    +0.000 C 
ATOM      5  N   UNL     1       0.242   9.702  17.560  0.00  0.00    +0.000 N 
ATOM      6  H   UNL     1       0.068   9.455  16.596  0.00  0.00    +0.000 HD
ENDROOT
BRANCH   3   7
ATOM      7  C   UNL     1       0.035  10.833  20.625  0.00  0.00    +0.000 A 
ATOM      8  C   UNL     1      -0.005   9.492  21.028  0.00  0.00    +0.000 A 
ATOM      9  C   UNL     1      -0.497   9.146  22.288  0.00  0.00    +0.000 A 
ATOM     10  C   UNL     1      -0.958  10.131  23.157  0.00  0.00    +0.000 A 
ATOM     11  C   UNL     1      -0.944  11.465  22.766  0.00  0.00    +0.000 A 
ATOM     12  C   UNL     1      -0.461  11.811  21.507  0.00  0.00    +0.000 A 
ENDBRANCH   3   7
BRANCH   4  13
ATOM     13  C   UNL     1      -1.790  10.968  18.259  0.00  0.00    +0.000 A 
ATOM     14  C   UNL     1      -2.554   9.883  17.794  0.00  0.00    +0.000 A 
ATOM     15  C   UNL     1      -3.949   9.897  17.884  0.00  0.00    +0.000 A 
ATOM     16  C   UNL     1      -4.599  10.983  18.463  0.00  0.00    +0.000 A 
ATOM     17  C   UNL     1      -3.856  12.045  18.971  0.00  0.00    +0.000 A 
ATOM     18  C   UNL     1      -2.463  12.036  18.875  0.00  0.00    +0.000 A 
ENDBRANCH   4  13
BRANCH   1  19
ATOM     19  C   UNL     1       2.431   8.426  17.706  0.00  0.00    +0.000 C 
BRANCH  19  20
ATOM     20  C   UNL     1       2.519   7.325  18.753  0.00  0.00    +0.000 C 
BRANCH  20  26
ATOM     21 CL   UNL     1       5.968   4.253  16.307  0.00  0.00    +0.000 Cl
ATOM     22  C   UNL     1       4.417   4.520  17.004  0.00  0.00    +0.000 A 
ATOM     23  C   UNL     1       3.479   3.491  17.017  0.00  0.00    +0.000 A 
ATOM     24  C   UNL     1       2.222   3.709  17.581  0.00  0.00    +0.000 A 
ATOM     25  C   UNL     1       1.910   4.952  18.137  0.00  0.00    +0.000 A 
ATOM     26  C   UNL     1       2.855   5.987  18.141  0.00  0.00    +0.000 A 
ATOM     27  C   UNL     1       4.111   5.765  17.556  0.00  0.00    +0.000 A 
ENDBRANCH  20  26
ENDBRANCH  19  20
ENDBRANCH   1  19
TORSDOF 5
ENDMDL
MODEL 4
REMARK VINA RESULT:      -8.0      0.955      1.603
REMARK  Name = 
REMARK  5 active torsions:
REMARK  status: ('A' for Active; 'I' for Inactive)
REMARK    1  A    between atoms: C_6  and  C_7
REMARK    2  A    between atoms: C_7  and  C_8
REMARK    3  A    between atoms: C_8  and  C_9
REMARK    4  A    between atoms: C_11  and  C_12
REMARK    5  A    between atoms: C_18  and  C_19
REMARK                            x       y       z     vdW  Elec       q    Type
REMARK                         _______ _______ _______ _____ _____    ______ ____
ROOT
ATOM      1  C   UNL     1       1.489   9.191  18.002  0.00  0.00    +0.000 C 
ATOM      2  N   UNL     1       1.941   9.966  18.952  0.00  0.00    +0.000 NA
ATOM      3  C   UNL     1       0.797  10.893  19.260  0.00  0.00    +0.000 C 
ATOM      4  C   UNL     1      -0.158  10.785  18.017  0.00  0.00    +0.000 C 
ATOM      5  N   UNL     1       0.243   9.482  17.501  0.00  0.00    +0.000 N 
ATOM      6  H   UNL     1       0.034   9.288  16.532  0.00  0.00    +0.000 HD
ENDROOT
BRANCH   3   7
ATOM      7  C   UNL     1       0.186  10.519  20.606  0.00  0.00    +0.000 A 
ATOM      8  C   UNL     1       0.061   9.176  20.984  0.00  0.00    +0.000 A 
ATOM      9  C   UNL     1      -0.448   8.838  22.239  0.00  0.00    +0.000 A 
ATOM     10  C   UNL     1      -0.844   9.834  23.129  0.00  0.00    +0.000 A 
ATOM     11  C   UNL     1      -0.746  11.172  22.762  0.00  0.00    +0.000 A 
ATOM     12  C   UNL     1      -0.245  11.510  21.508  0.00  0.00    +0.000 A 
ENDBRANCH   3   7
BRANCH   4  13
ATOM     13  C   UNL     1      -1.643  10.919  18.274  0.00  0.00    +0.000 A 
ATOM     14  C   UNL     1      -2.516   9.922  17.803  0.00  0.00    +0.000 A 
ATOM     15  C   UNL     1      -3.901  10.070  17.913  0.00  0.00    +0.000 A 
ATOM     16  C   UNL     1      -4.435  11.203  18.520  0.00  0.00    +0.000 A 
ATOM     17  C   UNL     1      -3.585  12.179  19.034  0.00  0.00    +0.000 A 
ATOM     18  C   UNL     1      -2.201  12.037  18.917  0.00  0.00    +0.000 A 
ENDBRANCH   4  13
BRANCH   1  19
ATOM     19  C   UNL     1       2.294   7.989  17.571  0.00  0.00    +0.000 C 
BRANCH  19  20
ATOM     20  C   UNL     1       3.077   7.337  18.701  0.00  0.00    +0.000 C 
BRANCH  20  26
ATOM     21 CL   UNL     1       2.345   2.287  17.572  0.00  0.00    +0.000 Cl
ATOM     22  C   UNL     1       2.134   3.645  18.609  0.00  0.00    +0.000 A 
ATOM     23  C   UNL     1       1.448   3.496  19.812  0.00  0.00    +0.000 A 
ATOM     24  C   UNL     1       1.277   4.597  20.649  0.00  0.00    +0.000 A 
ATOM     25  C   UNL     1       1.799   5.841  20.287  0.00  0.00    +0.000 A 
ATOM     26  C   UNL     1       2.504   5.994  19.085  0.00  0.00    +0.000 A 
ATOM     27  C   UNL     1       2.657   4.885  18.240  0.00  0.00    +0.000 A 
ENDBRANCH  20  26
ENDBRANCH  19  20
ENDBRANCH   1  19
TORSDOF 5
ENDMDL
MODEL 5
REMARK VINA RESULT:      -7.9      3.228      8.355
REMARK  Name = 
REMARK  5 active torsions:
REMARK  status: ('A' for Active; 'I' for Inactive)
REMARK    1  A    between atoms: C_6  and  C_7
REMARK    2  A    between atoms: C_7  and  C_8
REMARK    3  A    between atoms: C_8  and  C_9
REMARK    4  A    between atoms: C_11  and  C_12
REMARK    5  A    between atoms: C_18  and  C_19
REMARK                            x       y       z     vdW  Elec       q    Type
REMARK                         _______ _______ _______ _____ _____    ______ ____
ROOT
ATOM      1  C   UNL     1       2.675   7.566  18.069  0.00  0.00    +0.000 C 
ATOM      2  N   UNL     1       3.962   7.763  18.193  0.00  0.00    +0.000 NA
ATOM      3  C   UNL     1       4.508   6.427  18.618  0.00  0.00    +0.000 C 
ATOM      4  C   UNL     1       3.261   5.627  19.140  0.00  0.00    +0.000 C 
ATOM      5  N   UNL     1       2.195   6.335  18.444  0.00  0.00    +0.000 N 
ATOM      6  H   UNL     1       1.264   6.255  18.827  0.00  0.00    +0.000 HD
ENDROOT
BRANCH   3   7
ATOM      7  C   UNL     1       5.270   5.795  17.459  0.00  0.00    +0.000 A 
ATOM      8  C   UNL     1       4.855   5.999  16.137  0.00  0.00    +0.000 A 
ATOM      9  C   UNL     1       5.585   5.464  15.074  0.00  0.00    +0.000 A 
ATOM     10  C   UNL     1       6.734   4.716  15.317  0.00  0.00    +0.000 A 
ATOM     11  C   UNL     1       7.150   4.486  16.625  0.00  0.00    +0.000 A 
ATOM     12  C   UNL     1       6.418   5.013  17.685  0.00  0.00    +0.000 A 
ENDBRANCH   3   7
BRANCH   4  13
ATOM     13  C   UNL     1       3.259   4.129  18.918  0.00  0.00    +0.000 A 
ATOM     14  C   UNL     1       4.039   3.309  19.753  0.00  0.00    +0.000 A 
ATOM     15  C   UNL     1       4.159   1.940  19.504  0.00  0.00    +0.000 A 
ATOM     16  C   UNL     1       3.480   1.364  18.433  0.00  0.00    +0.000 A 
ATOM     17  C   UNL     1       2.667   2.152  17.624  0.00  0.00    +0.000 A 
ATOM     18  C   UNL     1       2.552   3.522  17.867  0.00  0.00    +0.000 A 
ENDBRANCH   4  13
BRANCH   1  19
ATOM     19  C   UNL     1       1.812   8.640  17.453  0.00  0.00    +0.000 C 
BRANCH  19  20
ATOM     20  C   UNL     1       1.856   9.966  18.198  0.00  0.00    +0.000 C 
BRANCH  20  26
ATOM     21 CL   UNL     1      -3.311   9.650  17.475  0.00  0.00    +0.000 Cl
ATOM     22  C   UNL     1      -1.931  10.403  18.176  0.00  0.00    +0.000 A 
ATOM     23  C   UNL     1      -2.096  11.499  19.019  0.00  0.00    +0.000 A 
ATOM     24  C   UNL     1      -0.977  12.109  19.585  0.00  0.00    +0.000 A 
ATOM     25  C   UNL     1       0.302  11.616  19.314  0.00  0.00    +0.000 A 
ATOM     26  C   UNL     1       0.474  10.503  18.479  0.00  0.00    +0.000 A 
ATOM     27  C   UNL     1      -0.656   9.906  17.900  0.00  0.00    +0.000 A 
ENDBRANCH  20  26
ENDBRANCH  19  20
ENDBRANCH   1  19
TORSDOF 5
ENDMDL
MODEL 6
REMARK VINA RESULT:      -7.8      3.297      8.409
REMARK  Name = 
REMARK  5 active torsions:
REMARK  status: ('A' for Active; 'I' for Inactive)
REMARK    1  A    between atoms: C_6  and  C_7
REMARK    2  A    between atoms: C_7  and  C_8
REMARK    3  A    between atoms: C_8  and  C_9
REMARK    4  A    between atoms: C_11  and  C_12
REMARK    5  A    between atoms: C_18  and  C_19
REMARK                            x       y       z     vdW  Elec       q    Type
REMARK                         _______ _______ _______ _____ _____    ______ ____
ROOT
ATOM      1  C   UNL     1       2.670   7.539  18.105  0.00  0.00    +0.000 C 
ATOM      2  N   UNL     1       3.957   7.751  18.208  0.00  0.00    +0.000 NA
ATOM      3  C   UNL     1       4.529   6.416  18.601  0.00  0.00    +0.000 C 
ATOM      4  C   UNL     1       3.303   5.591  19.134  0.00  0.00    +0.000 C 
ATOM      5  N   UNL     1       2.214   6.295  18.469  0.00  0.00    +0.000 N 
ATOM      6  H   UNL     1       1.292   6.197  18.869  0.00  0.00    +0.000 HD
ENDROOT
BRANCH   3   7
ATOM      7  C   UNL     1       5.277   5.813  17.418  0.00  0.00    +0.000 A 
ATOM      8  C   UNL     1       6.381   4.976  17.625  0.00  0.00    +0.000 A 
ATOM      9  C   UNL     1       7.031   4.381  16.542  0.00  0.00    +0.000 A 
ATOM     10  C   UNL     1       6.592   4.618  15.242  0.00  0.00    +0.000 A 
ATOM     11  C   UNL     1       5.510   5.462  15.017  0.00  0.00    +0.000 A 
ATOM     12  C   UNL     1       4.865   6.061  16.095  0.00  0.00    +0.000 A 
ENDBRANCH   3   7
BRANCH   4  13
ATOM     13  C   UNL     1       3.317   4.097  18.888  0.00  0.00    +0.000 A 
ATOM     14  C   UNL     1       4.044   3.264  19.757  0.00  0.00    +0.000 A 
ATOM     15  C   UNL     1       4.181   1.899  19.493  0.00  0.00    +0.000 A 
ATOM     16  C   UNL     1       3.571   1.340  18.373  0.00  0.00    +0.000 A 
ATOM     17  C   UNL     1       2.809   2.141  17.528  0.00  0.00    +0.000 A 
ATOM     18  C   UNL     1       2.677   3.507  17.785  0.00  0.00    +0.000 A 
ENDBRANCH   4  13
BRANCH   1  19
ATOM     19  C   UNL     1       1.781   8.610  17.523  0.00  0.00    +0.000 C 
BRANCH  19  20
ATOM     20  C   UNL     1       1.588   9.813  18.436  0.00  0.00    +0.000 C 
BRANCH  20  26
ATOM     21 CL   UNL     1      -3.195   9.704  16.334  0.00  0.00    +0.000 Cl
ATOM     22  C   UNL     1      -2.082  10.273  17.516  0.00  0.00    +0.000 A 
ATOM     23  C   UNL     1      -2.513  11.159  18.501  0.00  0.00    +0.000 A 
ATOM     24  C   UNL     1      -1.609  11.621  19.457  0.00  0.00    +0.000 A 
ATOM     25  C   UNL     1      -0.281  11.190  19.432  0.00  0.00    +0.000 A 
ATOM     26  C   UNL     1       0.155  10.286  18.453  0.00  0.00    +0.000 A 
ATOM     27  C   UNL     1      -0.756   9.839  17.484  0.00  0.00    +0.000 A 
ENDBRANCH  20  26
ENDBRANCH  19  20
ENDBRANCH   1  19
TORSDOF 5
ENDMDL
MODEL 7
REMARK VINA RESULT:      -7.8      8.166      9.554
REMARK  Name = 
REMARK  5 active torsions:
REMARK  status: ('A' for Active; 'I' for Inactive)
REMARK    1  A    between atoms: C_6  and  C_7
REMARK    2  A    between atoms: C_7  and  C_8
REMARK    3  A    between atoms: C_8  and  C_9
REMARK    4  A    between atoms: C_11  and  C_12
REMARK    5  A    between atoms: C_18  and  C_19
REMARK                            x       y       z     vdW  Elec       q    Type
REMARK                         _______ _______ _______ _____ _____    ______ ____
ROOT
ATOM      1  C   UNL     1       9.509  10.886  18.850  0.00  0.00    +0.000 C 
ATOM      2  N   UNL     1      10.519  11.241  19.601  0.00  0.00    +0.000 NA
ATOM      3  C   UNL     1      10.567  12.740  19.483  0.00  0.00    +0.000 C 
ATOM      4  C   UNL     1       9.722  13.073  18.201  0.00  0.00    +0.000 C 
ATOM      5  N   UNL     1       8.894  11.877  18.125  0.00  0.00    +0.000 N 
ATOM      6  H   UNL     1       8.481  11.660  17.228  0.00  0.00    +0.000 HD
ENDROOT
BRANCH   3   7
ATOM      7  C   UNL     1      10.083  13.371  20.784  0.00  0.00    +0.000 A 
ATOM      8  C   UNL     1      10.515  14.649  21.160  0.00  0.00    +0.000 A 
ATOM      9  C   UNL     1      10.029  15.246  22.324  0.00  0.00    +0.000 A 
ATOM     10  C   UNL     1       9.112  14.575  23.129  0.00  0.00    +0.000 A 
ATOM     11  C   UNL     1       8.687  13.297  22.781  0.00  0.00    +0.000 A 
ATOM     12  C   UNL     1       9.177  12.698  21.624  0.00  0.00    +0.000 A 
ENDBRANCH   3   7
BRANCH   4  13
ATOM     13  C   UNL     1       8.940  14.369  18.207  0.00  0.00    +0.000 A 
ATOM     14  C   UNL     1       9.589  15.565  17.850  0.00  0.00    +0.000 A 
ATOM     15  C   UNL     1       8.936  16.796  17.960  0.00  0.00    +0.000 A 
ATOM     16  C   UNL     1       7.617  16.848  18.402  0.00  0.00    +0.000 A 
ATOM     17  C   UNL     1       6.944  15.670  18.715  0.00  0.00    +0.000 A 
ATOM     18  C   UNL     1       7.597  14.440  18.613  0.00  0.00    +0.000 A 
ENDBRANCH   4  13
BRANCH   1  19
ATOM     19  C   UNL     1       9.021   9.457  18.882  0.00  0.00    +0.000 C 
BRANCH  19  20
ATOM     20  C   UNL     1       8.023   9.124  17.783  0.00  0.00    +0.000 C 
BRANCH  20  26
ATOM     21 CL   UNL     1       5.629   5.117  15.432  0.00  0.00    +0.000 Cl
ATOM     22  C   UNL     1       6.579   5.762  16.714  0.00  0.00    +0.000 A 
ATOM     23  C   UNL     1       7.040   4.920  17.723  0.00  0.00    +0.000 A 
ATOM     24  C   UNL     1       7.808   5.445  18.762  0.00  0.00    +0.000 A 
ATOM     25  C   UNL     1       8.121   6.806  18.784  0.00  0.00    +0.000 A 
ATOM     26  C   UNL     1       7.674   7.655  17.763  0.00  0.00    +0.000 A 
ATOM     27  C   UNL     1       6.887   7.123  16.731  0.00  0.00    +0.000 A 
ENDBRANCH  20  26
ENDBRANCH  19  20
ENDBRANCH   1  19
TORSDOF 5
ENDMDL
MODEL 8
REMARK VINA RESULT:      -7.8      3.401      8.351
REMARK  Name = 
REMARK  5 active torsions:
REMARK  status: ('A' for Active; 'I' for Inactive)
REMARK    1  A    between atoms: C_6  and  C_7
REMARK    2  A    between atoms: C_7  and  C_8
REMARK    3  A    between atoms: C_8  and  C_9
REMARK    4  A    between atoms: C_11  and  C_12
REMARK    5  A    between atoms: C_18  and  C_19
REMARK                            x       y       z     vdW  Elec       q    Type
REMARK                         _______ _______ _______ _____ _____    ______ ____
ROOT
ATOM      1  C   UNL     1       2.683   7.589  18.120  0.00  0.00    +0.000 C 
ATOM      2  N   UNL     1       3.973   7.781  18.213  0.00  0.00    +0.000 NA
ATOM      3  C   UNL     1       4.525   6.439  18.611  0.00  0.00    +0.000 C 
ATOM      4  C   UNL     1       3.289   5.638  19.157  0.00  0.00    +0.000 C 
ATOM      5  N   UNL     1       2.208   6.355  18.494  0.00  0.00    +0.000 N 
ATOM      6  H   UNL     1       1.287   6.275  18.900  0.00  0.00    +0.000 HD
ENDROOT
BRANCH   3   7
ATOM      7  C   UNL     1       5.256   5.816  17.427  0.00  0.00    +0.000 A 
ATOM      8  C   UNL     1       4.830   6.064  16.116  0.00  0.00    +0.000 A 
ATOM      9  C   UNL     1       5.533   5.537  15.031  0.00  0.00    +0.000 A 
ATOM     10  C   UNL     1       6.665   4.753  15.241  0.00  0.00    +0.000 A 
ATOM     11  C   UNL     1       7.090   4.480  16.537  0.00  0.00    +0.000 A 
ATOM     12  C   UNL     1       6.386   4.999  17.619  0.00  0.00    +0.000 A 
ENDBRANCH   3   7
BRANCH   4  13
ATOM     13  C   UNL     1       3.277   4.143  18.920  0.00  0.00    +0.000 A 
ATOM     14  C   UNL     1       4.027   3.306  19.766  0.00  0.00    +0.000 A 
ATOM     15  C   UNL     1       4.139   1.938  19.507  0.00  0.00    +0.000 A 
ATOM     16  C   UNL     1       3.481   1.379  18.415  0.00  0.00    +0.000 A 
ATOM     17  C   UNL     1       2.697   2.184  17.593  0.00  0.00    +0.000 A 
ATOM     18  C   UNL     1       2.590   3.553  17.846  0.00  0.00    +0.000 A 
ENDBRANCH   4  13
BRANCH   1  19
ATOM     19  C   UNL     1       1.808   8.672  17.536  0.00  0.00    +0.000 C 
BRANCH  19  20
ATOM     20  C   UNL     1       1.468   9.784  18.517  0.00  0.00    +0.000 C 
BRANCH  20  26
ATOM     21 CL   UNL     1      -2.466  12.756  20.249  0.00  0.00    +0.000 Cl
ATOM     22  C   UNL     1      -1.839  11.559  19.184  0.00  0.00    +0.000 A 
ATOM     23  C   UNL     1      -2.666  10.992  18.217  0.00  0.00    +0.000 A 
ATOM     24  C   UNL     1      -2.156  10.021  17.356  0.00  0.00    +0.000 A 
ATOM     25  C   UNL     1      -0.821   9.626  17.457  0.00  0.00    +0.000 A 
ATOM     26  C   UNL     1       0.022  10.204  18.418  0.00  0.00    +0.000 A 
ATOM     27  C   UNL     1      -0.503  11.168  19.292  0.00  0.00    +0.000 A 
ENDBRANCH  20  26
ENDBRANCH  19  20
ENDBRANCH   1  19
TORSDOF 5
ENDMDL
MODEL 9
REMARK VINA RESULT:      -7.8      3.280      8.433
REMARK  Name = 
REMARK  5 active torsions:
REMARK  status: ('A' for Active; 'I' for Inactive)
REMARK    1  A    between atoms: C_6  and  C_7
REMARK    2  A    between atoms: C_7  and  C_8
REMARK    3  A    between atoms: C_8  and  C_9
REMARK    4  A    between atoms: C_11  and  C_12
REMARK    5  A    between atoms: C_18  and  C_19
REMARK                            x       y       z     vdW  Elec       q    Type
REMARK                         _______ _______ _______ _____ _____    ______ ____
ROOT
ATOM      1  C   UNL     1       2.747   7.493  18.061  0.00  0.00    +0.000 C 
ATOM      2  N   UNL     1       4.026   7.750  18.142  0.00  0.00    +0.000 NA
ATOM      3  C   UNL     1       4.649   6.439  18.539  0.00  0.00    +0.000 C 
ATOM      4  C   UNL     1       3.459   5.578  19.098  0.00  0.00    +0.000 C 
ATOM      5  N   UNL     1       2.338   6.238  18.443  0.00  0.00    +0.000 N 
ATOM      6  H   UNL     1       1.425   6.113  18.858  0.00  0.00    +0.000 HD
ENDROOT
BRANCH   3   7
ATOM      7  C   UNL     1       5.400   5.849  17.350  0.00  0.00    +0.000 A 
ATOM      8  C   UNL     1       6.561   5.091  17.546  0.00  0.00    +0.000 A 
ATOM      9  C   UNL     1       7.216   4.507  16.461  0.00  0.00    +0.000 A 
ATOM     10  C   UNL     1       6.725   4.676  15.169  0.00  0.00    +0.000 A 
ATOM     11  C   UNL     1       5.584   5.443  14.954  0.00  0.00    +0.000 A 
ATOM     12  C   UNL     1       4.934   6.031  16.035  0.00  0.00    +0.000 A 
ENDBRANCH   3   7
BRANCH   4  13
ATOM     13  C   UNL     1       3.520   4.083  18.865  0.00  0.00    +0.000 A 
ATOM     14  C   UNL     1       2.748   3.516  17.836  0.00  0.00    +0.000 A 
ATOM     15  C   UNL     1       2.684   2.130  17.668  0.00  0.00    +0.000 A 
ATOM     16  C   UNL     1       3.411   1.292  18.509  0.00  0.00    +0.000 A 
ATOM     17  C   UNL     1       4.217   1.838  19.504  0.00  0.00    +0.000 A 
ATOM     18  C   UNL     1       4.277   3.222  19.677  0.00  0.00    +0.000 A 
ENDBRANCH   4  13
BRANCH   1  19
ATOM     19  C   UNL     1       1.813   8.529  17.482  0.00  0.00    +0.000 C 
BRANCH  19  20
ATOM     20  C   UNL     1       1.899   9.885  18.166  0.00  0.00    +0.000 C 
BRANCH  20  26
ATOM     21 CL   UNL     1      -3.288   9.594  17.600  0.00  0.00    +0.000 Cl
ATOM     22  C   UNL     1      -1.872  10.432  18.107  0.00  0.00    +0.000 A 
ATOM     23  C   UNL     1      -1.987  11.686  18.702  0.00  0.00    +0.000 A 
ATOM     24  C   UNL     1      -0.839  12.364  19.110  0.00  0.00    +0.000 A 
ATOM     25  C   UNL     1       0.418  11.784  18.931  0.00  0.00    +0.000 A 
ATOM     26  C   UNL     1       0.540  10.515  18.347  0.00  0.00    +0.000 A 
ATOM     27  C   UNL     1      -0.619   9.847  17.923  0.00  0.00    +0.000 A 
ENDBRANCH  20  26
ENDBRANCH  19  20
ENDBRANCH   1  19
TORSDOF 5
ENDMDL
