MODEL 1
REMARK VINA RESULT:      -7.2      0.000      0.000
REMARK  Name = 
REMARK  8 active torsions:
REMARK  status: ('A' for Active; 'I' for Inactive)
REMARK    1  A    between atoms: C_1  and  O_2
REMARK    2  A    between atoms: O_2  and  C_3
REMARK    3  A    between atoms: C_8  and  N_9
REMARK    4  A    between atoms: C_10  and  C_12
REMARK    5  A    between atoms: C_15  and  S_16
REMARK    6  A    between atoms: S_16  and  N_19
REMARK    7  A    between atoms: N_19  and  C_20
REMARK    8  A    between atoms: N_19  and  C_21
REMARK                            x       y       z     vdW  Elec       q    Type
REMARK                         _______ _______ _______ _____ _____    ______ ____
ROOT
ATOM      1  N   UNL     1       4.459   7.019  17.506  0.00  0.00    +0.000 N 
ATOM      2  C   UNL     1       3.185   6.708  17.967  0.00  0.00    +0.000 C 
ATOM      3  O   UNL     1       2.700   5.579  18.002  0.00  0.00    +0.000 OA
ATOM      4  H   UNL     1       4.867   7.929  17.675  0.00  0.00    +0.000 HD
ENDROOT
BRANCH   1  10
ATOM      5  C   UNL     1       6.329   5.422  17.481  0.00  0.00    +0.000 A 
ATOM      6  C   UNL     1       7.184   4.567  16.762  0.00  0.00    +0.000 A 
ATOM      7  C   UNL     1       7.009   4.359  15.395  0.00  0.00    +0.000 A 
ATOM      8  C   UNL     1       5.991   5.018  14.725  0.00  0.00    +0.000 A 
ATOM      9  C   UNL     1       5.158   5.894  15.422  0.00  0.00    +0.000 A 
ATOM     10  C   UNL     1       5.302   6.108  16.801  0.00  0.00    +0.000 A 
BRANCH   5  12
ATOM     11  C   UNL     1       7.778   5.819  19.309  0.00  0.00    +0.000 C 
ATOM     12  O   UNL     1       6.441   5.623  18.840  0.00  0.00    +0.000 OA
ENDBRANCH   5  12
ENDBRANCH   1  10
BRANCH   2  13
ATOM     13  C   UNL     1       2.310   7.794  18.488  0.00  0.00    +0.000 A 
ATOM     14  C   UNL     1       1.973   7.722  19.856  0.00  0.00    +0.000 A 
ATOM     15  C   UNL     1       1.270   8.746  20.487  0.00  0.00    +0.000 A 
ATOM     16  C   UNL     1       0.914   9.869  19.745  0.00  0.00    +0.000 A 
ATOM     17  C   UNL     1       1.182   9.931  18.368  0.00  0.00    +0.000 A 
ATOM     18  C   UNL     1       1.888   8.895  17.738  0.00  0.00    +0.000 A 
BRANCH  16  19
ATOM     19  S   UNL     1       0.120  11.239  20.567  0.00  0.00    +0.000 S 
ATOM     20  O   UNL     1      -0.917  10.685  21.410  0.00  0.00    +0.000 OA
ATOM     21  O   UNL     1       1.161  12.083  21.115  0.00  0.00    +0.000 OA
BRANCH  19  22
ATOM     22  N   UNL     1      -0.628  12.071  19.278  0.00  0.00    +0.000 NA
ATOM     23  C   UNL     1      -2.087  11.916  19.133  0.00  0.00    +0.000 C 
ATOM     24  C   UNL     1      -0.168  13.449  19.032  0.00  0.00    +0.000 C 
ENDBRANCH  19  22
ENDBRANCH  16  19
ENDBRANCH   2  13
TORSDOF 5
ENDMDL
MODEL 2
REMARK VINA RESULT:      -7.1      0.753      1.423
REMARK  Name = 
REMARK  8 active torsions:
REMARK  status: ('A' for Active; 'I' for Inactive)
REMARK    1  A    between atoms: C_1  and  O_2
REMARK    2  A    between atoms: O_2  and  C_3
REMARK    3  A    between atoms: C_8  and  N_9
REMARK    4  A    between atoms: C_10  and  C_12
REMARK    5  A    between atoms: C_15  and  S_16
REMARK    6  A    between atoms: S_16  and  N_19
REMARK    7  A    between atoms: N_19  and  C_20
REMARK    8  A    between atoms: N_19  and  C_21
REMARK                            x       y       z     vdW  Elec       q    Type
REMARK                         _______ _______ _______ _____ _____    ______ ____
ROOT
ATOM      1  N   UNL     1       4.537   6.968  17.632  0.00  0.00    +0.000 N 
ATOM      2  C   UNL     1       3.245   6.688  18.060  0.00  0.00    +0.000 C 
ATOM      3  O   UNL     1       2.706   5.584  18.010  0.00  0.00    +0.000 OA
ATOM      4  H   UNL     1       4.987   7.842  17.869  0.00  0.00    +0.000 HD
ENDROOT
BRANCH   1  10
ATOM      5  C   UNL     1       6.333   5.292  17.503  0.00  0.00    +0.000 A 
ATOM      6  C   UNL     1       7.152   4.450  16.729  0.00  0.00    +0.000 A 
ATOM      7  C   UNL     1       6.976   4.344  15.350  0.00  0.00    +0.000 A 
ATOM      8  C   UNL     1       5.993   5.094  14.725  0.00  0.00    +0.000 A 
ATOM      9  C   UNL     1       5.197   5.957  15.478  0.00  0.00    +0.000 A 
ATOM     10  C   UNL     1       5.343   6.070  16.868  0.00  0.00    +0.000 A 
BRANCH   5  12
ATOM     11  C   UNL     1       7.736   5.800  19.339  0.00  0.00    +0.000 C 
ATOM     12  O   UNL     1       6.446   5.395  18.872  0.00  0.00    +0.000 OA
ENDBRANCH   5  12
ENDBRANCH   1  10
BRANCH   2  13
ATOM     13  C   UNL     1       2.418   7.775  18.653  0.00  0.00    +0.000 A 
ATOM     14  C   UNL     1       2.018   8.804  17.776  0.00  0.00    +0.000 A 
ATOM     15  C   UNL     1       1.136   9.803  18.181  0.00  0.00    +0.000 A 
ATOM     16  C   UNL     1       0.631   9.764  19.478  0.00  0.00    +0.000 A 
ATOM     17  C   UNL     1       1.067   8.786  20.386  0.00  0.00    +0.000 A 
ATOM     18  C   UNL     1       1.957   7.784  19.972  0.00  0.00    +0.000 A 
BRANCH  16  19
ATOM     19  S   UNL     1      -0.590  10.968  19.973  0.00  0.00    +0.000 S 
ATOM     20  O   UNL     1      -1.703  10.844  19.057  0.00  0.00    +0.000 OA
ATOM     21  O   UNL     1      -0.778  10.837  21.403  0.00  0.00    +0.000 OA
BRANCH  19  22
ATOM     22  N   UNL     1       0.194  12.451  19.664  0.00  0.00    +0.000 NA
ATOM     23  C   UNL     1      -0.460  13.373  18.717  0.00  0.00    +0.000 C 
ATOM     24  C   UNL     1       0.778  13.140  20.828  0.00  0.00    +0.000 C 
ENDBRANCH  19  22
ENDBRANCH  16  19
ENDBRANCH   2  13
TORSDOF 5
ENDMDL
MODEL 3
REMARK VINA RESULT:      -7.0      3.046      8.450
REMARK  Name = 
REMARK  8 active torsions:
REMARK  status: ('A' for Active; 'I' for Inactive)
REMARK    1  A    between atoms: C_1  and  O_2
REMARK    2  A    between atoms: O_2  and  C_3
REMARK    3  A    between atoms: C_8  and  N_9
REMARK    4  A    between atoms: C_10  and  C_12
REMARK    5  A    between atoms: C_15  and  S_16
REMARK    6  A    between atoms: S_16  and  N_19
REMARK    7  A    between atoms: N_19  and  C_20
REMARK    8  A    between atoms: N_19  and  C_21
REMARK                            x       y       z     vdW  Elec       q    Type
REMARK                         _______ _______ _______ _____ _____    ______ ____
ROOT
ATOM      1  N   UNL     1       1.918   8.316  19.891  0.00  0.00    +0.000 N 
ATOM      2  C   UNL     1       2.161   6.950  19.973  0.00  0.00    +0.000 C 
ATOM      3  O   UNL     1       1.496   6.150  20.630  0.00  0.00    +0.000 OA
ATOM      4  H   UNL     1       2.379   8.886  19.194  0.00  0.00    +0.000 HD
ENDROOT
BRANCH   1  10
ATOM      5  C   UNL     1       0.037   9.877  20.162  0.00  0.00    +0.000 A 
ATOM      6  C   UNL     1      -0.823  10.604  21.005  0.00  0.00    +0.000 A 
ATOM      7  C   UNL     1      -0.761  10.463  22.391  0.00  0.00    +0.000 A 
ATOM      8  C   UNL     1       0.176   9.610  22.952  0.00  0.00    +0.000 A 
ATOM      9  C   UNL     1       1.056   8.910  22.127  0.00  0.00    +0.000 A 
ATOM     10  C   UNL     1       1.003   9.021  20.730  0.00  0.00    +0.000 A 
BRANCH   5  12
ATOM     11  C   UNL     1      -1.009  10.851  18.278  0.00  0.00    +0.000 C 
ATOM     12  O   UNL     1      -0.018   9.955  18.788  0.00  0.00    +0.000 OA
ENDBRANCH   5  12
ENDBRANCH   1  10
BRANCH   2  13
ATOM     13  C   UNL     1       3.292   6.359  19.207  0.00  0.00    +0.000 A 
ATOM     14  C   UNL     1       3.662   7.030  18.022  0.00  0.00    +0.000 A 
ATOM     15  C   UNL     1       4.785   6.650  17.292  0.00  0.00    +0.000 A 
ATOM     16  C   UNL     1       5.563   5.595  17.761  0.00  0.00    +0.000 A 
ATOM     17  C   UNL     1       5.177   4.873  18.901  0.00  0.00    +0.000 A 
ATOM     18  C   UNL     1       4.043   5.259  19.631  0.00  0.00    +0.000 A 
BRANCH  16  19
ATOM     19  S   UNL     1       7.070   5.175  16.901  0.00  0.00    +0.000 S 
ATOM     20  O   UNL     1       7.591   6.401  16.335  0.00  0.00    +0.000 OA
ATOM     21  O   UNL     1       7.870   4.361  17.793  0.00  0.00    +0.000 OA
BRANCH  19  22
ATOM     22  N   UNL     1       6.514   4.191  15.623  0.00  0.00    +0.000 NA
ATOM     23  C   UNL     1       5.185   3.570  15.781  0.00  0.00    +0.000 C 
ATOM     24  C   UNL     1       6.759   4.687  14.258  0.00  0.00    +0.000 C 
ENDBRANCH  19  22
ENDBRANCH  16  19
ENDBRANCH   2  13
TORSDOF 5
ENDMDL
MODEL 4
REMARK VINA RESULT:      -7.0      3.088      8.478
REMARK  Name = 
REMARK  8 active torsions:
REMARK  status: ('A' for Active; 'I' for Inactive)
REMARK    1  A    between atoms: C_1  and  O_2
REMARK    2  A    between atoms: O_2  and  C_3
REMARK    3  A    between atoms: C_8  and  N_9
REMARK    4  A    between atoms: C_10  and  C_12
REMARK    5  A    between atoms: C_15  and  S_16
REMARK    6  A    between atoms: S_16  and  N_19
REMARK    7  A    between atoms: N_19  and  C_20
REMARK    8  A    between atoms: N_19  and  C_21
REMARK                            x       y       z     vdW  Elec       q    Type
REMARK                         _______ _______ _______ _____ _____    ______ ____
ROOT
ATOM      1  N   UNL     1       0.489   9.330  19.849  0.00  0.00    +0.000 N 
ATOM      2  C   UNL     1       1.525   9.185  18.934  0.00  0.00    +0.000 C 
ATOM      3  O   UNL     1       1.942  10.072  18.191  0.00  0.00    +0.000 OA
ATOM      4  H   UNL     1       0.317   8.628  20.557  0.00  0.00    +0.000 HD
ENDROOT
BRANCH   1  10
ATOM      5  C   UNL     1      -0.533  11.184  21.100  0.00  0.00    +0.000 A 
ATOM      6  C   UNL     1      -1.438  12.260  21.149  0.00  0.00    +0.000 A 
ATOM      7  C   UNL     1      -2.162  12.644  20.022  0.00  0.00    +0.000 A 
ATOM      8  C   UNL     1      -2.007  11.943  18.836  0.00  0.00    +0.000 A 
ATOM      9  C   UNL     1      -1.138  10.853  18.786  0.00  0.00    +0.000 A 
ATOM     10  C   UNL     1      -0.386  10.457  19.901  0.00  0.00    +0.000 A 
BRANCH   5  12
ATOM     11  C   UNL     1      -0.464  10.029  23.164  0.00  0.00    +0.000 C 
ATOM     12  O   UNL     1       0.232  10.799  22.179  0.00  0.00    +0.000 OA
ENDBRANCH   5  12
ENDBRANCH   1  10
BRANCH   2  13
ATOM     13  C   UNL     1       2.228   7.878  18.823  0.00  0.00    +0.000 A 
ATOM     14  C   UNL     1       3.060   7.709  17.697  0.00  0.00    +0.000 A 
ATOM     15  C   UNL     1       3.868   6.585  17.551  0.00  0.00    +0.000 A 
ATOM     16  C   UNL     1       3.860   5.621  18.556  0.00  0.00    +0.000 A 
ATOM     17  C   UNL     1       2.991   5.737  19.652  0.00  0.00    +0.000 A 
ATOM     18  C   UNL     1       2.178   6.872  19.792  0.00  0.00    +0.000 A 
BRANCH  16  19
ATOM     19  S   UNL     1       4.978   4.234  18.441  0.00  0.00    +0.000 S 
ATOM     20  O   UNL     1       5.265   4.036  17.036  0.00  0.00    +0.000 OA
ATOM     21  O   UNL     1       6.041   4.449  19.400  0.00  0.00    +0.000 OA
BRANCH  19  22
ATOM     22  N   UNL     1       4.019   2.930  18.979  0.00  0.00    +0.000 NA
ATOM     23  C   UNL     1       3.443   2.047  17.948  0.00  0.00    +0.000 C 
ATOM     24  C   UNL     1       4.513   2.194  20.156  0.00  0.00    +0.000 C 
ENDBRANCH  19  22
ENDBRANCH  16  19
ENDBRANCH   2  13
TORSDOF 5
ENDMDL
MODEL 5
REMARK VINA RESULT:      -7.0      3.061      8.288
REMARK  Name = 
REMARK  8 active torsions:
REMARK  status: ('A' for Active; 'I' for Inactive)
REMARK    1  A    between atoms: C_1  and  O_2
REMARK    2  A    between atoms: O_2  and  C_3
REMARK    3  A    between atoms: C_8  and  N_9
REMARK    4  A    between atoms: C_10  and  C_12
REMARK    5  A    between atoms: C_15  and  S_16
REMARK    6  A    between atoms: S_16  and  N_19
REMARK    7  A    between atoms: N_19  and  C_20
REMARK    8  A    between atoms: N_19  and  C_21
REMARK                            x       y       z     vdW  Elec       q    Type
REMARK                         _______ _______ _______ _____ _____    ______ ____
ROOT
ATOM      1  N   UNL     1       0.643   9.261  19.326  0.00  0.00    +0.000 N 
ATOM      2  C   UNL     1       1.666   9.199  18.387  0.00  0.00    +0.000 C 
ATOM      3  O   UNL     1       1.914  10.066  17.551  0.00  0.00    +0.000 OA
ATOM      4  H   UNL     1       0.607   8.613  20.101  0.00  0.00    +0.000 HD
ENDROOT
BRANCH   1  10
ATOM      5  C   UNL     1      -0.621  11.056  20.435  0.00  0.00    +0.000 A 
ATOM      6  C   UNL     1      -1.688  11.973  20.424  0.00  0.00    +0.000 A 
ATOM      7  C   UNL     1      -2.510  12.107  19.306  0.00  0.00    +0.000 A 
ATOM      8  C   UNL     1      -2.288  11.312  18.192  0.00  0.00    +0.000 A 
ATOM      9  C   UNL     1      -1.254  10.377  18.206  0.00  0.00    +0.000 A 
ATOM     10  C   UNL     1      -0.403  10.233  19.311  0.00  0.00    +0.000 A 
BRANCH   5  12
ATOM     11  C   UNL     1      -0.343  10.339  22.672  0.00  0.00    +0.000 C 
ATOM     12  O   UNL     1       0.239  10.921  21.503  0.00  0.00    +0.000 OA
ENDBRANCH   5  12
ENDBRANCH   1  10
BRANCH   2  13
ATOM     13  C   UNL     1       2.571   8.017  18.367  0.00  0.00    +0.000 A 
ATOM     14  C   UNL     1       2.366   7.056  19.379  0.00  0.00    +0.000 A 
ATOM     15  C   UNL     1       3.060   5.849  19.387  0.00  0.00    +0.000 A 
ATOM     16  C   UNL     1       3.961   5.588  18.358  0.00  0.00    +0.000 A 
ATOM     17  C   UNL     1       4.228   6.558  17.378  0.00  0.00    +0.000 A 
ATOM     18  C   UNL     1       3.526   7.773  17.377  0.00  0.00    +0.000 A 
BRANCH  16  19
ATOM     19  S   UNL     1       4.769   3.998  18.290  0.00  0.00    +0.000 S 
ATOM     20  O   UNL     1       4.825   3.611  16.896  0.00  0.00    +0.000 OA
ATOM     21  O   UNL     1       5.971   4.083  19.093  0.00  0.00    +0.000 OA
BRANCH  19  22
ATOM     22  N   UNL     1       3.658   2.976  19.084  0.00  0.00    +0.000 NA
ATOM     23  C   UNL     1       2.766   2.164  18.236  0.00  0.00    +0.000 C 
ATOM     24  C   UNL     1       4.165   2.241  20.256  0.00  0.00    +0.000 C 
ENDBRANCH  19  22
ENDBRANCH  16  19
ENDBRANCH   2  13
TORSDOF 5
ENDMDL
MODEL 6
REMARK VINA RESULT:      -6.9      2.654      8.469
REMARK  Name = 
REMARK  8 active torsions:
REMARK  status: ('A' for Active; 'I' for Inactive)
REMARK    1  A    between atoms: C_1  and  O_2
REMARK    2  A    between atoms: O_2  and  C_3
REMARK    3  A    between atoms: C_8  and  N_9
REMARK    4  A    between atoms: C_10  and  C_12
REMARK    5  A    between atoms: C_15  and  S_16
REMARK    6  A    between atoms: S_16  and  N_19
REMARK    7  A    between atoms: N_19  and  C_20
REMARK    8  A    between atoms: N_19  and  C_21
REMARK                            x       y       z     vdW  Elec       q    Type
REMARK                         _______ _______ _______ _____ _____    ______ ____
ROOT
ATOM      1  N   UNL     1       0.556   9.334  19.764  0.00  0.00    +0.000 N 
ATOM      2  C   UNL     1       1.540   9.167  18.797  0.00  0.00    +0.000 C 
ATOM      3  O   UNL     1       1.866  10.011  17.965  0.00  0.00    +0.000 OA
ATOM      4  H   UNL     1       0.463   8.682  20.532  0.00  0.00    +0.000 HD
ENDROOT
BRANCH   1  10
ATOM      5  C   UNL     1      -0.564  11.159  20.974  0.00  0.00    +0.000 A 
ATOM      6  C   UNL     1      -1.517  12.194  20.996  0.00  0.00    +0.000 A 
ATOM      7  C   UNL     1      -2.245  12.526  19.854  0.00  0.00    +0.000 A 
ATOM      8  C   UNL     1      -2.045  11.814  18.682  0.00  0.00    +0.000 A 
ATOM      9  C   UNL     1      -1.127  10.765  18.659  0.00  0.00    +0.000 A 
ATOM     10  C   UNL     1      -0.370  10.421  19.789  0.00  0.00    +0.000 A 
BRANCH   5  12
ATOM     11  C   UNL     1      -0.502  10.165  23.120  0.00  0.00    +0.000 C 
ATOM     12  O   UNL     1       0.205  10.826  22.068  0.00  0.00    +0.000 OA
ENDBRANCH   5  12
ENDBRANCH   1  10
BRANCH   2  13
ATOM     13  C   UNL     1       2.300   7.888  18.739  0.00  0.00    +0.000 A 
ATOM     14  C   UNL     1       3.185   7.736  17.652  0.00  0.00    +0.000 A 
ATOM     15  C   UNL     1       4.044   6.644  17.560  0.00  0.00    +0.000 A 
ATOM     16  C   UNL     1       4.032   5.696  18.580  0.00  0.00    +0.000 A 
ATOM     17  C   UNL     1       3.114   5.794  19.638  0.00  0.00    +0.000 A 
ATOM     18  C   UNL     1       2.250   6.896  19.723  0.00  0.00    +0.000 A 
BRANCH  16  19
ATOM     19  S   UNL     1       5.210   4.356  18.537  0.00  0.00    +0.000 S 
ATOM     20  O   UNL     1       6.168   4.599  19.594  0.00  0.00    +0.000 OA
ATOM     21  O   UNL     1       4.462   3.118  18.473  0.00  0.00    +0.000 OA
BRANCH  19  22
ATOM     22  N   UNL     1       5.995   4.591  17.040  0.00  0.00    +0.000 NA
ATOM     23  C   UNL     1       7.468   4.646  17.054  0.00  0.00    +0.000 C 
ATOM     24  C   UNL     1       5.458   3.839  15.892  0.00  0.00    +0.000 C 
ENDBRANCH  19  22
ENDBRANCH  16  19
ENDBRANCH   2  13
TORSDOF 5
ENDMDL
MODEL 7
REMARK VINA RESULT:      -6.8      2.626      8.369
REMARK  Name = 
REMARK  8 active torsions:
REMARK  status: ('A' for Active; 'I' for Inactive)
REMARK    1  A    between atoms: C_1  and  O_2
REMARK    2  A    between atoms: O_2  and  C_3
REMARK    3  A    between atoms: C_8  and  N_9
REMARK    4  A    between atoms: C_10  and  C_12
REMARK    5  A    between atoms: C_15  and  S_16
REMARK    6  A    between atoms: S_16  and  N_19
REMARK    7  A    between atoms: N_19  and  C_20
REMARK    8  A    between atoms: N_19  and  C_21
REMARK                            x       y       z     vdW  Elec       q    Type
REMARK                         _______ _______ _______ _____ _____    ______ ____
ROOT
ATOM      1  N   UNL     1       1.129   9.768  18.427  0.00  0.00    +0.000 N 
ATOM      2  C   UNL     1       1.446   8.883  19.450  0.00  0.00    +0.000 C 
ATOM      3  O   UNL     1       1.128   9.020  20.630  0.00  0.00    +0.000 OA
ATOM      4  H   UNL     1       1.254   9.510  17.457  0.00  0.00    +0.000 HD
ENDROOT
BRANCH   1  10
ATOM      5  C   UNL     1      -0.811  11.276  18.553  0.00  0.00    +0.000 A 
ATOM      6  C   UNL     1      -1.328  12.575  18.707  0.00  0.00    +0.000 A 
ATOM      7  C   UNL     1      -0.490  13.656  18.976  0.00  0.00    +0.000 A 
ATOM      8  C   UNL     1       0.878  13.456  19.072  0.00  0.00    +0.000 A 
ATOM      9  C   UNL     1       1.405  12.178  18.887  0.00  0.00    +0.000 A 
ATOM     10  C   UNL     1       0.582  11.071  18.633  0.00  0.00    +0.000 A 
BRANCH   5  12
ATOM     11  C   UNL     1      -2.167  10.097  17.015  0.00  0.00    +0.000 C 
ATOM     12  O   UNL     1      -1.607  10.174  18.328  0.00  0.00    +0.000 OA
ENDBRANCH   5  12
ENDBRANCH   1  10
BRANCH   2  13
ATOM     13  C   UNL     1       2.215   7.647  19.137  0.00  0.00    +0.000 A 
ATOM     14  C   UNL     1       2.996   7.677  17.963  0.00  0.00    +0.000 A 
ATOM     15  C   UNL     1       3.857   6.633  17.635  0.00  0.00    +0.000 A 
ATOM     16  C   UNL     1       3.955   5.548  18.503  0.00  0.00    +0.000 A 
ATOM     17  C   UNL     1       3.139   5.468  19.642  0.00  0.00    +0.000 A 
ATOM     18  C   UNL     1       2.271   6.522  19.966  0.00  0.00    +0.000 A 
BRANCH  16  19
ATOM     19  S   UNL     1       5.141   4.261  18.157  0.00  0.00    +0.000 S 
ATOM     20  O   UNL     1       5.561   3.718  19.432  0.00  0.00    +0.000 OA
ATOM     21  O   UNL     1       4.577   3.411  17.129  0.00  0.00    +0.000 OA
BRANCH  19  22
ATOM     22  N   UNL     1       6.451   5.124  17.487  0.00  0.00    +0.000 NA
ATOM     23  C   UNL     1       7.454   5.660  18.425  0.00  0.00    +0.000 C 
ATOM     24  C   UNL     1       7.049   4.563  16.263  0.00  0.00    +0.000 C 
ENDBRANCH  19  22
ENDBRANCH  16  19
ENDBRANCH   2  13
TORSDOF 5
ENDMDL
MODEL 8
REMARK VINA RESULT:      -6.8      2.635      8.351
REMARK  Name = 
REMARK  8 active torsions:
REMARK  status: ('A' for Active; 'I' for Inactive)
REMARK    1  A    between atoms: C_1  and  O_2
REMARK    2  A    between atoms: O_2  and  C_3
REMARK    3  A    between atoms: C_8  and  N_9
REMARK    4  A    between atoms: C_10  and  C_12
REMARK    5  A    between atoms: C_15  and  S_16
REMARK    6  A    between atoms: S_16  and  N_19
REMARK    7  A    between atoms: N_19  and  C_20
REMARK    8  A    between atoms: N_19  and  C_21
REMARK                            x       y       z     vdW  Elec       q    Type
REMARK                         _______ _______ _______ _____ _____    ______ ____
ROOT
ATOM      1  N   UNL     1       0.840   9.443  19.361  0.00  0.00    +0.000 N 
ATOM      2  C   UNL     1       1.742   9.318  18.310  0.00  0.00    +0.000 C 
ATOM      3  O   UNL     1       1.879  10.128  17.395  0.00  0.00    +0.000 OA
ATOM      4  H   UNL     1       0.904   8.847  20.175  0.00  0.00    +0.000 HD
ENDROOT
BRANCH   1  10
ATOM      5  C   UNL     1      -0.101  11.529  20.262  0.00  0.00    +0.000 A 
ATOM      6  C   UNL     1      -1.165  12.446  20.337  0.00  0.00    +0.000 A 
ATOM      7  C   UNL     1      -2.307  12.288  19.553  0.00  0.00    +0.000 A 
ATOM      8  C   UNL     1      -2.409  11.200  18.700  0.00  0.00    +0.000 A 
ATOM      9  C   UNL     1      -1.375  10.267  18.644  0.00  0.00    +0.000 A 
ATOM     10  C   UNL     1      -0.208  10.411  19.409  0.00  0.00    +0.000 A 
BRANCH   5  12
ATOM     11  C   UNL     1       1.810  12.853  20.698  0.00  0.00    +0.000 C 
ATOM     12  O   UNL     1       1.061  11.670  20.988  0.00  0.00    +0.000 OA
ENDBRANCH   5  12
ENDBRANCH   1  10
BRANCH   2  13
ATOM     13  C   UNL     1       2.648   8.138  18.258  0.00  0.00    +0.000 A 
ATOM     14  C   UNL     1       2.394   7.114  19.194  0.00  0.00    +0.000 A 
ATOM     15  C   UNL     1       3.088   5.907  19.158  0.00  0.00    +0.000 A 
ATOM     16  C   UNL     1       4.039   5.712  18.160  0.00  0.00    +0.000 A 
ATOM     17  C   UNL     1       4.353   6.743  17.259  0.00  0.00    +0.000 A 
ATOM     18  C   UNL     1       3.651   7.957  17.302  0.00  0.00    +0.000 A 
BRANCH  16  19
ATOM     19  S   UNL     1       4.851   4.128  18.028  0.00  0.00    +0.000 S 
ATOM     20  O   UNL     1       5.431   3.840  19.322  0.00  0.00    +0.000 OA
ATOM     21  O   UNL     1       3.921   3.211  17.402  0.00  0.00    +0.000 OA
BRANCH  19  22
ATOM     22  N   UNL     1       6.119   4.444  16.932  0.00  0.00    +0.000 NA
ATOM     23  C   UNL     1       7.485   4.509  17.484  0.00  0.00    +0.000 C 
ATOM     24  C   UNL     1       6.056   3.746  15.636  0.00  0.00    +0.000 C 
ENDBRANCH  19  22
ENDBRANCH  16  19
ENDBRANCH   2  13
TORSDOF 5
ENDMDL
MODEL 9
REMARK VINA RESULT:      -6.8      2.710      8.388
REMARK  Name = 
REMARK  8 active torsions:
REMARK  status: ('A' for Active; 'I' for Inactive)
REMARK    1  A    between atoms: C_1  and  O_2
REMARK    2  A    between atoms: O_2  and  C_3
REMARK    3  A    between atoms: C_8  and  N_9
REMARK    4  A    between atoms: C_10  and  C_12
REMARK    5  A    between atoms: C_15  and  S_16
REMARK    6  A    between atoms: S_16  and  N_19
REMARK    7  A    between atoms: N_19  and  C_20
REMARK    8  A    between atoms: N_19  and  C_21
REMARK                            x       y       z     vdW  Elec       q    Type
REMARK                         _______ _______ _______ _____ _____    ______ ____
ROOT
ATOM      1  N   UNL     1       0.972   9.445  19.741  0.00  0.00    +0.000 N 
ATOM      2  C   UNL     1       1.610   9.180  18.535  0.00  0.00    +0.000 C 
ATOM      3  O   UNL     1       1.483   9.841  17.506  0.00  0.00    +0.000 OA
ATOM      4  H   UNL     1       1.258   8.984  20.595  0.00  0.00    +0.000 HD
ENDROOT
BRANCH   1  10
ATOM      5  C   UNL     1      -0.365  10.939  21.166  0.00  0.00    +0.000 A 
ATOM      6  C   UNL     1      -1.447  11.825  21.314  0.00  0.00    +0.000 A 
ATOM      7  C   UNL     1      -2.229  12.194  20.220  0.00  0.00    +0.000 A 
ATOM      8  C   UNL     1      -1.952  11.666  18.969  0.00  0.00    +0.000 A 
ATOM      9  C   UNL     1      -0.902  10.761  18.818  0.00  0.00    +0.000 A 
ATOM     10  C   UNL     1      -0.090  10.386  19.898  0.00  0.00    +0.000 A 
BRANCH   5  12
ATOM     11  C   UNL     1      -0.131   9.686  23.159  0.00  0.00    +0.000 C 
ATOM     12  O   UNL     1       0.458  10.581  22.211  0.00  0.00    +0.000 OA
ENDBRANCH   5  12
ENDBRANCH   1  10
BRANCH   2  13
ATOM     13  C   UNL     1       2.546   8.026  18.440  0.00  0.00    +0.000 A 
ATOM     14  C   UNL     1       2.365   6.995  19.385  0.00  0.00    +0.000 A 
ATOM     15  C   UNL     1       3.090   5.808  19.315  0.00  0.00    +0.000 A 
ATOM     16  C   UNL     1       3.999   5.641  18.273  0.00  0.00    +0.000 A 
ATOM     17  C   UNL     1       4.241   6.679  17.361  0.00  0.00    +0.000 A 
ATOM     18  C   UNL     1       3.508   7.873  17.438  0.00  0.00    +0.000 A 
BRANCH  16  19
ATOM     19  S   UNL     1       4.848   4.080  18.102  0.00  0.00    +0.000 S 
ATOM     20  O   UNL     1       5.488   3.804  19.370  0.00  0.00    +0.000 OA
ATOM     21  O   UNL     1       3.920   3.139  17.510  0.00  0.00    +0.000 OA
BRANCH  19  22
ATOM     22  N   UNL     1       6.063   4.435  16.957  0.00  0.00    +0.000 NA
ATOM     23  C   UNL     1       7.445   4.552  17.457  0.00  0.00    +0.000 C 
ATOM     24  C   UNL     1       5.975   3.728  15.667  0.00  0.00    +0.000 C 
ENDBRANCH  19  22
ENDBRANCH  16  19
ENDBRANCH   2  13
TORSDOF 5
ENDMDL
