MODEL 1
REMARK VINA RESULT:      -7.4      0.000      0.000
REMARK  Name = 
REMARK  8 active torsions:
REMARK  status: ('A' for Active; 'I' for Inactive)
REMARK    1  A    between atoms: C_1  and  O_2
REMARK    2  A    between atoms: O_2  and  C_3
REMARK    3  A    between atoms: C_5  and  O_6
REMARK    4  A    between atoms: O_6  and  C_7
REMARK    5  A    between atoms: C_9  and  S_10
REMARK    6  A    between atoms: S_10  and  C_11
REMARK    7  A    between atoms: C_17  and  C_18
REMARK    8  A    between atoms: C_18  and  O_20
REMARK                            x       y       z     vdW  Elec       q    Type
REMARK                         _______ _______ _______ _____ _____    ______ ____
ROOT
ATOM      1  S   UNL     1       3.090   3.710  17.506  0.00  0.00    +0.000 S 
ENDROOT
BRANCH   1   2
ATOM      2  C   UNL     1       2.723   5.085  18.597  0.00  0.00    +0.000 A 
ATOM      3  C   UNL     1       2.877   6.396  18.105  0.00  0.00    +0.000 A 
ATOM      4  C   UNL     1       2.484   7.501  18.863  0.00  0.00    +0.000 A 
ATOM      5  C   UNL     1       1.918   7.305  20.113  0.00  0.00    +0.000 A 
ATOM      6  F   UNL     1       1.508   8.363  20.824  0.00  0.00    +0.000 F 
ATOM      7  C   UNL     1       1.761   6.027  20.628  0.00  0.00    +0.000 A 
ATOM      8  C   UNL     1       2.174   4.907  19.884  0.00  0.00    +0.000 A 
BRANCH   8   9
ATOM      9  C   UNL     1       1.942   3.591  20.540  0.00  0.00    +0.000 C 
ATOM     10  O   UNL     1       2.859   2.925  20.992  0.00  0.00    +0.000 OA
BRANCH   9  11
ATOM     11  O   UNL     1       0.674   3.137  20.487  0.00  0.00    +0.000 OA
ATOM     12  H   UNL     1       0.543   2.311  19.979  0.00  0.00    +0.000 HD
ENDBRANCH   9  11
ENDBRANCH   8   9
ENDBRANCH   1   2
BRANCH   1  17
ATOM     13  C   UNL     1       6.910   4.498  17.610  0.00  0.00    +0.000 A 
ATOM     14  C   UNL     1       7.285   4.644  16.301  0.00  0.00    +0.000 A 
ATOM     15  C   UNL     1       6.275   4.478  15.386  0.00  0.00    +0.000 A 
ATOM     16  N   UNL     1       5.005   4.174  15.708  0.00  0.00    +0.000 NA
ATOM     17  C   UNL     1       4.760   4.065  17.018  0.00  0.00    +0.000 A 
ATOM     18  N   UNL     1       5.659   4.212  17.996  0.00  0.00    +0.000 NA
BRANCH  13  20
ATOM     19  C   UNL     1       7.688   5.765  19.414  0.00  0.00    +0.000 C 
ATOM     20  O   UNL     1       7.894   4.633  18.568  0.00  0.00    +0.000 OA
ENDBRANCH  13  20
BRANCH  15  21
ATOM     21  O   UNL     1       6.624   4.628  14.056  0.00  0.00    +0.000 OA
ATOM     22  C   UNL     1       5.976   3.692  13.197  0.00  0.00    +0.000 C 
ENDBRANCH  15  21
ENDBRANCH   1  17
TORSDOF 6
ENDMDL
MODEL 2
REMARK VINA RESULT:      -7.1      2.543      3.615
REMARK  Name = 
REMARK  8 active torsions:
REMARK  status: ('A' for Active; 'I' for Inactive)
REMARK    1  A    between atoms: C_1  and  O_2
REMARK    2  A    between atoms: O_2  and  C_3
REMARK    3  A    between atoms: C_5  and  O_6
REMARK    4  A    between atoms: O_6  and  C_7
REMARK    5  A    between atoms: C_9  and  S_10
REMARK    6  A    between atoms: S_10  and  C_11
REMARK    7  A    between atoms: C_17  and  C_18
REMARK    8  A    between atoms: C_18  and  O_20
REMARK                            x       y       z     vdW  Elec       q    Type
REMARK                         _______ _______ _______ _____ _____    ______ ____
ROOT
ATOM      1  S   UNL     1       3.167   2.806  17.234  0.00  0.00    +0.000 S 
ENDROOT
BRANCH   1   2
ATOM      2  C   UNL     1       2.518   2.880  18.903  0.00  0.00    +0.000 A 
ATOM      3  C   UNL     1       1.132   3.065  19.080  0.00  0.00    +0.000 A 
ATOM      4  C   UNL     1       0.553   3.001  20.350  0.00  0.00    +0.000 A 
ATOM      5  C   UNL     1       1.350   2.735  21.451  0.00  0.00    +0.000 A 
ATOM      6  F   UNL     1       0.790   2.638  22.663  0.00  0.00    +0.000 F 
ATOM      7  C   UNL     1       2.719   2.556  21.310  0.00  0.00    +0.000 A 
ATOM      8  C   UNL     1       3.317   2.641  20.041  0.00  0.00    +0.000 A 
BRANCH   8   9
ATOM      9  C   UNL     1       4.789   2.419  20.019  0.00  0.00    +0.000 C 
ATOM     10  O   UNL     1       5.305   1.460  20.568  0.00  0.00    +0.000 OA
BRANCH   9  11
ATOM     11  O   UNL     1       5.512   3.411  19.462  0.00  0.00    +0.000 OA
ATOM     12  H   UNL     1       5.006   4.209  19.207  0.00  0.00    +0.000 HD
ENDBRANCH   9  11
ENDBRANCH   8   9
ENDBRANCH   1   2
BRANCH   1  17
ATOM     13  C   UNL     1       3.900   6.632  17.447  0.00  0.00    +0.000 A 
ATOM     14  C   UNL     1       5.097   6.808  16.805  0.00  0.00    +0.000 A 
ATOM     15  C   UNL     1       5.662   5.660  16.307  0.00  0.00    +0.000 A 
ATOM     16  N   UNL     1       5.124   4.434  16.435  0.00  0.00    +0.000 NA
ATOM     17  C   UNL     1       3.949   4.392  17.074  0.00  0.00    +0.000 A 
ATOM     18  N   UNL     1       3.304   5.441  17.594  0.00  0.00    +0.000 NA
BRANCH  13  20
ATOM     19  C   UNL     1       2.411   7.442  19.058  0.00  0.00    +0.000 C 
ATOM     20  O   UNL     1       3.301   7.753  17.986  0.00  0.00    +0.000 OA
ENDBRANCH  13  20
BRANCH  15  21
ATOM     21  O   UNL     1       6.868   5.809  15.647  0.00  0.00    +0.000 OA
ATOM     22  C   UNL     1       7.085   4.818  14.645  0.00  0.00    +0.000 C 
ENDBRANCH  15  21
ENDBRANCH   1  17
TORSDOF 6
ENDMDL
MODEL 3
REMARK VINA RESULT:      -7.1      0.519      2.605
REMARK  Name = 
REMARK  8 active torsions:
REMARK  status: ('A' for Active; 'I' for Inactive)
REMARK    1  A    between atoms: C_1  and  O_2
REMARK    2  A    between atoms: O_2  and  C_3
REMARK    3  A    between atoms: C_5  and  O_6
REMARK    4  A    between atoms: O_6  and  C_7
REMARK    5  A    between atoms: C_9  and  S_10
REMARK    6  A    between atoms: S_10  and  C_11
REMARK    7  A    between atoms: C_17  and  C_18
REMARK    8  A    between atoms: C_18  and  O_20
REMARK                            x       y       z     vdW  Elec       q    Type
REMARK                         _______ _______ _______ _____ _____    ______ ____
ROOT
ATOM      1  S   UNL     1       3.028   3.640  17.749  0.00  0.00    +0.000 S 
ENDROOT
BRANCH   1   2
ATOM      2  C   UNL     1       2.663   5.075  18.759  0.00  0.00    +0.000 A 
ATOM      3  C   UNL     1       2.850   6.356  18.203  0.00  0.00    +0.000 A 
ATOM      4  C   UNL     1       2.462   7.506  18.895  0.00  0.00    +0.000 A 
ATOM      5  C   UNL     1       1.866   7.385  20.140  0.00  0.00    +0.000 A 
ATOM      6  F   UNL     1       1.460   8.485  20.788  0.00  0.00    +0.000 F 
ATOM      7  C   UNL     1       1.676   6.138  20.718  0.00  0.00    +0.000 A 
ATOM      8  C   UNL     1       2.083   4.974  20.042  0.00  0.00    +0.000 A 
BRANCH   8   9
ATOM      9  C   UNL     1       1.814   3.698  20.759  0.00  0.00    +0.000 C 
ATOM     10  O   UNL     1       2.702   3.067  21.307  0.00  0.00    +0.000 OA
BRANCH   9  11
ATOM     11  O   UNL     1       0.554   3.233  20.652  0.00  0.00    +0.000 OA
ATOM     12  H   UNL     1       0.021   3.622  19.930  0.00  0.00    +0.000 HD
ENDBRANCH   9  11
ENDBRANCH   8   9
ENDBRANCH   1   2
BRANCH   1  17
ATOM     13  C   UNL     1       6.065   4.322  15.397  0.00  0.00    +0.000 A 
ATOM     14  C   UNL     1       7.128   4.543  16.232  0.00  0.00    +0.000 A 
ATOM     15  C   UNL     1       6.837   4.469  17.572  0.00  0.00    +0.000 A 
ATOM     16  N   UNL     1       5.611   4.223  18.068  0.00  0.00    +0.000 NA
ATOM     17  C   UNL     1       4.658   4.016  17.153  0.00  0.00    +0.000 A 
ATOM     18  N   UNL     1       4.824   4.056  15.827  0.00  0.00    +0.000 NA
BRANCH  13  20
ATOM     19  C   UNL     1       7.523   5.078  13.732  0.00  0.00    +0.000 C 
ATOM     20  O   UNL     1       6.300   4.407  14.039  0.00  0.00    +0.000 OA
ENDBRANCH  13  20
BRANCH  15  21
ATOM     21  O   UNL     1       7.894   4.680  18.439  0.00  0.00    +0.000 OA
ATOM     22  C   UNL     1       7.862   5.963  19.060  0.00  0.00    +0.000 C 
ENDBRANCH  15  21
ENDBRANCH   1  17
TORSDOF 6
ENDMDL
MODEL 4
REMARK VINA RESULT:      -7.1      2.552      4.060
REMARK  Name = 
REMARK  8 active torsions:
REMARK  status: ('A' for Active; 'I' for Inactive)
REMARK    1  A    between atoms: C_1  and  O_2
REMARK    2  A    between atoms: O_2  and  C_3
REMARK    3  A    between atoms: C_5  and  O_6
REMARK    4  A    between atoms: O_6  and  C_7
REMARK    5  A    between atoms: C_9  and  S_10
REMARK    6  A    between atoms: S_10  and  C_11
REMARK    7  A    between atoms: C_17  and  C_18
REMARK    8  A    between atoms: C_18  and  O_20
REMARK                            x       y       z     vdW  Elec       q    Type
REMARK                         _______ _______ _______ _____ _____    ______ ____
ROOT
ATOM      1  S   UNL     1       3.264   2.557  17.152  0.00  0.00    +0.000 S 
ENDROOT
BRANCH   1   2
ATOM      2  C   UNL     1       2.575   2.749  18.795  0.00  0.00    +0.000 A 
ATOM      3  C   UNL     1       1.182   2.920  18.927  0.00  0.00    +0.000 A 
ATOM      4  C   UNL     1       0.574   2.945  20.184  0.00  0.00    +0.000 A 
ATOM      5  C   UNL     1       1.351   2.782  21.320  0.00  0.00    +0.000 A 
ATOM      6  F   UNL     1       0.764   2.770  22.524  0.00  0.00    +0.000 F 
ATOM      7  C   UNL     1       2.725   2.621  21.224  0.00  0.00    +0.000 A 
ATOM      8  C   UNL     1       3.352   2.617  19.966  0.00  0.00    +0.000 A 
BRANCH   8   9
ATOM      9  C   UNL     1       4.828   2.424  19.994  0.00  0.00    +0.000 C 
ATOM     10  O   UNL     1       5.343   1.475  20.561  0.00  0.00    +0.000 OA
BRANCH   9  11
ATOM     11  O   UNL     1       5.549   3.429  19.460  0.00  0.00    +0.000 OA
ATOM     12  H   UNL     1       5.737   3.350  18.503  0.00  0.00    +0.000 HD
ENDBRANCH   9  11
ENDBRANCH   8   9
ENDBRANCH   1   2
BRANCH   1  17
ATOM     13  C   UNL     1       5.466   5.453  15.742  0.00  0.00    +0.000 A 
ATOM     14  C   UNL     1       5.085   6.570  16.438  0.00  0.00    +0.000 A 
ATOM     15  C   UNL     1       4.097   6.363  17.370  0.00  0.00    +0.000 A 
ATOM     16  N   UNL     1       3.509   5.176  17.598  0.00  0.00    +0.000 NA
ATOM     17  C   UNL     1       3.972   4.160  16.862  0.00  0.00    +0.000 A 
ATOM     18  N   UNL     1       4.931   4.240  15.934  0.00  0.00    +0.000 NA
BRANCH  13  20
ATOM     19  C   UNL     1       6.687   4.415  14.040  0.00  0.00    +0.000 C 
ATOM     20  O   UNL     1       6.441   5.612  14.778  0.00  0.00    +0.000 OA
ENDBRANCH  13  20
BRANCH  15  21
ATOM     21  O   UNL     1       3.698   7.473  18.093  0.00  0.00    +0.000 OA
ATOM     22  C   UNL     1       2.403   7.328  18.672  0.00  0.00    +0.000 C 
ENDBRANCH  15  21
ENDBRANCH   1  17
TORSDOF 6
ENDMDL
MODEL 5
REMARK VINA RESULT:      -7.1      2.351      3.804
REMARK  Name = 
REMARK  8 active torsions:
REMARK  status: ('A' for Active; 'I' for Inactive)
REMARK    1  A    between atoms: C_1  and  O_2
REMARK    2  A    between atoms: O_2  and  C_3
REMARK    3  A    between atoms: C_5  and  O_6
REMARK    4  A    between atoms: O_6  and  C_7
REMARK    5  A    between atoms: C_9  and  S_10
REMARK    6  A    between atoms: S_10  and  C_11
REMARK    7  A    between atoms: C_17  and  C_18
REMARK    8  A    between atoms: C_18  and  O_20
REMARK                            x       y       z     vdW  Elec       q    Type
REMARK                         _______ _______ _______ _____ _____    ______ ____
ROOT
ATOM      1  S   UNL     1       2.990   3.726  17.012  0.00  0.00    +0.000 S 
ENDROOT
BRANCH   1   2
ATOM      2  C   UNL     1       2.456   3.493  18.708  0.00  0.00    +0.000 A 
ATOM      3  C   UNL     1       1.388   4.275  19.192  0.00  0.00    +0.000 A 
ATOM      4  C   UNL     1       0.845   4.049  20.459  0.00  0.00    +0.000 A 
ATOM      5  C   UNL     1       1.353   3.028  21.246  0.00  0.00    +0.000 A 
ATOM      6  F   UNL     1       0.809   2.787  22.445  0.00  0.00    +0.000 F 
ATOM      7  C   UNL     1       2.409   2.246  20.801  0.00  0.00    +0.000 A 
ATOM      8  C   UNL     1       2.979   2.479  19.537  0.00  0.00    +0.000 A 
BRANCH   8   9
ATOM      9  C   UNL     1       4.097   1.567  19.169  0.00  0.00    +0.000 C 
ATOM     10  O   UNL     1       3.945   0.645  18.385  0.00  0.00    +0.000 OA
BRANCH   9  11
ATOM     11  O   UNL     1       5.243   1.756  19.853  0.00  0.00    +0.000 OA
ATOM     12  H   UNL     1       5.723   2.584  19.649  0.00  0.00    +0.000 HD
ENDBRANCH   9  11
ENDBRANCH   8   9
ENDBRANCH   1   2
BRANCH   1  17
ATOM     13  C   UNL     1       6.725   4.625  16.333  0.00  0.00    +0.000 A 
ATOM     14  C   UNL     1       7.227   5.027  17.543  0.00  0.00    +0.000 A 
ATOM     15  C   UNL     1       6.327   5.003  18.580  0.00  0.00    +0.000 A 
ATOM     16  N   UNL     1       5.039   4.640  18.456  0.00  0.00    +0.000 NA
ATOM     17  C   UNL     1       4.669   4.261  17.227  0.00  0.00    +0.000 A 
ATOM     18  N   UNL     1       5.456   4.236  16.147  0.00  0.00    +0.000 NA
BRANCH  13  20
ATOM     19  C   UNL     1       6.902   4.824  14.010  0.00  0.00    +0.000 C 
ATOM     20  O   UNL     1       7.584   4.651  15.253  0.00  0.00    +0.000 OA
ENDBRANCH  13  20
BRANCH  15  21
ATOM     21  O   UNL     1       6.809   5.397  19.816  0.00  0.00    +0.000 OA
ATOM     22  C   UNL     1       8.169   5.822  19.777  0.00  0.00    +0.000 C 
ENDBRANCH  15  21
ENDBRANCH   1  17
TORSDOF 6
ENDMDL
MODEL 6
REMARK VINA RESULT:      -6.9      2.221      3.839
REMARK  Name = 
REMARK  8 active torsions:
REMARK  status: ('A' for Active; 'I' for Inactive)
REMARK    1  A    between atoms: C_1  and  O_2
REMARK    2  A    between atoms: O_2  and  C_3
REMARK    3  A    between atoms: C_5  and  O_6
REMARK    4  A    between atoms: O_6  and  C_7
REMARK    5  A    between atoms: C_9  and  S_10
REMARK    6  A    between atoms: S_10  and  C_11
REMARK    7  A    between atoms: C_17  and  C_18
REMARK    8  A    between atoms: C_18  and  O_20
REMARK                            x       y       z     vdW  Elec       q    Type
REMARK                         _______ _______ _______ _____ _____    ______ ____
ROOT
ATOM      1  S   UNL     1       3.031   5.572  17.821  0.00  0.00    +0.000 S 
ENDROOT
BRANCH   1   2
ATOM      2  C   UNL     1       2.697   4.486  19.208  0.00  0.00    +0.000 A 
ATOM      3  C   UNL     1       2.389   5.062  20.456  0.00  0.00    +0.000 A 
ATOM      4  C   UNL     1       1.995   4.270  21.538  0.00  0.00    +0.000 A 
ATOM      5  C   UNL     1       1.889   2.898  21.376  0.00  0.00    +0.000 A 
ATOM      6  F   UNL     1       1.476   2.143  22.402  0.00  0.00    +0.000 F 
ATOM      7  C   UNL     1       2.194   2.300  20.162  0.00  0.00    +0.000 A 
ATOM      8  C   UNL     1       2.613   3.084  19.072  0.00  0.00    +0.000 A 
BRANCH   8   9
ATOM      9  C   UNL     1       2.899   2.328  17.822  0.00  0.00    +0.000 C 
ATOM     10  O   UNL     1       2.038   2.121  16.982  0.00  0.00    +0.000 OA
BRANCH   9  11
ATOM     11  O   UNL     1       4.132   1.788  17.745  0.00  0.00    +0.000 OA
ATOM     12  H   UNL     1       4.209   0.996  17.176  0.00  0.00    +0.000 HD
ENDBRANCH   9  11
ENDBRANCH   8   9
ENDBRANCH   1   2
BRANCH   1  17
ATOM     13  C   UNL     1       6.118   4.248  15.837  0.00  0.00    +0.000 A 
ATOM     14  C   UNL     1       7.175   4.349  16.703  0.00  0.00    +0.000 A 
ATOM     15  C   UNL     1       6.865   4.859  17.940  0.00  0.00    +0.000 A 
ATOM     16  N   UNL     1       5.635   5.259  18.306  0.00  0.00    +0.000 NA
ATOM     17  C   UNL     1       4.685   5.103  17.377  0.00  0.00    +0.000 A 
ATOM     18  N   UNL     1       4.867   4.614  16.147  0.00  0.00    +0.000 NA
BRANCH  13  20
ATOM     19  C   UNL     1       6.988   4.736  13.722  0.00  0.00    +0.000 C 
ATOM     20  O   UNL     1       6.382   3.762  14.572  0.00  0.00    +0.000 OA
ENDBRANCH  13  20
BRANCH  15  21
ATOM     21  O   UNL     1       7.912   4.964  18.837  0.00  0.00    +0.000 OA
ATOM     22  C   UNL     1       8.180   6.308  19.230  0.00  0.00    +0.000 C 
ENDBRANCH  15  21
ENDBRANCH   1  17
TORSDOF 6
ENDMDL
MODEL 7
REMARK VINA RESULT:      -6.9      2.188      2.766
REMARK  Name = 
REMARK  8 active torsions:
REMARK  status: ('A' for Active; 'I' for Inactive)
REMARK    1  A    between atoms: C_1  and  O_2
REMARK    2  A    between atoms: O_2  and  C_3
REMARK    3  A    between atoms: C_5  and  O_6
REMARK    4  A    between atoms: O_6  and  C_7
REMARK    5  A    between atoms: C_9  and  S_10
REMARK    6  A    between atoms: S_10  and  C_11
REMARK    7  A    between atoms: C_17  and  C_18
REMARK    8  A    between atoms: C_18  and  O_20
REMARK                            x       y       z     vdW  Elec       q    Type
REMARK                         _______ _______ _______ _____ _____    ______ ____
ROOT
ATOM      1  S   UNL     1       3.377   6.043  17.910  0.00  0.00    +0.000 S 
ENDROOT
BRANCH   1   2
ATOM      2  C   UNL     1       2.909   4.848  19.162  0.00  0.00    +0.000 A 
ATOM      3  C   UNL     1       2.568   5.315  20.446  0.00  0.00    +0.000 A 
ATOM      4  C   UNL     1       2.073   4.446  21.422  0.00  0.00    +0.000 A 
ATOM      5  C   UNL     1       1.899   3.106  21.116  0.00  0.00    +0.000 A 
ATOM      6  F   UNL     1       1.390   2.280  22.039  0.00  0.00    +0.000 F 
ATOM      7  C   UNL     1       2.233   2.614  19.863  0.00  0.00    +0.000 A 
ATOM      8  C   UNL     1       2.753   3.474  18.880  0.00  0.00    +0.000 A 
BRANCH   8   9
ATOM      9  C   UNL     1       3.062   2.830  17.574  0.00  0.00    +0.000 C 
ATOM     10  O   UNL     1       2.246   2.787  16.667  0.00  0.00    +0.000 OA
BRANCH   9  11
ATOM     11  O   UNL     1       4.249   2.195  17.511  0.00  0.00    +0.000 OA
ATOM     12  H   UNL     1       4.408   1.679  16.695  0.00  0.00    +0.000 HD
ENDBRANCH   9  11
ENDBRANCH   8   9
ENDBRANCH   1   2
BRANCH   1  17
ATOM     13  C   UNL     1       7.100   4.876  17.930  0.00  0.00    +0.000 A 
ATOM     14  C   UNL     1       7.385   4.554  16.630  0.00  0.00    +0.000 A 
ATOM     15  C   UNL     1       6.345   4.720  15.749  0.00  0.00    +0.000 A 
ATOM     16  N   UNL     1       5.117   5.144  16.100  0.00  0.00    +0.000 NA
ATOM     17  C   UNL     1       4.964   5.435  17.397  0.00  0.00    +0.000 A 
ATOM     18  N   UNL     1       5.903   5.319  18.340  0.00  0.00    +0.000 NA
BRANCH  13  20
ATOM     19  C   UNL     1       8.068   5.683  19.899  0.00  0.00    +0.000 C 
ATOM     20  O   UNL     1       8.107   4.706  18.859  0.00  0.00    +0.000 OA
ENDBRANCH  13  20
BRANCH  15  21
ATOM     21  O   UNL     1       6.607   4.410  14.427  0.00  0.00    +0.000 OA
ATOM     22  C   UNL     1       5.458   3.947  13.721  0.00  0.00    +0.000 C 
ENDBRANCH  15  21
ENDBRANCH   1  17
TORSDOF 6
ENDMDL
MODEL 8
REMARK VINA RESULT:      -6.8      2.741      4.035
REMARK  Name = 
REMARK  8 active torsions:
REMARK  status: ('A' for Active; 'I' for Inactive)
REMARK    1  A    between atoms: C_1  and  O_2
REMARK    2  A    between atoms: O_2  and  C_3
REMARK    3  A    between atoms: C_5  and  O_6
REMARK    4  A    between atoms: O_6  and  C_7
REMARK    5  A    between atoms: C_9  and  S_10
REMARK    6  A    between atoms: S_10  and  C_11
REMARK    7  A    between atoms: C_17  and  C_18
REMARK    8  A    between atoms: C_18  and  O_20
REMARK                            x       y       z     vdW  Elec       q    Type
REMARK                         _______ _______ _______ _____ _____    ______ ____
ROOT
ATOM      1  S   UNL     1       3.222   3.293  17.279  0.00  0.00    +0.000 S 
ENDROOT
BRANCH   1   2
ATOM      2  C   UNL     1       2.552   3.178  18.938  0.00  0.00    +0.000 A 
ATOM      3  C   UNL     1       1.176   3.414  19.128  0.00  0.00    +0.000 A 
ATOM      4  C   UNL     1       0.575   3.213  20.372  0.00  0.00    +0.000 A 
ATOM      5  C   UNL     1       1.341   2.758  21.434  0.00  0.00    +0.000 A 
ATOM      6  F   UNL     1       0.758   2.530  22.618  0.00  0.00    +0.000 F 
ATOM      7  C   UNL     1       2.699   2.525  21.281  0.00  0.00    +0.000 A 
ATOM      8  C   UNL     1       3.321   2.745  20.039  0.00  0.00    +0.000 A 
BRANCH   8   9
ATOM      9  C   UNL     1       4.779   2.448  19.999  0.00  0.00    +0.000 C 
ATOM     10  O   UNL     1       5.246   1.440  20.503  0.00  0.00    +0.000 OA
BRANCH   9  11
ATOM     11  O   UNL     1       5.551   3.424  19.481  0.00  0.00    +0.000 OA
ATOM     12  H   UNL     1       5.088   4.260  19.272  0.00  0.00    +0.000 HD
ENDBRANCH   9  11
ENDBRANCH   8   9
ENDBRANCH   1   2
BRANCH   1  17
ATOM     13  C   UNL     1       5.704   6.288  16.979  0.00  0.00    +0.000 A 
ATOM     14  C   UNL     1       4.970   7.400  17.299  0.00  0.00    +0.000 A 
ATOM     15  C   UNL     1       3.655   7.158  17.609  0.00  0.00    +0.000 A 
ATOM     16  N   UNL     1       3.086   5.939  17.592  0.00  0.00    +0.000 NA
ATOM     17  C   UNL     1       3.906   4.932  17.273  0.00  0.00    +0.000 A 
ATOM     18  N   UNL     1       5.200   5.047  16.960  0.00  0.00    +0.000 NA
BRANCH  13  20
ATOM     19  C   UNL     1       7.658   7.492  17.425  0.00  0.00    +0.000 C 
ATOM     20  O   UNL     1       7.027   6.482  16.637  0.00  0.00    +0.000 OA
ENDBRANCH  13  20
BRANCH  15  21
ATOM     21  O   UNL     1       2.892   8.262  17.944  0.00  0.00    +0.000 OA
ATOM     22  C   UNL     1       2.063   8.045  19.084  0.00  0.00    +0.000 C 
ENDBRANCH  15  21
ENDBRANCH   1  17
TORSDOF 6
ENDMDL
MODEL 9
REMARK VINA RESULT:      -6.7      2.272      3.842
REMARK  Name = 
REMARK  8 active torsions:
REMARK  status: ('A' for Active; 'I' for Inactive)
REMARK    1  A    between atoms: C_1  and  O_2
REMARK    2  A    between atoms: O_2  and  C_3
REMARK    3  A    between atoms: C_5  and  O_6
REMARK    4  A    between atoms: O_6  and  C_7
REMARK    5  A    between atoms: C_9  and  S_10
REMARK    6  A    between atoms: S_10  and  C_11
REMARK    7  A    between atoms: C_17  and  C_18
REMARK    8  A    between atoms: C_18  and  O_20
REMARK                            x       y       z     vdW  Elec       q    Type
REMARK                         _______ _______ _______ _____ _____    ______ ____
ROOT
ATOM      1  S   UNL     1       3.266   6.414  18.428  0.00  0.00    +0.000 S 
ENDROOT
BRANCH   1   2
ATOM      2  C   UNL     1       2.632   5.082  19.447  0.00  0.00    +0.000 A 
ATOM      3  C   UNL     1       2.812   5.156  20.842  0.00  0.00    +0.000 A 
ATOM      4  C   UNL     1       2.229   4.216  21.696  0.00  0.00    +0.000 A 
ATOM      5  C   UNL     1       1.445   3.205  21.163  0.00  0.00    +0.000 A 
ATOM      6  F   UNL     1       0.855   2.326  21.983  0.00  0.00    +0.000 F 
ATOM      7  C   UNL     1       1.255   3.101  19.793  0.00  0.00    +0.000 A 
ATOM      8  C   UNL     1       1.856   4.027  18.922  0.00  0.00    +0.000 A 
BRANCH   8   9
ATOM      9  C   UNL     1       1.567   3.816  17.477  0.00  0.00    +0.000 C 
ATOM     10  O   UNL     1       0.624   4.356  16.922  0.00  0.00    +0.000 OA
BRANCH   9  11
ATOM     11  O   UNL     1       2.341   2.899  16.863  0.00  0.00    +0.000 OA
ATOM     12  H   UNL     1       3.208   3.224  16.547  0.00  0.00    +0.000 HD
ENDBRANCH   9  11
ENDBRANCH   8   9
ENDBRANCH   1   2
BRANCH   1  17
ATOM     13  C   UNL     1       5.626   4.637  15.880  0.00  0.00    +0.000 A 
ATOM     14  C   UNL     1       6.813   4.469  16.541  0.00  0.00    +0.000 A 
ATOM     15  C   UNL     1       6.833   4.948  17.828  0.00  0.00    +0.000 A 
ATOM     16  N   UNL     1       5.794   5.559  18.424  0.00  0.00    +0.000 NA
ATOM     17  C   UNL     1       4.687   5.656  17.679  0.00  0.00    +0.000 A 
ATOM     18  N   UNL     1       4.549   5.222  16.422  0.00  0.00    +0.000 NA
BRANCH  13  20
ATOM     19  C   UNL     1       6.773   4.420  13.854  0.00  0.00    +0.000 C 
ATOM     20  O   UNL     1       5.562   4.192  14.574  0.00  0.00    +0.000 OA
ENDBRANCH  13  20
BRANCH  15  21
ATOM     21  O   UNL     1       8.017   4.784  18.523  0.00  0.00    +0.000 OA
ATOM     22  C   UNL     1       8.121   5.636  19.662  0.00  0.00    +0.000 C 
ENDBRANCH  15  21
ENDBRANCH   1  17
TORSDOF 6
ENDMDL
