MODEL 1
REMARK VINA RESULT:      -8.1      0.000      0.000
REMARK  Name = 
REMARK  1 active torsions:
REMARK  status: ('A' for Active; 'I' for Inactive)
REMARK    1  A    between atoms: N_15  and  C_16
REMARK                            x       y       z     vdW  Elec       q    Type
REMARK                         _______ _______ _______ _____ _____    ______ ____
ROOT
ATOM      1  O   UNL     1       2.690   8.415  17.712  0.00  0.00    +0.000 OA
ATOM      2  C   UNL     1       2.294   7.923  18.763  0.00  0.00    +0.000 A 
ATOM      3  C   UNL     1       1.514   8.652  19.726  0.00  0.00    +0.000 A 
ATOM      4  O   UNL     1       1.127   9.949  19.589  0.00  0.00    +0.000 OA
ATOM      5  C   UNL     1       0.413  10.255  20.719  0.00  0.00    +0.000 A 
ATOM      6  C   UNL     1      -0.178  11.484  20.998  0.00  0.00    +0.000 A 
ATOM      7  C   UNL     1      -0.857  11.591  22.218  0.00  0.00    +0.000 A 
ATOM      8  C   UNL     1      -0.928  10.514  23.105  0.00  0.00    +0.000 A 
ATOM      9  C   UNL     1      -0.329   9.285  22.800  0.00  0.00    +0.000 A 
ATOM     10  C   UNL     1       0.354   9.154  21.575  0.00  0.00    +0.000 A 
ATOM     11  C   UNL     1       1.056   8.136  20.906  0.00  0.00    +0.000 A 
ATOM     12  N   UNL     1       1.335   6.839  21.228  0.00  0.00    +0.000 N 
ATOM     13  C   UNL     1       2.089   6.020  20.409  0.00  0.00    +0.000 A 
ATOM     14  S   UNL     1       2.433   4.503  21.050  0.00  0.00    +0.000 S 
ATOM     15  N   UNL     1       2.533   6.569  19.173  0.00  0.00    +0.000 N 
ATOM     16  H   UNL     1       1.028   6.469  22.122  0.00  0.00    +0.000 HD
ENDROOT
BRANCH  15  17
ATOM     17  C   UNL     1       3.284   5.757  18.251  0.00  0.00    +0.000 A 
ATOM     18  C   UNL     1       2.691   4.634  17.653  0.00  0.00    +0.000 A 
ATOM     19  C   UNL     1       3.449   3.776  16.848  0.00  0.00    +0.000 A 
ATOM     20  C   UNL     1       4.792   4.050  16.633  0.00  0.00    +0.000 A 
ATOM     21  F   UNL     1       5.529   3.203  15.899  0.00  0.00    +0.000 F 
ATOM     22  C   UNL     1       5.386   5.183  17.173  0.00  0.00    +0.000 A 
ATOM     23  C   UNL     1       4.632   6.043  17.980  0.00  0.00    +0.000 A 
ENDBRANCH  15  17
TORSDOF 1
ENDMDL
MODEL 2
REMARK VINA RESULT:      -8.0      0.349      1.068
REMARK  Name = 
REMARK  1 active torsions:
REMARK  status: ('A' for Active; 'I' for Inactive)
REMARK    1  A    between atoms: N_15  and  C_16
REMARK                            x       y       z     vdW  Elec       q    Type
REMARK                         _______ _______ _______ _____ _____    ______ ____
ROOT
ATOM      1  O   UNL     1       2.977   8.061  17.818  0.00  0.00    +0.000 OA
ATOM      2  C   UNL     1       2.502   7.615  18.856  0.00  0.00    +0.000 A 
ATOM      3  C   UNL     1       1.689   8.397  19.748  0.00  0.00    +0.000 A 
ATOM      4  O   UNL     1       1.354   9.700  19.550  0.00  0.00    +0.000 OA
ATOM      5  C   UNL     1       0.585  10.063  20.625  0.00  0.00    +0.000 A 
ATOM      6  C   UNL     1       0.019  11.318  20.832  0.00  0.00    +0.000 A 
ATOM      7  C   UNL     1      -0.729  11.484  22.005  0.00  0.00    +0.000 A 
ATOM      8  C   UNL     1      -0.890  10.436  22.916  0.00  0.00    +0.000 A 
ATOM      9  C   UNL     1      -0.314   9.180  22.683  0.00  0.00    +0.000 A 
ATOM     10  C   UNL     1       0.437   8.991  21.507  0.00  0.00    +0.000 A 
ATOM     11  C   UNL     1       1.144   7.931  20.911  0.00  0.00    +0.000 A 
ATOM     12  N   UNL     1       1.360   6.637  21.287  0.00  0.00    +0.000 N 
ATOM     13  C   UNL     1       2.134   5.770  20.539  0.00  0.00    +0.000 A 
ATOM     14  S   UNL     1       2.389   4.263  21.243  0.00  0.00    +0.000 S 
ATOM     15  N   UNL     1       2.670   6.266  19.318  0.00  0.00    +0.000 N 
ATOM     16  H   UNL     1       0.988   6.304  22.171  0.00  0.00    +0.000 HD
ENDROOT
BRANCH  15  17
ATOM     17  C   UNL     1       3.448   5.404  18.467  0.00  0.00    +0.000 A 
ATOM     18  C   UNL     1       4.849   5.490  18.464  0.00  0.00    +0.000 A 
ATOM     19  C   UNL     1       5.604   4.738  17.557  0.00  0.00    +0.000 A 
ATOM     20  C   UNL     1       4.958   3.895  16.664  0.00  0.00    +0.000 A 
ATOM     21  F   UNL     1       5.678   3.209  15.764  0.00  0.00    +0.000 F 
ATOM     22  C   UNL     1       3.576   3.757  16.683  0.00  0.00    +0.000 A 
ATOM     23  C   UNL     1       2.818   4.508  17.588  0.00  0.00    +0.000 A 
ENDBRANCH  15  17
TORSDOF 1
ENDMDL
MODEL 3
REMARK VINA RESULT:      -7.8      3.566      6.862
REMARK  Name = 
REMARK  1 active torsions:
REMARK  status: ('A' for Active; 'I' for Inactive)
REMARK    1  A    between atoms: N_15  and  C_16
REMARK                            x       y       z     vdW  Elec       q    Type
REMARK                         _______ _______ _______ _____ _____    ______ ____
ROOT
ATOM      1  O   UNL     1       2.027   9.452  17.300  0.00  0.00    +0.000 OA
ATOM      2  C   UNL     1       1.848   8.911  18.385  0.00  0.00    +0.000 A 
ATOM      3  C   UNL     1       2.295   7.577  18.681  0.00  0.00    +0.000 A 
ATOM      4  O   UNL     1       2.960   6.771  17.810  0.00  0.00    +0.000 OA
ATOM      5  C   UNL     1       3.193   5.597  18.480  0.00  0.00    +0.000 A 
ATOM      6  C   UNL     1       3.855   4.486  17.964  0.00  0.00    +0.000 A 
ATOM      7  C   UNL     1       3.980   3.380  18.815  0.00  0.00    +0.000 A 
ATOM      8  C   UNL     1       3.460   3.401  20.111  0.00  0.00    +0.000 A 
ATOM      9  C   UNL     1       2.802   4.533  20.610  0.00  0.00    +0.000 A 
ATOM     10  C   UNL     1       2.671   5.658  19.773  0.00  0.00    +0.000 A 
ATOM     11  C   UNL     1       2.113   6.945  19.878  0.00  0.00    +0.000 A 
ATOM     12  N   UNL     1       1.469   7.593  20.892  0.00  0.00    +0.000 N 
ATOM     13  C   UNL     1       0.968   8.873  20.750  0.00  0.00    +0.000 A 
ATOM     14  S   UNL     1       0.090   9.439  22.069  0.00  0.00    +0.000 S 
ATOM     15  N   UNL     1       1.192   9.524  19.505  0.00  0.00    +0.000 N 
ATOM     16  H   UNL     1       1.300   7.108  21.768  0.00  0.00    +0.000 HD
ENDROOT
BRANCH  15  17
ATOM     17  C   UNL     1       0.737  10.875  19.303  0.00  0.00    +0.000 A 
ATOM     18  C   UNL     1      -0.518  11.120  18.725  0.00  0.00    +0.000 A 
ATOM     19  C   UNL     1      -0.916  12.427  18.420  0.00  0.00    +0.000 A 
ATOM     20  C   UNL     1      -0.064  13.484  18.705  0.00  0.00    +0.000 A 
ATOM     21  F   UNL     1      -0.425  14.732  18.372  0.00  0.00    +0.000 F 
ATOM     22  C   UNL     1       1.161  13.269  19.324  0.00  0.00    +0.000 A 
ATOM     23  C   UNL     1       1.562  11.963  19.629  0.00  0.00    +0.000 A 
ENDBRANCH  15  17
TORSDOF 1
ENDMDL
MODEL 4
REMARK VINA RESULT:      -7.7      3.528      7.054
REMARK  Name = 
REMARK  1 active torsions:
REMARK  status: ('A' for Active; 'I' for Inactive)
REMARK    1  A    between atoms: N_15  and  C_16
REMARK                            x       y       z     vdW  Elec       q    Type
REMARK                         _______ _______ _______ _____ _____    ______ ____
ROOT
ATOM      1  O   UNL     1       1.991   9.580  17.369  0.00  0.00    +0.000 OA
ATOM      2  C   UNL     1       1.859   8.950  18.413  0.00  0.00    +0.000 A 
ATOM      3  C   UNL     1       2.398   7.632  18.608  0.00  0.00    +0.000 A 
ATOM      4  O   UNL     1       3.110   6.939  17.678  0.00  0.00    +0.000 OA
ATOM      5  C   UNL     1       3.428   5.739  18.259  0.00  0.00    +0.000 A 
ATOM      6  C   UNL     1       4.160   4.716  17.661  0.00  0.00    +0.000 A 
ATOM      7  C   UNL     1       4.367   3.562  18.427  0.00  0.00    +0.000 A 
ATOM      8  C   UNL     1       3.858   3.452  19.724  0.00  0.00    +0.000 A 
ATOM      9  C   UNL     1       3.128   4.497  20.306  0.00  0.00    +0.000 A 
ATOM     10  C   UNL     1       2.913   5.668  19.555  0.00  0.00    +0.000 A 
ATOM     11  C   UNL     1       2.270   6.903  19.757  0.00  0.00    +0.000 A 
ATOM     12  N   UNL     1       1.591   7.429  20.817  0.00  0.00    +0.000 N 
ATOM     13  C   UNL     1       1.003   8.679  20.772  0.00  0.00    +0.000 A 
ATOM     14  S   UNL     1       0.099   9.085  22.131  0.00  0.00    +0.000 S 
ATOM     15  N   UNL     1       1.171   9.433  19.576  0.00  0.00    +0.000 N 
ATOM     16  H   UNL     1       1.463   6.870  21.655  0.00  0.00    +0.000 HD
ENDROOT
BRANCH  15  17
ATOM     17  C   UNL     1       0.624  10.760  19.477  0.00  0.00    +0.000 A 
ATOM     18  C   UNL     1       1.349  11.862  19.956  0.00  0.00    +0.000 A 
ATOM     19  C   UNL     1       0.776  13.139  19.968  0.00  0.00    +0.000 A 
ATOM     20  C   UNL     1      -0.516  13.312  19.491  0.00  0.00    +0.000 A 
ATOM     21  F   UNL     1      -1.083  14.526  19.545  0.00  0.00    +0.000 F 
ATOM     22  C   UNL     1      -1.233  12.244  18.966  0.00  0.00    +0.000 A 
ATOM     23  C   UNL     1      -0.663  10.967  18.953  0.00  0.00    +0.000 A 
ENDBRANCH  15  17
TORSDOF 1
ENDMDL
MODEL 5
REMARK VINA RESULT:      -7.4      5.071      8.855
REMARK  Name = 
REMARK  1 active torsions:
REMARK  status: ('A' for Active; 'I' for Inactive)
REMARK    1  A    between atoms: N_15  and  C_16
REMARK                            x       y       z     vdW  Elec       q    Type
REMARK                         _______ _______ _______ _____ _____    ______ ____
ROOT
ATOM      1  O   UNL     1      -0.443  10.223  23.517  0.00  0.00    +0.000 OA
ATOM      2  C   UNL     1      -0.340  10.609  22.358  0.00  0.00    +0.000 A 
ATOM      3  C   UNL     1       0.340   9.857  21.339  0.00  0.00    +0.000 A 
ATOM      4  O   UNL     1       0.937   8.650  21.533  0.00  0.00    +0.000 OA
ATOM      5  C   UNL     1       1.466   8.288  20.321  0.00  0.00    +0.000 A 
ATOM      6  C   UNL     1       2.166   7.113  20.059  0.00  0.00    +0.000 A 
ATOM      7  C   UNL     1       2.632   6.938  18.750  0.00  0.00    +0.000 A 
ATOM      8  C   UNL     1       2.403   7.903  17.765  0.00  0.00    +0.000 A 
ATOM      9  C   UNL     1       1.692   9.075  18.051  0.00  0.00    +0.000 A 
ATOM     10  C   UNL     1       1.210   9.268  19.360  0.00  0.00    +0.000 A 
ATOM     11  C   UNL     1       0.474  10.256  20.038  0.00  0.00    +0.000 A 
ATOM     12  N   UNL     1      -0.066  11.445  19.639  0.00  0.00    +0.000 N 
ATOM     13  C   UNL     1      -0.733  12.283  20.511  0.00  0.00    +0.000 A 
ATOM     14  S   UNL     1      -1.202  13.759  19.853  0.00  0.00    +0.000 S 
ATOM     15  N   UNL     1      -0.885  11.837  21.854  0.00  0.00    +0.000 N 
ATOM     16  H   UNL     1       0.069  11.758  18.682  0.00  0.00    +0.000 HD
ENDROOT
BRANCH  15  17
ATOM     17  C   UNL     1      -1.609  12.639  22.804  0.00  0.00    +0.000 A 
ATOM     18  C   UNL     1      -2.948  12.344  23.104  0.00  0.00    +0.000 A 
ATOM     19  C   UNL     1      -3.692  13.187  23.937  0.00  0.00    +0.000 A 
ATOM     20  C   UNL     1      -3.092  14.316  24.477  0.00  0.00    +0.000 A 
ATOM     21  F   UNL     1      -3.817  15.149  25.237  0.00  0.00    +0.000 F 
ATOM     22  C   UNL     1      -1.754  14.600  24.234  0.00  0.00    +0.000 A 
ATOM     23  C   UNL     1      -1.008  13.759  23.400  0.00  0.00    +0.000 A 
ENDBRANCH  15  17
TORSDOF 1
ENDMDL
MODEL 6
REMARK VINA RESULT:      -7.3      4.976      8.807
REMARK  Name = 
REMARK  1 active torsions:
REMARK  status: ('A' for Active; 'I' for Inactive)
REMARK    1  A    between atoms: N_15  and  C_16
REMARK                            x       y       z     vdW  Elec       q    Type
REMARK                         _______ _______ _______ _____ _____    ______ ____
ROOT
ATOM      1  O   UNL     1      -0.422  10.231  23.431  0.00  0.00    +0.000 OA
ATOM      2  C   UNL     1      -0.272  10.564  22.261  0.00  0.00    +0.000 A 
ATOM      3  C   UNL     1       0.421   9.754  21.297  0.00  0.00    +0.000 A 
ATOM      4  O   UNL     1       0.982   8.543  21.561  0.00  0.00    +0.000 OA
ATOM      5  C   UNL     1       1.541   8.117  20.383  0.00  0.00    +0.000 A 
ATOM      6  C   UNL     1       2.220   6.917  20.194  0.00  0.00    +0.000 A 
ATOM      7  C   UNL     1       2.723   6.676  18.909  0.00  0.00    +0.000 A 
ATOM      8  C   UNL     1       2.549   7.602  17.877  0.00  0.00    +0.000 A 
ATOM      9  C   UNL     1       1.857   8.802  18.091  0.00  0.00    +0.000 A 
ATOM     10  C   UNL     1       1.338   9.061  19.374  0.00  0.00    +0.000 A 
ATOM     11  C   UNL     1       0.605  10.094  19.986  0.00  0.00    +0.000 A 
ATOM     12  N   UNL     1       0.107  11.276  19.519  0.00  0.00    +0.000 N 
ATOM     13  C   UNL     1      -0.568  12.166  20.333  0.00  0.00    +0.000 A 
ATOM     14  S   UNL     1      -0.980  13.623  19.599  0.00  0.00    +0.000 S 
ATOM     15  N   UNL     1      -0.772  11.781  21.688  0.00  0.00    +0.000 N 
ATOM     16  H   UNL     1       0.279  11.544  18.555  0.00  0.00    +0.000 HD
ENDROOT
BRANCH  15  17
ATOM     17  C   UNL     1      -1.507  12.639  22.579  0.00  0.00    +0.000 A 
ATOM     18  C   UNL     1      -0.883  13.753  23.164  0.00  0.00    +0.000 A 
ATOM     19  C   UNL     1      -1.555  14.523  24.119  0.00  0.00    +0.000 A 
ATOM     20  C   UNL     1      -2.852  14.185  24.480  0.00  0.00    +0.000 A 
ATOM     21  F   UNL     1      -3.479  14.895  25.429  0.00  0.00    +0.000 F 
ATOM     22  C   UNL     1      -3.506  13.118  23.878  0.00  0.00    +0.000 A 
ATOM     23  C   UNL     1      -2.837  12.345  22.922  0.00  0.00    +0.000 A 
ENDBRANCH  15  17
TORSDOF 1
ENDMDL
MODEL 7
REMARK VINA RESULT:      -7.2      1.397      2.153
REMARK  Name = 
REMARK  1 active torsions:
REMARK  status: ('A' for Active; 'I' for Inactive)
REMARK    1  A    between atoms: N_15  and  C_16
REMARK                            x       y       z     vdW  Elec       q    Type
REMARK                         _______ _______ _______ _____ _____    ______ ____
ROOT
ATOM      1  O   UNL     1       3.654   7.982  16.597  0.00  0.00    +0.000 OA
ATOM      2  C   UNL     1       3.388   7.416  17.652  0.00  0.00    +0.000 A 
ATOM      3  C   UNL     1       2.486   7.960  18.630  0.00  0.00    +0.000 A 
ATOM      4  O   UNL     1       1.830   9.145  18.505  0.00  0.00    +0.000 OA
ATOM      5  C   UNL     1       1.086   9.290  19.648  0.00  0.00    +0.000 A 
ATOM      6  C   UNL     1       0.252  10.365  19.942  0.00  0.00    +0.000 A 
ATOM      7  C   UNL     1      -0.416  10.323  21.173  0.00  0.00    +0.000 A 
ATOM      8  C   UNL     1      -0.243   9.253  22.055  0.00  0.00    +0.000 A 
ATOM      9  C   UNL     1       0.599   8.180  21.734  0.00  0.00    +0.000 A 
ATOM     10  C   UNL     1       1.275   8.200  20.499  0.00  0.00    +0.000 A 
ATOM     11  C   UNL     1       2.167   7.356  19.813  0.00  0.00    +0.000 A 
ATOM     12  N   UNL     1       2.720   6.147  20.124  0.00  0.00    +0.000 N 
ATOM     13  C   UNL     1       3.618   5.509  19.289  0.00  0.00    +0.000 A 
ATOM     14  S   UNL     1       4.287   4.098  19.917  0.00  0.00    +0.000 S 
ATOM     15  N   UNL     1       3.916   6.142  18.050  0.00  0.00    +0.000 N 
ATOM     16  H   UNL     1       2.513   5.719  21.021  0.00  0.00    +0.000 HD
ENDROOT
BRANCH  15  17
ATOM     17  C   UNL     1       4.807   5.511  17.112  0.00  0.00    +0.000 A 
ATOM     18  C   UNL     1       6.149   5.913  17.031  0.00  0.00    +0.000 A 
ATOM     19  C   UNL     1       6.990   5.387  16.044  0.00  0.00    +0.000 A 
ATOM     20  C   UNL     1       6.490   4.450  15.149  0.00  0.00    +0.000 A 
ATOM     21  F   UNL     1       7.282   3.980  14.175  0.00  0.00    +0.000 F 
ATOM     22  C   UNL     1       5.179   4.000  15.244  0.00  0.00    +0.000 A 
ATOM     23  C   UNL     1       4.336   4.526  16.229  0.00  0.00    +0.000 A 
ENDBRANCH  15  17
TORSDOF 1
ENDMDL
MODEL 8
REMARK VINA RESULT:      -7.2      4.856      8.322
REMARK  Name = 
REMARK  1 active torsions:
REMARK  status: ('A' for Active; 'I' for Inactive)
REMARK    1  A    between atoms: N_15  and  C_16
REMARK                            x       y       z     vdW  Elec       q    Type
REMARK                         _______ _______ _______ _____ _____    ______ ____
ROOT
ATOM      1  O   UNL     1       3.268   3.048  16.749  0.00  0.00    +0.000 OA
ATOM      2  C   UNL     1       4.307   3.693  16.839  0.00  0.00    +0.000 A 
ATOM      3  C   UNL     1       5.141   3.999  15.709  0.00  0.00    +0.000 A 
ATOM      4  O   UNL     1       4.883   3.620  14.429  0.00  0.00    +0.000 OA
ATOM      5  C   UNL     1       5.919   4.105  13.672  0.00  0.00    +0.000 A 
ATOM      6  C   UNL     1       6.059   3.953  12.295  0.00  0.00    +0.000 A 
ATOM      7  C   UNL     1       7.200   4.521  11.714  0.00  0.00    +0.000 A 
ATOM      8  C   UNL     1       8.145   5.201  12.487  0.00  0.00    +0.000 A 
ATOM      9  C   UNL     1       7.979   5.346  13.871  0.00  0.00    +0.000 A 
ATOM     10  C   UNL     1       6.836   4.787  14.474  0.00  0.00    +0.000 A 
ATOM     11  C   UNL     1       6.304   4.715  15.774  0.00  0.00    +0.000 A 
ATOM     12  N   UNL     1       6.735   5.193  16.978  0.00  0.00    +0.000 N 
ATOM     13  C   UNL     1       6.047   4.964  18.153  0.00  0.00    +0.000 A 
ATOM     14  S   UNL     1       6.815   5.521  19.543  0.00  0.00    +0.000 S 
ATOM     15  N   UNL     1       4.825   4.240  18.060  0.00  0.00    +0.000 N 
ATOM     16  H   UNL     1       7.619   5.691  17.030  0.00  0.00    +0.000 HD
ENDROOT
BRANCH  15  17
ATOM     17  C   UNL     1       4.033   4.005  19.239  0.00  0.00    +0.000 A 
ATOM     18  C   UNL     1       4.127   2.782  19.922  0.00  0.00    +0.000 A 
ATOM     19  C   UNL     1       3.277   2.503  20.998  0.00  0.00    +0.000 A 
ATOM     20  C   UNL     1       2.344   3.451  21.396  0.00  0.00    +0.000 A 
ATOM     21  F   UNL     1       1.499   3.165  22.397  0.00  0.00    +0.000 F 
ATOM     22  C   UNL     1       2.268   4.687  20.766  0.00  0.00    +0.000 A 
ATOM     23  C   UNL     1       3.116   4.969  19.689  0.00  0.00    +0.000 A 
ENDBRANCH  15  17
TORSDOF 1
ENDMDL
MODEL 9
REMARK VINA RESULT:      -7.0      3.513      7.450
REMARK  Name = 
REMARK  1 active torsions:
REMARK  status: ('A' for Active; 'I' for Inactive)
REMARK    1  A    between atoms: N_15  and  C_16
REMARK                            x       y       z     vdW  Elec       q    Type
REMARK                         _______ _______ _______ _____ _____    ______ ____
ROOT
ATOM      1  O   UNL     1       1.720   6.300  20.825  0.00  0.00    +0.000 OA
ATOM      2  C   UNL     1       2.114   6.969  19.876  0.00  0.00    +0.000 A 
ATOM      3  C   UNL     1       2.958   6.440  18.839  0.00  0.00    +0.000 A 
ATOM      4  O   UNL     1       3.411   5.159  18.786  0.00  0.00    +0.000 OA
ATOM      5  C   UNL     1       4.180   5.073  17.654  0.00  0.00    +0.000 A 
ATOM      6  C   UNL     1       4.840   3.933  17.205  0.00  0.00    +0.000 A 
ATOM      7  C   UNL     1       5.583   4.061  16.024  0.00  0.00    +0.000 A 
ATOM      8  C   UNL     1       5.652   5.278  15.341  0.00  0.00    +0.000 A 
ATOM      9  C   UNL     1       4.974   6.411  15.810  0.00  0.00    +0.000 A 
ATOM     10  C   UNL     1       4.218   6.302  16.992  0.00  0.00    +0.000 A 
ATOM     11  C   UNL     1       3.413   7.156  17.768  0.00  0.00    +0.000 A 
ATOM     12  N   UNL     1       3.062   8.468  17.635  0.00  0.00    +0.000 N 
ATOM     13  C   UNL     1       2.269   9.118  18.561  0.00  0.00    +0.000 A 
ATOM     14  S   UNL     1       2.064  10.766  18.286  0.00  0.00    +0.000 S 
ATOM     15  N   UNL     1       1.783   8.348  19.655  0.00  0.00    +0.000 N 
ATOM     16  H   UNL     1       3.433   9.009  16.860  0.00  0.00    +0.000 HD
ENDROOT
BRANCH  15  17
ATOM     17  C   UNL     1       0.914   8.949  20.633  0.00  0.00    +0.000 A 
ATOM     18  C   UNL     1      -0.206   9.690  20.224  0.00  0.00    +0.000 A 
ATOM     19  C   UNL     1      -0.986  10.373  21.163  0.00  0.00    +0.000 A 
ATOM     20  C   UNL     1      -0.652  10.305  22.508  0.00  0.00    +0.000 A 
ATOM     21  F   UNL     1      -1.373  10.996  23.403  0.00  0.00    +0.000 F 
ATOM     22  C   UNL     1       0.421   9.537  22.940  0.00  0.00    +0.000 A 
ATOM     23  C   UNL     1       1.205   8.853  22.003  0.00  0.00    +0.000 A 
ENDBRANCH  15  17
TORSDOF 1
ENDMDL
