MODEL 1
REMARK VINA RESULT:      -6.9      0.000      0.000
REMARK  Name = 
REMARK  3 active torsions:
REMARK  status: ('A' for Active; 'I' for Inactive)
REMARK    1  A    between atoms: C_1  and  C_2
REMARK    2  A    between atoms: C_5  and  N_6
REMARK    3  A    between atoms: C_23  and  C_24
REMARK                            x       y       z     vdW  Elec       q    Type
REMARK                         _______ _______ _______ _____ _____    ______ ____
ROOT
ATOM      1  N   UNL     1      -0.819  12.886  21.805  0.00  0.00    +0.000 N 
ATOM      2  C   UNL     1      -0.842  13.150  20.446  0.00  0.00    +0.000 C 
ATOM      3  O   UNL     1      -1.513  13.978  19.847  0.00  0.00    +0.000 OA
ATOM      4  C   UNL     1       0.120  12.179  19.780  0.00  0.00    +0.000 C 
ATOM      5  C   UNL     1      -0.290  11.508  18.466  0.00  0.00    +0.000 C 
ATOM      6  C   UNL     1       0.616  10.283  18.245  0.00  0.00    +0.000 C 
ATOM      7  C   UNL     1       0.228   9.325  19.101  0.00  0.00    +0.000 C 
ATOM      8  C   UNL     1      -0.824   9.978  19.975  0.00  0.00    +0.000 C 
ATOM      9  C   UNL     1      -1.592  10.821  18.902  0.00  0.00    +0.000 C 
ATOM     10  C   UNL     1      -2.419  10.310  17.942  0.00  0.00    +0.000 C 
ATOM     11  C   UNL     1      -1.954   9.891  16.546  0.00  0.00    +0.000 C 
ATOM     12  C   UNL     1      -2.759  10.759  15.600  0.00  0.00    +0.000 C 
ATOM     13  C   UNL     1      -4.122  10.806  16.256  0.00  0.00    +0.000 C 
ATOM     14  C   UNL     1      -3.843  10.825  17.767  0.00  0.00    +0.000 C 
ATOM     15  C   UNL     1       0.067  11.001  20.751  0.00  0.00    +0.000 C 
ATOM     16  C   UNL     1      -0.369  11.606  22.040  0.00  0.00    +0.000 C 
ATOM     17  O   UNL     1      -0.191  11.026  23.105  0.00  0.00    +0.000 OA
ENDROOT
BRANCH   1  22
ATOM     18  C   UNL     1      -2.310  16.817  25.777  0.00  0.00    +0.000 C 
ATOM     19  C   UNL     1      -1.908  15.761  24.782  0.00  0.00    +0.000 A 
ATOM     20  C   UNL     1      -0.737  15.886  24.046  0.00  0.00    +0.000 A 
ATOM     21  C   UNL     1      -0.400  14.911  23.102  0.00  0.00    +0.000 A 
ATOM     22  C   UNL     1      -1.206  13.776  22.857  0.00  0.00    +0.000 A 
ATOM     23  C   UNL     1      -2.396  13.651  23.610  0.00  0.00    +0.000 A 
ATOM     24  C   UNL     1      -3.469  12.614  23.401  0.00  0.00    +0.000 C 
ATOM     25  C   UNL     1      -2.722  14.651  24.567  0.00  0.00    +0.000 A 
ENDBRANCH   1  22
TORSDOF 1
ENDMDL
MODEL 2
REMARK VINA RESULT:      -6.6      9.681     10.944
REMARK  Name = 
REMARK  3 active torsions:
REMARK  status: ('A' for Active; 'I' for Inactive)
REMARK    1  A    between atoms: C_1  and  C_2
REMARK    2  A    between atoms: C_5  and  N_6
REMARK    3  A    between atoms: C_23  and  C_24
REMARK                            x       y       z     vdW  Elec       q    Type
REMARK                         _______ _______ _______ _____ _____    ______ ____
ROOT
ATOM      1  N   UNL     1       5.845   5.972  17.650  0.00  0.00    +0.000 N 
ATOM      2  C   UNL     1       4.511   6.027  18.016  0.00  0.00    +0.000 C 
ATOM      3  O   UNL     1       3.993   6.707  18.890  0.00  0.00    +0.000 OA
ATOM      4  C   UNL     1       3.759   5.037  17.141  0.00  0.00    +0.000 C 
ATOM      5  C   UNL     1       2.683   4.150  17.773  0.00  0.00    +0.000 C 
ATOM      6  C   UNL     1       2.406   2.972  16.821  0.00  0.00    +0.000 C 
ATOM      7  C   UNL     1       3.446   2.128  16.897  0.00  0.00    +0.000 C 
ATOM      8  C   UNL     1       4.461   2.830  17.779  0.00  0.00    +0.000 C 
ATOM      9  C   UNL     1       3.510   3.447  18.859  0.00  0.00    +0.000 C 
ATOM     10  C   UNL     1       2.856   2.741  19.830  0.00  0.00    +0.000 C 
ATOM     11  C   UNL     1       1.454   2.152  19.661  0.00  0.00    +0.000 C 
ATOM     12  C   UNL     1       0.631   2.809  20.751  0.00  0.00    +0.000 C 
ATOM     13  C   UNL     1       1.590   2.859  21.920  0.00  0.00    +0.000 C 
ATOM     14  C   UNL     1       2.970   3.124  21.301  0.00  0.00    +0.000 C 
ATOM     15  C   UNL     1       4.857   4.017  16.843  0.00  0.00    +0.000 C 
ATOM     16  C   UNL     1       6.124   4.776  17.027  0.00  0.00    +0.000 C 
ATOM     17  O   UNL     1       7.179   4.376  16.547  0.00  0.00    +0.000 OA
ENDROOT
BRANCH   1  22
ATOM     18  C   UNL     1       9.521  10.333  18.601  0.00  0.00    +0.000 C 
ATOM     19  C   UNL     1       8.602   9.174  18.325  0.00  0.00    +0.000 A 
ATOM     20  C   UNL     1       7.551   9.299  17.426  0.00  0.00    +0.000 A 
ATOM     21  C   UNL     1       6.687   8.220  17.210  0.00  0.00    +0.000 A 
ATOM     22  C   UNL     1       6.836   6.980  17.871  0.00  0.00    +0.000 A 
ATOM     23  C   UNL     1       7.909   6.856  18.784  0.00  0.00    +0.000 A 
ATOM     24  C   UNL     1       8.156   5.689  19.705  0.00  0.00    +0.000 C 
ATOM     25  C   UNL     1       8.778   7.963  18.989  0.00  0.00    +0.000 A 
ENDBRANCH   1  22
TORSDOF 1
ENDMDL
MODEL 3
REMARK VINA RESULT:      -6.6      4.000      8.251
REMARK  Name = 
REMARK  3 active torsions:
REMARK  status: ('A' for Active; 'I' for Inactive)
REMARK    1  A    between atoms: C_1  and  C_2
REMARK    2  A    between atoms: C_5  and  N_6
REMARK    3  A    between atoms: C_23  and  C_24
REMARK                            x       y       z     vdW  Elec       q    Type
REMARK                         _______ _______ _______ _____ _____    ______ ____
ROOT
ATOM      1  N   UNL     1       2.066   8.013  18.807  0.00  0.00    +0.000 N 
ATOM      2  C   UNL     1       1.455   9.095  18.197  0.00  0.00    +0.000 C 
ATOM      3  O   UNL     1       1.803   9.691  17.187  0.00  0.00    +0.000 OA
ATOM      4  C   UNL     1       0.243   9.464  19.037  0.00  0.00    +0.000 C 
ATOM      5  C   UNL     1      -0.056  10.942  19.305  0.00  0.00    +0.000 C 
ATOM      6  C   UNL     1      -1.021  11.032  20.502  0.00  0.00    +0.000 C 
ATOM      7  C   UNL     1      -0.324  10.753  21.614  0.00  0.00    +0.000 C 
ATOM      8  C   UNL     1       1.050  10.336  21.125  0.00  0.00    +0.000 C 
ATOM      9  C   UNL     1       1.259  11.372  19.970  0.00  0.00    +0.000 C 
ATOM     10  C   UNL     1       1.504  12.706  20.141  0.00  0.00    +0.000 C 
ATOM     11  C   UNL     1       0.411  13.773  20.219  0.00  0.00    +0.000 C 
ATOM     12  C   UNL     1       0.714  14.714  19.070  0.00  0.00    +0.000 C 
ATOM     13  C   UNL     1       2.226  14.789  19.081  0.00  0.00    +0.000 C 
ATOM     14  C   UNL     1       2.698  13.384  19.481  0.00  0.00    +0.000 C 
ATOM     15  C   UNL     1       0.689   8.990  20.419  0.00  0.00    +0.000 C 
ATOM     16  C   UNL     1       1.715   7.949  20.137  0.00  0.00    +0.000 C 
ATOM     17  O   UNL     1       2.034   7.125  20.988  0.00  0.00    +0.000 OA
ENDROOT
BRANCH   1  22
ATOM     18  C   UNL     1       5.960   4.352  16.600  0.00  0.00    +0.000 C 
ATOM     19  C   UNL     1       4.921   5.303  17.128  0.00  0.00    +0.000 A 
ATOM     20  C   UNL     1       5.208   6.652  17.290  0.00  0.00    +0.000 A 
ATOM     21  C   UNL     1       4.239   7.513  17.816  0.00  0.00    +0.000 A 
ATOM     22  C   UNL     1       2.951   7.071  18.194  0.00  0.00    +0.000 A 
ATOM     23  C   UNL     1       2.661   5.697  18.025  0.00  0.00    +0.000 A 
ATOM     24  C   UNL     1       1.419   4.991  18.503  0.00  0.00    +0.000 C 
ATOM     25  C   UNL     1       3.658   4.837  17.487  0.00  0.00    +0.000 A 
ENDBRANCH   1  22
TORSDOF 1
ENDMDL
MODEL 4
REMARK VINA RESULT:      -6.5      8.910     10.852
REMARK  Name = 
REMARK  3 active torsions:
REMARK  status: ('A' for Active; 'I' for Inactive)
REMARK    1  A    between atoms: C_1  and  C_2
REMARK    2  A    between atoms: C_5  and  N_6
REMARK    3  A    between atoms: C_23  and  C_24
REMARK                            x       y       z     vdW  Elec       q    Type
REMARK                         _______ _______ _______ _____ _____    ______ ____
ROOT
ATOM      1  N   UNL     1       6.355  16.084  18.679  0.00  0.00    +0.000 N 
ATOM      2  C   UNL     1       7.194  15.197  18.028  0.00  0.00    +0.000 C 
ATOM      3  O   UNL     1       7.022  14.005  17.819  0.00  0.00    +0.000 OA
ATOM      4  C   UNL     1       8.441  15.967  17.621  0.00  0.00    +0.000 C 
ATOM      5  C   UNL     1       9.813  15.312  17.800  0.00  0.00    +0.000 C 
ATOM      6  C   UNL     1      10.887  16.416  17.748  0.00  0.00    +0.000 C 
ATOM      7  C   UNL     1      10.828  17.100  18.901  0.00  0.00    +0.000 C 
ATOM      8  C   UNL     1       9.623  16.540  19.633  0.00  0.00    +0.000 C 
ATOM      9  C   UNL     1       9.783  15.017  19.306  0.00  0.00    +0.000 C 
ATOM     10  C   UNL     1      10.738  14.194  19.834  0.00  0.00    +0.000 C 
ATOM     11  C   UNL     1      12.110  13.957  19.199  0.00  0.00    +0.000 C 
ATOM     12  C   UNL     1      12.154  12.465  18.934  0.00  0.00    +0.000 C 
ATOM     13  C   UNL     1      11.472  11.882  20.152  0.00  0.00    +0.000 C 
ATOM     14  C   UNL     1      10.364  12.882  20.514  0.00  0.00    +0.000 C 
ATOM     15  C   UNL     1       8.479  17.050  18.698  0.00  0.00    +0.000 C 
ATOM     16  C   UNL     1       7.070  17.156  19.165  0.00  0.00    +0.000 C 
ATOM     17  O   UNL     1       6.674  18.146  19.770  0.00  0.00    +0.000 OA
ENDROOT
BRANCH   1  22
ATOM     18  C   UNL     1       0.626  15.361  19.001  0.00  0.00    +0.000 C 
ATOM     19  C   UNL     1       2.113  15.590  18.951  0.00  0.00    +0.000 A 
ATOM     20  C   UNL     1       2.706  16.165  17.835  0.00  0.00    +0.000 A 
ATOM     21  C   UNL     1       4.094  16.336  17.794  0.00  0.00    +0.000 A 
ATOM     22  C   UNL     1       4.941  15.951  18.858  0.00  0.00    +0.000 A 
ATOM     23  C   UNL     1       4.333  15.369  19.993  0.00  0.00    +0.000 A 
ATOM     24  C   UNL     1       5.054  14.748  21.162  0.00  0.00    +0.000 C 
ATOM     25  C   UNL     1       2.921  15.204  20.018  0.00  0.00    +0.000 A 
ENDBRANCH   1  22
TORSDOF 1
ENDMDL
MODEL 5
REMARK VINA RESULT:      -6.3      0.511      1.523
REMARK  Name = 
REMARK  3 active torsions:
REMARK  status: ('A' for Active; 'I' for Inactive)
REMARK    1  A    between atoms: C_1  and  C_2
REMARK    2  A    between atoms: C_5  and  N_6
REMARK    3  A    between atoms: C_23  and  C_24
REMARK                            x       y       z     vdW  Elec       q    Type
REMARK                         _______ _______ _______ _____ _____    ______ ____
ROOT
ATOM      1  N   UNL     1      -0.600  13.146  21.669  0.00  0.00    +0.000 N 
ATOM      2  C   UNL     1      -0.610  13.320  20.296  0.00  0.00    +0.000 C 
ATOM      3  O   UNL     1      -1.201  14.169  19.644  0.00  0.00    +0.000 OA
ATOM      4  C   UNL     1       0.245  12.216  19.693  0.00  0.00    +0.000 C 
ATOM      5  C   UNL     1      -0.242  11.504  18.428  0.00  0.00    +0.000 C 
ATOM      6  C   UNL     1       0.537  10.182  18.288  0.00  0.00    +0.000 C 
ATOM      7  C   UNL     1       0.064   9.326  19.207  0.00  0.00    +0.000 C 
ATOM      8  C   UNL     1      -0.910  10.138  20.039  0.00  0.00    +0.000 C 
ATOM      9  C   UNL     1      -1.601  10.980  18.913  0.00  0.00    +0.000 C 
ATOM     10  C   UNL     1      -2.484  10.490  17.992  0.00  0.00    +0.000 C 
ATOM     11  C   UNL     1      -2.076   9.935  16.626  0.00  0.00    +0.000 C 
ATOM     12  C   UNL     1      -2.800  10.813  15.626  0.00  0.00    +0.000 C 
ATOM     13  C   UNL     1      -4.145  11.040  16.282  0.00  0.00    +0.000 C 
ATOM     14  C   UNL     1      -3.851  11.132  17.786  0.00  0.00    +0.000 C 
ATOM     15  C   UNL     1       0.085  11.117  20.741  0.00  0.00    +0.000 C 
ATOM     16  C   UNL     1      -0.277  11.846  21.988  0.00  0.00    +0.000 C 
ATOM     17  O   UNL     1      -0.147  11.324  23.089  0.00  0.00    +0.000 OA
ENDROOT
BRANCH   1  22
ATOM     18  C   UNL     1      -1.799  16.826  25.966  0.00  0.00    +0.000 C 
ATOM     19  C   UNL     1      -1.507  15.904  24.814  0.00  0.00    +0.000 A 
ATOM     20  C   UNL     1      -2.293  14.783  24.582  0.00  0.00    +0.000 A 
ATOM     21  C   UNL     1      -1.982  13.920  23.526  0.00  0.00    +0.000 A 
ATOM     22  C   UNL     1      -0.887  14.138  22.660  0.00  0.00    +0.000 A 
ATOM     23  C   UNL     1      -0.090  15.281  22.898  0.00  0.00    +0.000 A 
ATOM     24  C   UNL     1       1.204  15.617  22.202  0.00  0.00    +0.000 C 
ATOM     25  C   UNL     1      -0.422  16.149  23.974  0.00  0.00    +0.000 A 
ENDBRANCH   1  22
TORSDOF 1
ENDMDL
MODEL 6
REMARK VINA RESULT:      -6.3      9.952     11.487
REMARK  Name = 
REMARK  3 active torsions:
REMARK  status: ('A' for Active; 'I' for Inactive)
REMARK    1  A    between atoms: C_1  and  C_2
REMARK    2  A    between atoms: C_5  and  N_6
REMARK    3  A    between atoms: C_23  and  C_24
REMARK                            x       y       z     vdW  Elec       q    Type
REMARK                         _______ _______ _______ _____ _____    ______ ____
ROOT
ATOM      1  N   UNL     1       9.038  12.877  21.693  0.00  0.00    +0.000 N 
ATOM      2  C   UNL     1       9.852  13.989  21.563  0.00  0.00    +0.000 C 
ATOM      3  O   UNL     1       9.695  15.103  22.040  0.00  0.00    +0.000 OA
ATOM      4  C   UNL     1      11.015  13.597  20.664  0.00  0.00    +0.000 C 
ATOM      5  C   UNL     1      11.490  14.579  19.590  0.00  0.00    +0.000 C 
ATOM      6  C   UNL     1      12.333  13.801  18.562  0.00  0.00    +0.000 C 
ATOM      7  C   UNL     1      11.496  13.062  17.818  0.00  0.00    +0.000 C 
ATOM      8  C   UNL     1      10.134  13.244  18.457  0.00  0.00    +0.000 C 
ATOM      9  C   UNL     1      10.188  14.771  18.798  0.00  0.00    +0.000 C 
ATOM     10  C   UNL     1      10.118  15.786  17.886  0.00  0.00    +0.000 C 
ATOM     11  C   UNL     1      11.337  16.410  17.204  0.00  0.00    +0.000 C 
ATOM     12  C   UNL     1      11.285  17.873  17.596  0.00  0.00    +0.000 C 
ATOM     13  C   UNL     1       9.806  18.188  17.542  0.00  0.00    +0.000 C 
ATOM     14  C   UNL     1       9.103  16.913  18.031  0.00  0.00    +0.000 C 
ATOM     15  C   UNL     1      10.370  12.504  19.813  0.00  0.00    +0.000 C 
ATOM     16  C   UNL     1       9.241  12.005  20.646  0.00  0.00    +0.000 C 
ATOM     17  O   UNL     1       8.726  10.914  20.430  0.00  0.00    +0.000 OA
ENDROOT
BRANCH   1  22
ATOM     18  C   UNL     1       5.544  11.955  26.208  0.00  0.00    +0.000 C 
ATOM     19  C   UNL     1       6.424  12.161  25.005  0.00  0.00    +0.000 A 
ATOM     20  C   UNL     1       7.694  11.602  24.948  0.00  0.00    +0.000 A 
ATOM     21  C   UNL     1       8.509  11.835  23.835  0.00  0.00    +0.000 A 
ATOM     22  C   UNL     1       8.094  12.624  22.739  0.00  0.00    +0.000 A 
ATOM     23  C   UNL     1       6.800  13.189  22.799  0.00  0.00    +0.000 A 
ATOM     24  C   UNL     1       6.222  14.181  21.822  0.00  0.00    +0.000 C 
ATOM     25  C   UNL     1       5.984  12.940  23.937  0.00  0.00    +0.000 A 
ENDBRANCH   1  22
TORSDOF 1
ENDMDL
MODEL 7
REMARK VINA RESULT:      -6.3      2.303      7.781
REMARK  Name = 
REMARK  3 active torsions:
REMARK  status: ('A' for Active; 'I' for Inactive)
REMARK    1  A    between atoms: C_1  and  C_2
REMARK    2  A    between atoms: C_5  and  N_6
REMARK    3  A    between atoms: C_23  and  C_24
REMARK                            x       y       z     vdW  Elec       q    Type
REMARK                         _______ _______ _______ _____ _____    ______ ____
ROOT
ATOM      1  N   UNL     1      -1.609  12.896  22.641  0.00  0.00    +0.000 N 
ATOM      2  C   UNL     1      -1.032  14.154  22.677  0.00  0.00    +0.000 C 
ATOM      3  O   UNL     1       0.155  14.441  22.739  0.00  0.00    +0.000 OA
ATOM      4  C   UNL     1      -2.162  15.171  22.657  0.00  0.00    +0.000 C 
ATOM      5  C   UNL     1      -2.079  16.394  23.576  0.00  0.00    +0.000 C 
ATOM      6  C   UNL     1      -3.489  17.002  23.700  0.00  0.00    +0.000 C 
ATOM      7  C   UNL     1      -4.217  16.195  24.488  0.00  0.00    +0.000 C 
ATOM      8  C   UNL     1      -3.331  14.993  24.749  0.00  0.00    +0.000 C 
ATOM      9  C   UNL     1      -1.949  15.704  24.941  0.00  0.00    +0.000 C 
ATOM     10  C   UNL     1      -1.592  16.454  26.025  0.00  0.00    +0.000 C 
ATOM     11  C   UNL     1      -1.813  17.965  26.131  0.00  0.00    +0.000 C 
ATOM     12  C   UNL     1      -0.425  18.541  26.318  0.00  0.00    +0.000 C 
ATOM     13  C   UNL     1       0.242  17.536  27.231  0.00  0.00    +0.000 C 
ATOM     14  C   UNL     1      -0.311  16.169  26.801  0.00  0.00    +0.000 C 
ATOM     15  C   UNL     1      -3.286  14.373  23.315  0.00  0.00    +0.000 C 
ATOM     16  C   UNL     1      -2.912  12.951  23.084  0.00  0.00    +0.000 C 
ATOM     17  O   UNL     1      -3.743  12.053  23.172  0.00  0.00    +0.000 OA
ENDROOT
BRANCH   1  22
ATOM     18  C   UNL     1       0.614   7.759  21.189  0.00  0.00    +0.000 C 
ATOM     19  C   UNL     1       0.083   9.117  21.559  0.00  0.00    +0.000 A 
ATOM     20  C   UNL     1      -0.201   9.433  22.881  0.00  0.00    +0.000 A 
ATOM     21  C   UNL     1      -0.727  10.690  23.200  0.00  0.00    +0.000 A 
ATOM     22  C   UNL     1      -0.984  11.678  22.223  0.00  0.00    +0.000 A 
ATOM     23  C   UNL     1      -0.691  11.354  20.879  0.00  0.00    +0.000 A 
ATOM     24  C   UNL     1      -1.031  12.191  19.673  0.00  0.00    +0.000 C 
ATOM     25  C   UNL     1      -0.155  10.072  20.574  0.00  0.00    +0.000 A 
ENDBRANCH   1  22
TORSDOF 1
ENDMDL
MODEL 8
REMARK VINA RESULT:      -6.2      3.288      8.267
REMARK  Name = 
REMARK  3 active torsions:
REMARK  status: ('A' for Active; 'I' for Inactive)
REMARK    1  A    between atoms: C_1  and  C_2
REMARK    2  A    between atoms: C_5  and  N_6
REMARK    3  A    between atoms: C_23  and  C_24
REMARK                            x       y       z     vdW  Elec       q    Type
REMARK                         _______ _______ _______ _____ _____    ______ ____
ROOT
ATOM      1  N   UNL     1      -5.482  13.162  20.132  0.00  0.00    +0.000 N 
ATOM      2  C   UNL     1      -5.440  14.524  20.376  0.00  0.00    +0.000 C 
ATOM      3  O   UNL     1      -4.615  15.338  19.989  0.00  0.00    +0.000 OA
ATOM      4  C   UNL     1      -6.623  14.860  21.272  0.00  0.00    +0.000 C 
ATOM      5  C   UNL     1      -6.422  15.833  22.436  0.00  0.00    +0.000 C 
ATOM      6  C   UNL     1      -7.595  15.660  23.420  0.00  0.00    +0.000 C 
ATOM      7  C   UNL     1      -7.414  14.504  24.077  0.00  0.00    +0.000 C 
ATOM      8  C   UNL     1      -6.212  13.858  23.417  0.00  0.00    +0.000 C 
ATOM      9  C   UNL     1      -5.302  15.116  23.205  0.00  0.00    +0.000 C 
ATOM     10  C   UNL     1      -4.648  15.791  24.195  0.00  0.00    +0.000 C 
ATOM     11  C   UNL     1      -5.241  16.976  24.960  0.00  0.00    +0.000 C 
ATOM     12  C   UNL     1      -4.287  18.121  24.690  0.00  0.00    +0.000 C 
ATOM     13  C   UNL     1      -2.931  17.451  24.728  0.00  0.00    +0.000 C 
ATOM     14  C   UNL     1      -3.149  16.060  24.115  0.00  0.00    +0.000 C 
ATOM     15  C   UNL     1      -6.815  13.537  22.011  0.00  0.00    +0.000 C 
ATOM     16  C   UNL     1      -6.210  12.519  21.109  0.00  0.00    +0.000 C 
ATOM     17  O   UNL     1      -6.484  11.330  21.220  0.00  0.00    +0.000 OA
ENDROOT
BRANCH   1  22
ATOM     18  C   UNL     1      -2.865  10.049  16.021  0.00  0.00    +0.000 C 
ATOM     19  C   UNL     1      -3.538  10.902  17.061  0.00  0.00    +0.000 A 
ATOM     20  C   UNL     1      -2.894  11.212  18.252  0.00  0.00    +0.000 A 
ATOM     21  C   UNL     1      -3.552  11.978  19.221  0.00  0.00    +0.000 A 
ATOM     22  C   UNL     1      -4.866  12.468  19.043  0.00  0.00    +0.000 A 
ATOM     23  C   UNL     1      -5.517  12.152  17.829  0.00  0.00    +0.000 A 
ATOM     24  C   UNL     1      -6.960  12.435  17.500  0.00  0.00    +0.000 C 
ATOM     25  C   UNL     1      -4.833  11.374  16.854  0.00  0.00    +0.000 A 
ENDBRANCH   1  22
TORSDOF 1
ENDMDL
MODEL 9
REMARK VINA RESULT:      -6.2      2.311      6.832
REMARK  Name = 
REMARK  3 active torsions:
REMARK  status: ('A' for Active; 'I' for Inactive)
REMARK    1  A    between atoms: C_1  and  C_2
REMARK    2  A    between atoms: C_5  and  N_6
REMARK    3  A    between atoms: C_23  and  C_24
REMARK                            x       y       z     vdW  Elec       q    Type
REMARK                         _______ _______ _______ _____ _____    ______ ____
ROOT
ATOM      1  N   UNL     1      -1.306  12.623  22.056  0.00  0.00    +0.000 N 
ATOM      2  C   UNL     1      -2.587  12.622  22.582  0.00  0.00    +0.000 C 
ATOM      3  O   UNL     1      -3.603  12.138  22.103  0.00  0.00    +0.000 OA
ATOM      4  C   UNL     1      -2.537  13.382  23.898  0.00  0.00    +0.000 C 
ATOM      5  C   UNL     1      -3.663  14.363  24.235  0.00  0.00    +0.000 C 
ATOM      6  C   UNL     1      -3.170  15.300  25.354  0.00  0.00    +0.000 C 
ATOM      7  C   UNL     1      -2.294  16.161  24.813  0.00  0.00    +0.000 C 
ATOM      8  C   UNL     1      -2.106  15.689  23.385  0.00  0.00    +0.000 C 
ATOM      9  C   UNL     1      -3.580  15.303  23.024  0.00  0.00    +0.000 C 
ATOM     10  C   UNL     1      -4.597  16.190  22.809  0.00  0.00    +0.000 C 
ATOM     11  C   UNL     1      -5.534  16.701  23.906  0.00  0.00    +0.000 C 
ATOM     12  C   UNL     1      -6.917  16.280  23.452  0.00  0.00    +0.000 C 
ATOM     13  C   UNL     1      -6.869  16.505  21.957  0.00  0.00    +0.000 C 
ATOM     14  C   UNL     1      -5.437  16.140  21.538  0.00  0.00    +0.000 C 
ATOM     15  C   UNL     1      -1.371  14.334  23.642  0.00  0.00    +0.000 C 
ATOM     16  C   UNL     1      -0.570  13.660  22.584  0.00  0.00    +0.000 C 
ATOM     17  O   UNL     1       0.600  13.966  22.381  0.00  0.00    +0.000 OA
ENDROOT
BRANCH   1  22
ATOM     18  C   UNL     1       1.094   9.253  18.016  0.00  0.00    +0.000 C 
ATOM     19  C   UNL     1       0.427  10.099  19.066  0.00  0.00    +0.000 A 
ATOM     20  C   UNL     1      -0.074  11.356  18.754  0.00  0.00    +0.000 A 
ATOM     21  C   UNL     1      -0.660  12.141  19.753  0.00  0.00    +0.000 A 
ATOM     22  C   UNL     1      -0.776  11.707  21.093  0.00  0.00    +0.000 A 
ATOM     23  C   UNL     1      -0.267  10.426  21.407  0.00  0.00    +0.000 A 
ATOM     24  C   UNL     1      -0.146   9.837  22.788  0.00  0.00    +0.000 C 
ATOM     25  C   UNL     1       0.323   9.641  20.378  0.00  0.00    +0.000 A 
ENDBRANCH   1  22
TORSDOF 1
ENDMDL
