MODEL 1
REMARK VINA RESULT:      -7.4      0.000      0.000
REMARK  Name = 
REMARK  6 active torsions:
REMARK  status: ('A' for Active; 'I' for Inactive)
REMARK    1  A    between atoms: O_1  and  C_2
REMARK    2  A    between atoms: C_2  and  C_3
REMARK    3  A    between atoms: C_2  and  C_12
REMARK    4  A    between atoms: C_2  and  C_19
REMARK    5  A    between atoms: C_4  and  C_5
REMARK    6  A    between atoms: C_5  and  N_6
REMARK                            x       y       z     vdW  Elec       q    Type
REMARK                         _______ _______ _______ _____ _____    ______ ____
ROOT
ATOM      1  C   UNL     1       3.294   6.155  18.975  0.00  0.00    +0.000 C 
ENDROOT
BRANCH   1   2
ATOM      2  C   UNL     1       2.469   7.456  18.990  0.00  0.00    +0.000 A 
ATOM      3  C   UNL     1       2.273   8.237  17.834  0.00  0.00    +0.000 A 
ATOM      4  C   UNL     1       1.483   9.392  17.867  0.00  0.00    +0.000 A 
ATOM      5  C   UNL     1       0.896   9.801  19.061  0.00  0.00    +0.000 A 
ATOM      6 CL   UNL     1      -0.022  11.254  19.113  0.00  0.00    +0.000 Cl
ATOM      7  C   UNL     1       1.050   9.037  20.212  0.00  0.00    +0.000 A 
ATOM      8  C   UNL     1       1.805   7.864  20.170  0.00  0.00    +0.000 A 
ENDBRANCH   1   2
BRANCH   1   9
ATOM      9  C   UNL     1       2.533   4.827  19.142  0.00  0.00    +0.000 A 
ATOM     10  C   UNL     1       1.856   4.278  18.026  0.00  0.00    +0.000 A 
ATOM     11  C   UNL     1       1.014   3.168  18.146  0.00  0.00    +0.000 A 
ATOM     12  C   UNL     1       0.830   2.572  19.389  0.00  0.00    +0.000 A 
ATOM     13  C   UNL     1       1.531   3.057  20.489  0.00  0.00    +0.000 A 
ATOM     14 CL   UNL     1       1.294   2.331  22.032  0.00  0.00    +0.000 Cl
ATOM     15  C   UNL     1       2.394   4.152  20.367  0.00  0.00    +0.000 A 
ENDBRANCH   1   9
BRANCH   1  16
ATOM     16  O   UNL     1       4.262   6.194  20.034  0.00  0.00    +0.000 OA
ATOM     17  H   UNL     1       4.099   5.395  20.563  0.00  0.00    +0.000 HD
ENDBRANCH   1  16
BRANCH   1  18
ATOM     18  C   UNL     1       4.050   6.122  17.697  0.00  0.00    +0.000 C 
ATOM     19  C   UNL     1       4.680   6.079  16.678  0.00  0.00    +0.000 C 
BRANCH  19  20
ATOM     20  C   UNL     1       5.447   5.973  15.432  0.00  0.00    +0.000 C 
BRANCH  20  21
ATOM     21  N   UNL     1       6.350   4.813  15.444  0.00  0.00    +0.000 NA
ATOM     22  C   UNL     1       7.575   5.105  14.665  0.00  0.00    +0.000 C 
ATOM     23  C   UNL     1       7.352   5.122  13.140  0.00  0.00    +0.000 C 
ATOM     24  O   UNL     1       6.762   3.901  12.678  0.00  0.00    +0.000 OA
ATOM     25  C   UNL     1       5.534   3.630  13.364  0.00  0.00    +0.000 C 
ATOM     26  C   UNL     1       5.750   3.582  14.882  0.00  0.00    +0.000 C 
ENDBRANCH  20  21
ENDBRANCH  19  20
ENDBRANCH   1  18
TORSDOF 6
ENDMDL
MODEL 2
REMARK VINA RESULT:      -7.3      0.850      1.068
REMARK  Name = 
REMARK  6 active torsions:
REMARK  status: ('A' for Active; 'I' for Inactive)
REMARK    1  A    between atoms: O_1  and  C_2
REMARK    2  A    between atoms: C_2  and  C_3
REMARK    3  A    between atoms: C_2  and  C_12
REMARK    4  A    between atoms: C_2  and  C_19
REMARK    5  A    between atoms: C_4  and  C_5
REMARK    6  A    between atoms: C_5  and  N_6
REMARK                            x       y       z     vdW  Elec       q    Type
REMARK                         _______ _______ _______ _____ _____    ______ ____
ROOT
ATOM      1  C   UNL     1       3.127   6.459  18.972  0.00  0.00    +0.000 C 
ENDROOT
BRANCH   1   2
ATOM      2  C   UNL     1       2.227   7.709  19.042  0.00  0.00    +0.000 A 
ATOM      3  C   UNL     1       1.891   8.460  17.899  0.00  0.00    +0.000 A 
ATOM      4  C   UNL     1       1.037   9.565  17.985  0.00  0.00    +0.000 A 
ATOM      5  C   UNL     1       0.525   9.955  19.219  0.00  0.00    +0.000 A 
ATOM      6 CL   UNL     1      -0.472  11.351  19.332  0.00  0.00    +0.000 Cl
ATOM      7  C   UNL     1       0.818   9.219  20.361  0.00  0.00    +0.000 A 
ATOM      8  C   UNL     1       1.638   8.093  20.268  0.00  0.00    +0.000 A 
ENDBRANCH   1   2
BRANCH   1   9
ATOM      9  C   UNL     1       2.443   5.083  19.072  0.00  0.00    +0.000 A 
ATOM     10  C   UNL     1       1.844   4.528  17.915  0.00  0.00    +0.000 A 
ATOM     11  C   UNL     1       1.068   3.366  17.971  0.00  0.00    +0.000 A 
ATOM     12  C   UNL     1       0.874   2.723  19.188  0.00  0.00    +0.000 A 
ATOM     13  C   UNL     1       1.502   3.216  20.328  0.00  0.00    +0.000 A 
ATOM     14 CL   UNL     1       1.251   2.432  21.841  0.00  0.00    +0.000 Cl
ATOM     15  C   UNL     1       2.299   4.365  20.271  0.00  0.00    +0.000 A 
ENDBRANCH   1   9
BRANCH   1  16
ATOM     16  O   UNL     1       4.086   6.504  20.038  0.00  0.00    +0.000 OA
ATOM     17  H   UNL     1       3.855   5.766  20.625  0.00  0.00    +0.000 HD
ENDBRANCH   1  16
BRANCH   1  18
ATOM     18  C   UNL     1       3.888   6.530  17.699  0.00  0.00    +0.000 C 
ATOM     19  C   UNL     1       4.527   6.588  16.686  0.00  0.00    +0.000 C 
BRANCH  19  20
ATOM     20  C   UNL     1       5.336   6.617  15.463  0.00  0.00    +0.000 C 
BRANCH  20  21
ATOM     21  N   UNL     1       6.593   5.873  15.622  0.00  0.00    +0.000 NA
ATOM     22  C   UNL     1       6.975   5.227  14.344  0.00  0.00    +0.000 C 
ATOM     23  C   UNL     1       6.107   4.006  13.983  0.00  0.00    +0.000 C 
ATOM     24  O   UNL     1       6.097   3.034  15.035  0.00  0.00    +0.000 OA
ATOM     25  C   UNL     1       5.659   3.614  16.269  0.00  0.00    +0.000 C 
ATOM     26  C   UNL     1       6.535   4.814  16.654  0.00  0.00    +0.000 C 
ENDBRANCH  20  21
ENDBRANCH  19  20
ENDBRANCH   1  18
TORSDOF 6
ENDMDL
MODEL 3
REMARK VINA RESULT:      -7.0      3.522      6.887
REMARK  Name = 
REMARK  6 active torsions:
REMARK  status: ('A' for Active; 'I' for Inactive)
REMARK    1  A    between atoms: O_1  and  C_2
REMARK    2  A    between atoms: C_2  and  C_3
REMARK    3  A    between atoms: C_2  and  C_12
REMARK    4  A    between atoms: C_2  and  C_19
REMARK    5  A    between atoms: C_4  and  C_5
REMARK    6  A    between atoms: C_5  and  N_6
REMARK                            x       y       z     vdW  Elec       q    Type
REMARK                         _______ _______ _______ _____ _____    ______ ____
ROOT
ATOM      1  C   UNL     1       2.522   4.955  18.042  0.00  0.00    +0.000 C 
ENDROOT
BRANCH   1   2
ATOM      2  C   UNL     1       3.778   4.957  17.148  0.00  0.00    +0.000 A 
ATOM      3  C   UNL     1       4.223   3.804  16.473  0.00  0.00    +0.000 A 
ATOM      4  C   UNL     1       5.342   3.844  15.633  0.00  0.00    +0.000 A 
ATOM      5  C   UNL     1       6.050   5.031  15.473  0.00  0.00    +0.000 A 
ATOM      6 CL   UNL     1       7.461   5.064  14.491  0.00  0.00    +0.000 Cl
ATOM      7  C   UNL     1       5.620   6.192  16.105  0.00  0.00    +0.000 A 
ATOM      8  C   UNL     1       4.481   6.160  16.911  0.00  0.00    +0.000 A 
ENDBRANCH   1   2
BRANCH   1   9
ATOM      9  C   UNL     1       2.513   4.003  19.253  0.00  0.00    +0.000 A 
ATOM     10  C   UNL     1       1.423   4.051  20.156  0.00  0.00    +0.000 A 
ATOM     11  C   UNL     1       1.429   3.336  21.357  0.00  0.00    +0.000 A 
ATOM     12  C   UNL     1       2.525   2.547  21.687  0.00  0.00    +0.000 A 
ATOM     13  C   UNL     1       3.582   2.438  20.788  0.00  0.00    +0.000 A 
ATOM     14 CL   UNL     1       4.949   1.474  21.200  0.00  0.00    +0.000 Cl
ATOM     15  C   UNL     1       3.568   3.132  19.573  0.00  0.00    +0.000 A 
ENDBRANCH   1   9
BRANCH   1  16
ATOM     16  O   UNL     1       1.378   4.603  17.252  0.00  0.00    +0.000 OA
ATOM     17  H   UNL     1       1.163   5.399  16.738  0.00  0.00    +0.000 HD
ENDBRANCH   1  16
BRANCH   1  18
ATOM     18  C   UNL     1       2.311   6.345  18.518  0.00  0.00    +0.000 C 
ATOM     19  C   UNL     1       2.113   7.466  18.895  0.00  0.00    +0.000 C 
BRANCH  19  20
ATOM     20  C   UNL     1       1.834   8.818  19.390  0.00  0.00    +0.000 C 
BRANCH  20  21
ATOM     21  N   UNL     1       0.485   8.922  19.964  0.00  0.00    +0.000 NA
ATOM     22  C   UNL     1       0.027  10.331  19.954  0.00  0.00    +0.000 C 
ATOM     23  C   UNL     1       0.721  11.215  21.009  0.00  0.00    +0.000 C 
ATOM     24  O   UNL     1       0.588  10.670  22.327  0.00  0.00    +0.000 OA
ATOM     25  C   UNL     1       1.092   9.330  22.383  0.00  0.00    +0.000 C 
ATOM     26  C   UNL     1       0.388   8.433  21.357  0.00  0.00    +0.000 C 
ENDBRANCH  20  21
ENDBRANCH  19  20
ENDBRANCH   1  18
TORSDOF 6
ENDMDL
MODEL 4
REMARK VINA RESULT:      -6.9      1.342      1.767
REMARK  Name = 
REMARK  6 active torsions:
REMARK  status: ('A' for Active; 'I' for Inactive)
REMARK    1  A    between atoms: O_1  and  C_2
REMARK    2  A    between atoms: C_2  and  C_3
REMARK    3  A    between atoms: C_2  and  C_12
REMARK    4  A    between atoms: C_2  and  C_19
REMARK    5  A    between atoms: C_4  and  C_5
REMARK    6  A    between atoms: C_5  and  N_6
REMARK                            x       y       z     vdW  Elec       q    Type
REMARK                         _______ _______ _______ _____ _____    ______ ____
ROOT
ATOM      1  C   UNL     1       3.409   6.104  18.935  0.00  0.00    +0.000 C 
ENDROOT
BRANCH   1   2
ATOM      2  C   UNL     1       2.462   7.314  19.061  0.00  0.00    +0.000 A 
ATOM      3  C   UNL     1       1.929   7.726  20.298  0.00  0.00    +0.000 A 
ATOM      4  C   UNL     1       1.106   8.854  20.391  0.00  0.00    +0.000 A 
ATOM      5  C   UNL     1       0.782   9.576  19.246  0.00  0.00    +0.000 A 
ATOM      6 CL   UNL     1      -0.280  10.923  19.353  0.00  0.00    +0.000 Cl
ATOM      7  C   UNL     1       1.313   9.209  18.015  0.00  0.00    +0.000 A 
ATOM      8  C   UNL     1       2.166   8.107  17.930  0.00  0.00    +0.000 A 
ENDBRANCH   1   2
BRANCH   1   9
ATOM      9  C   UNL     1       2.768   4.705  18.852  0.00  0.00    +0.000 A 
ATOM     10  C   UNL     1       1.405   4.552  19.199  0.00  0.00    +0.000 A 
ATOM     11  C   UNL     1       0.806   3.293  19.305  0.00  0.00    +0.000 A 
ATOM     12  C   UNL     1       1.558   2.149  19.059  0.00  0.00    +0.000 A 
ATOM     13  C   UNL     1       2.884   2.277  18.658  0.00  0.00    +0.000 A 
ATOM     14 CL   UNL     1       3.822   0.861  18.369  0.00  0.00    +0.000 Cl
ATOM     15  C   UNL     1       3.478   3.537  18.528  0.00  0.00    +0.000 A 
ENDBRANCH   1   9
BRANCH   1  16
ATOM     16  O   UNL     1       4.291   6.071  20.066  0.00  0.00    +0.000 OA
ATOM     17  H   UNL     1       3.753   6.358  20.822  0.00  0.00    +0.000 HD
ENDBRANCH   1  16
BRANCH   1  18
ATOM     18  C   UNL     1       4.252   6.322  17.732  0.00  0.00    +0.000 C 
ATOM     19  C   UNL     1       4.943   6.471  16.764  0.00  0.00    +0.000 C 
BRANCH  19  20
ATOM     20  C   UNL     1       5.764   6.611  15.556  0.00  0.00    +0.000 C 
BRANCH  20  21
ATOM     21  N   UNL     1       6.942   5.734  15.593  0.00  0.00    +0.000 NA
ATOM     22  C   UNL     1       7.334   5.338  14.220  0.00  0.00    +0.000 C 
ATOM     23  C   UNL     1       6.384   4.309  13.576  0.00  0.00    +0.000 C 
ATOM     24  O   UNL     1       6.235   3.142  14.394  0.00  0.00    +0.000 OA
ATOM     25  C   UNL     1       5.786   3.489  15.710  0.00  0.00    +0.000 C 
ATOM     26  C   UNL     1       6.740   4.491  16.371  0.00  0.00    +0.000 C 
ENDBRANCH  20  21
ENDBRANCH  19  20
ENDBRANCH   1  18
TORSDOF 6
ENDMDL
MODEL 5
REMARK VINA RESULT:      -6.9      1.049      1.481
REMARK  Name = 
REMARK  6 active torsions:
REMARK  status: ('A' for Active; 'I' for Inactive)
REMARK    1  A    between atoms: O_1  and  C_2
REMARK    2  A    between atoms: C_2  and  C_3
REMARK    3  A    between atoms: C_2  and  C_12
REMARK    4  A    between atoms: C_2  and  C_19
REMARK    5  A    between atoms: C_4  and  C_5
REMARK    6  A    between atoms: C_5  and  N_6
REMARK                            x       y       z     vdW  Elec       q    Type
REMARK                         _______ _______ _______ _____ _____    ______ ____
ROOT
ATOM      1  C   UNL     1       3.057   6.377  19.027  0.00  0.00    +0.000 C 
ENDROOT
BRANCH   1   2
ATOM      2  C   UNL     1       2.187   7.646  19.114  0.00  0.00    +0.000 A 
ATOM      3  C   UNL     1       1.865   8.416  17.979  0.00  0.00    +0.000 A 
ATOM      4  C   UNL     1       1.038   9.540  18.079  0.00  0.00    +0.000 A 
ATOM      5  C   UNL     1       0.538   9.929  19.319  0.00  0.00    +0.000 A 
ATOM      6 CL   UNL     1      -0.426  11.347  19.449  0.00  0.00    +0.000 Cl
ATOM      7  C   UNL     1       0.817   9.175  20.452  0.00  0.00    +0.000 A 
ATOM      8  C   UNL     1       1.610   8.031  20.345  0.00  0.00    +0.000 A 
ENDBRANCH   1   2
BRANCH   1   9
ATOM      9  C   UNL     1       2.351   5.017  19.189  0.00  0.00    +0.000 A 
ATOM     10  C   UNL     1       1.703   4.442  18.069  0.00  0.00    +0.000 A 
ATOM     11  C   UNL     1       0.908   3.298  18.183  0.00  0.00    +0.000 A 
ATOM     12  C   UNL     1       0.743   2.693  19.424  0.00  0.00    +0.000 A 
ATOM     13  C   UNL     1       1.418   3.205  20.528  0.00  0.00    +0.000 A 
ATOM     14 CL   UNL     1       1.202   2.468  22.069  0.00  0.00    +0.000 Cl
ATOM     15  C   UNL     1       2.234   4.335  20.412  0.00  0.00    +0.000 A 
ENDBRANCH   1   9
BRANCH   1  16
ATOM     16  O   UNL     1       4.066   6.423  20.046  0.00  0.00    +0.000 OA
ATOM     17  H   UNL     1       4.822   6.881  19.641  0.00  0.00    +0.000 HD
ENDBRANCH   1  16
BRANCH   1  18
ATOM     18  C   UNL     1       3.759   6.405  17.719  0.00  0.00    +0.000 C 
ATOM     19  C   UNL     1       4.347   6.416  16.674  0.00  0.00    +0.000 C 
BRANCH  19  20
ATOM     20  C   UNL     1       5.073   6.375  15.400  0.00  0.00    +0.000 C 
BRANCH  20  21
ATOM     21  N   UNL     1       5.409   5.000  15.006  0.00  0.00    +0.000 NA
ATOM     22  C   UNL     1       5.543   4.139  16.204  0.00  0.00    +0.000 C 
ATOM     23  C   UNL     1       6.830   4.396  17.012  0.00  0.00    +0.000 C 
ATOM     24  O   UNL     1       8.000   4.277  16.194  0.00  0.00    +0.000 OA
ATOM     25  C   UNL     1       7.931   5.156  15.065  0.00  0.00    +0.000 C 
ATOM     26  C   UNL     1       6.668   4.888  14.237  0.00  0.00    +0.000 C 
ENDBRANCH  20  21
ENDBRANCH  19  20
ENDBRANCH   1  18
TORSDOF 6
ENDMDL
MODEL 6
REMARK VINA RESULT:      -6.9      3.444      6.587
REMARK  Name = 
REMARK  6 active torsions:
REMARK  status: ('A' for Active; 'I' for Inactive)
REMARK    1  A    between atoms: O_1  and  C_2
REMARK    2  A    between atoms: C_2  and  C_3
REMARK    3  A    between atoms: C_2  and  C_12
REMARK    4  A    between atoms: C_2  and  C_19
REMARK    5  A    between atoms: C_4  and  C_5
REMARK    6  A    between atoms: C_5  and  N_6
REMARK                            x       y       z     vdW  Elec       q    Type
REMARK                         _______ _______ _______ _____ _____    ______ ____
ROOT
ATOM      1  C   UNL     1       2.478   4.983  18.038  0.00  0.00    +0.000 C 
ENDROOT
BRANCH   1   2
ATOM      2  C   UNL     1       3.735   5.025  17.148  0.00  0.00    +0.000 A 
ATOM      3  C   UNL     1       4.529   6.182  17.022  0.00  0.00    +0.000 A 
ATOM      4  C   UNL     1       5.690   6.180  16.240  0.00  0.00    +0.000 A 
ATOM      5  C   UNL     1       6.064   5.030  15.550  0.00  0.00    +0.000 A 
ATOM      6 CL   UNL     1       7.455   5.049  14.540  0.00  0.00    +0.000 Cl
ATOM      7  C   UNL     1       5.314   3.866  15.675  0.00  0.00    +0.000 A 
ATOM      8  C   UNL     1       4.179   3.857  16.487  0.00  0.00    +0.000 A 
ENDBRANCH   1   2
BRANCH   1   9
ATOM      9  C   UNL     1       2.491   4.024  19.244  0.00  0.00    +0.000 A 
ATOM     10  C   UNL     1       1.418   4.066  20.167  0.00  0.00    +0.000 A 
ATOM     11  C   UNL     1       1.446   3.344  21.364  0.00  0.00    +0.000 A 
ATOM     12  C   UNL     1       2.549   2.554  21.669  0.00  0.00    +0.000 A 
ATOM     13  C   UNL     1       3.590   2.451  20.750  0.00  0.00    +0.000 A 
ATOM     14 CL   UNL     1       4.965   1.487  21.132  0.00  0.00    +0.000 Cl
ATOM     15  C   UNL     1       3.553   3.152  19.540  0.00  0.00    +0.000 A 
ENDBRANCH   1   9
BRANCH   1  16
ATOM     16  O   UNL     1       1.345   4.604  17.243  0.00  0.00    +0.000 OA
ATOM     17  H   UNL     1       1.350   3.633  17.231  0.00  0.00    +0.000 HD
ENDBRANCH   1  16
BRANCH   1  18
ATOM     18  C   UNL     1       2.227   6.364  18.521  0.00  0.00    +0.000 C 
ATOM     19  C   UNL     1       2.008   7.484  18.890  0.00  0.00    +0.000 C 
BRANCH  19  20
ATOM     20  C   UNL     1       1.687   8.843  19.340  0.00  0.00    +0.000 C 
BRANCH  20  21
ATOM     21  N   UNL     1       1.299   9.712  18.221  0.00  0.00    +0.000 NA
ATOM     22  C   UNL     1       1.822  11.082  18.425  0.00  0.00    +0.000 C 
ATOM     23  C   UNL     1       1.074  11.876  19.515  0.00  0.00    +0.000 C 
ATOM     24  O   UNL     1      -0.334  11.927  19.259  0.00  0.00    +0.000 OA
ATOM     25  C   UNL     1      -0.883  10.610  19.130  0.00  0.00    +0.000 C 
ATOM     26  C   UNL     1      -0.165   9.821  18.027  0.00  0.00    +0.000 C 
ENDBRANCH  20  21
ENDBRANCH  19  20
ENDBRANCH   1  18
TORSDOF 6
ENDMDL
MODEL 7
REMARK VINA RESULT:      -6.7      5.030      7.863
REMARK  Name = 
REMARK  6 active torsions:
REMARK  status: ('A' for Active; 'I' for Inactive)
REMARK    1  A    between atoms: O_1  and  C_2
REMARK    2  A    between atoms: C_2  and  C_3
REMARK    3  A    between atoms: C_2  and  C_12
REMARK    4  A    between atoms: C_2  and  C_19
REMARK    5  A    between atoms: C_4  and  C_5
REMARK    6  A    between atoms: C_5  and  N_6
REMARK                            x       y       z     vdW  Elec       q    Type
REMARK                         _______ _______ _______ _____ _____    ______ ____
ROOT
ATOM      1  C   UNL     1       0.725  10.511  19.430  0.00  0.00    +0.000 C 
ENDROOT
BRANCH   1   2
ATOM      2  C   UNL     1      -0.654  10.655  18.758  0.00  0.00    +0.000 A 
ATOM      3  C   UNL     1      -1.047   9.852  17.669  0.00  0.00    +0.000 A 
ATOM      4  C   UNL     1      -2.322   9.974  17.104  0.00  0.00    +0.000 A 
ATOM      5  C   UNL     1      -3.217  10.917  17.601  0.00  0.00    +0.000 A 
ATOM      6 CL   UNL     1      -4.759  11.109  16.865  0.00  0.00    +0.000 Cl
ATOM      7  C   UNL     1      -2.867  11.706  18.691  0.00  0.00    +0.000 A 
ATOM      8  C   UNL     1      -1.610  11.556  19.279  0.00  0.00    +0.000 A 
ENDBRANCH   1   2
BRANCH   1   9
ATOM      9  C   UNL     1       1.507   9.208  19.180  0.00  0.00    +0.000 A 
ATOM     10  C   UNL     1       2.199   9.046  17.956  0.00  0.00    +0.000 A 
ATOM     11  C   UNL     1       2.789   7.830  17.596  0.00  0.00    +0.000 A 
ATOM     12  C   UNL     1       2.707   6.742  18.458  0.00  0.00    +0.000 A 
ATOM     13  C   UNL     1       2.084   6.894  19.693  0.00  0.00    +0.000 A 
ATOM     14 CL   UNL     1       1.966   5.543  20.755  0.00  0.00    +0.000 Cl
ATOM     15  C   UNL     1       1.515   8.117  20.065  0.00  0.00    +0.000 A 
ENDBRANCH   1   9
BRANCH   1  16
ATOM     16  O   UNL     1       0.573  10.616  20.853  0.00  0.00    +0.000 OA
ATOM     17  H   UNL     1       0.118  11.461  21.003  0.00  0.00    +0.000 HD
ENDBRANCH   1  16
BRANCH   1  18
ATOM     18  C   UNL     1       1.555  11.664  18.996  0.00  0.00    +0.000 C 
ATOM     19  C   UNL     1       2.202  12.610  18.644  0.00  0.00    +0.000 C 
BRANCH  19  20
ATOM     20  C   UNL     1       2.973  13.795  18.255  0.00  0.00    +0.000 C 
BRANCH  20  21
ATOM     21  N   UNL     1       2.917  14.845  19.281  0.00  0.00    +0.000 NA
ATOM     22  C   UNL     1       2.140  16.006  18.790  0.00  0.00    +0.000 C 
ATOM     23  C   UNL     1       2.884  16.850  17.736  0.00  0.00    +0.000 C 
ATOM     24  O   UNL     1       4.162  17.287  18.215  0.00  0.00    +0.000 OA
ATOM     25  C   UNL     1       4.965  16.175  18.629  0.00  0.00    +0.000 C 
ATOM     26  C   UNL     1       4.245  15.346  19.700  0.00  0.00    +0.000 C 
ENDBRANCH  20  21
ENDBRANCH  19  20
ENDBRANCH   1  18
TORSDOF 6
ENDMDL
MODEL 8
REMARK VINA RESULT:      -6.6      5.943     10.553
REMARK  Name = 
REMARK  6 active torsions:
REMARK  status: ('A' for Active; 'I' for Inactive)
REMARK    1  A    between atoms: O_1  and  C_2
REMARK    2  A    between atoms: C_2  and  C_3
REMARK    3  A    between atoms: C_2  and  C_12
REMARK    4  A    between atoms: C_2  and  C_19
REMARK    5  A    between atoms: C_4  and  C_5
REMARK    6  A    between atoms: C_5  and  N_6
REMARK                            x       y       z     vdW  Elec       q    Type
REMARK                         _______ _______ _______ _____ _____    ______ ____
ROOT
ATOM      1  C   UNL     1      -0.688  11.092  18.819  0.00  0.00    +0.000 C 
ENDROOT
BRANCH   1   2
ATOM      2  C   UNL     1       0.282   9.909  19.006  0.00  0.00    +0.000 A 
ATOM      3  C   UNL     1       1.127   9.457  17.973  0.00  0.00    +0.000 A 
ATOM      4  C   UNL     1       2.030   8.408  18.183  0.00  0.00    +0.000 A 
ATOM      5  C   UNL     1       2.085   7.775  19.422  0.00  0.00    +0.000 A 
ATOM      6 CL   UNL     1       3.149   6.446  19.659  0.00  0.00    +0.000 Cl
ATOM      7  C   UNL     1       1.283   8.215  20.468  0.00  0.00    +0.000 A 
ATOM      8  C   UNL     1       0.411   9.288  20.269  0.00  0.00    +0.000 A 
ENDBRANCH   1   2
BRANCH   1   9
ATOM      9  C   UNL     1      -1.922  10.865  17.926  0.00  0.00    +0.000 A 
ATOM     10  C   UNL     1      -1.832   9.954  16.846  0.00  0.00    +0.000 A 
ATOM     11  C   UNL     1      -2.855   9.823  15.903  0.00  0.00    +0.000 A 
ATOM     12  C   UNL     1      -4.004  10.599  16.018  0.00  0.00    +0.000 A 
ATOM     13  C   UNL     1      -4.141  11.458  17.104  0.00  0.00    +0.000 A 
ATOM     14 CL   UNL     1      -5.554  12.433  17.240  0.00  0.00    +0.000 Cl
ATOM     15  C   UNL     1      -3.129  11.573  18.064  0.00  0.00    +0.000 A 
ENDBRANCH   1   9
BRANCH   1  16
ATOM     16  O   UNL     1       0.020  12.199  18.243  0.00  0.00    +0.000 OA
ATOM     17  H   UNL     1      -0.159  12.154  17.289  0.00  0.00    +0.000 HD
ENDBRANCH   1  16
BRANCH   1  18
ATOM     18  C   UNL     1      -1.138  11.518  20.168  0.00  0.00    +0.000 C 
ATOM     19  C   UNL     1      -1.475  11.867  21.264  0.00  0.00    +0.000 C 
BRANCH  19  20
ATOM     20  C   UNL     1      -1.864  12.343  22.596  0.00  0.00    +0.000 C 
BRANCH  20  21
ATOM     21  N   UNL     1      -3.291  12.113  22.862  0.00  0.00    +0.000 NA
ATOM     22  C   UNL     1      -4.123  12.837  21.873  0.00  0.00    +0.000 C 
ATOM     23  C   UNL     1      -4.160  14.362  22.091  0.00  0.00    +0.000 C 
ATOM     24  O   UNL     1      -4.582  14.697  23.419  0.00  0.00    +0.000 OA
ATOM     25  C   UNL     1      -3.747  14.068  24.399  0.00  0.00    +0.000 C 
ATOM     26  C   UNL     1      -3.726  12.546  24.209  0.00  0.00    +0.000 C 
ENDBRANCH  20  21
ENDBRANCH  19  20
ENDBRANCH   1  18
TORSDOF 6
ENDMDL
MODEL 9
REMARK VINA RESULT:      -6.6      5.664     10.254
REMARK  Name = 
REMARK  6 active torsions:
REMARK  status: ('A' for Active; 'I' for Inactive)
REMARK    1  A    between atoms: O_1  and  C_2
REMARK    2  A    between atoms: C_2  and  C_3
REMARK    3  A    between atoms: C_2  and  C_12
REMARK    4  A    between atoms: C_2  and  C_19
REMARK    5  A    between atoms: C_4  and  C_5
REMARK    6  A    between atoms: C_5  and  N_6
REMARK                            x       y       z     vdW  Elec       q    Type
REMARK                         _______ _______ _______ _____ _____    ______ ____
ROOT
ATOM      1  C   UNL     1      -0.316  10.981  18.928  0.00  0.00    +0.000 C 
ENDROOT
BRANCH   1   2
ATOM      2  C   UNL     1       0.601   9.749  19.054  0.00  0.00    +0.000 A 
ATOM      3  C   UNL     1       1.403   9.295  17.988  0.00  0.00    +0.000 A 
ATOM      4  C   UNL     1       2.259   8.199  18.142  0.00  0.00    +0.000 A 
ATOM      5  C   UNL     1       2.310   7.521  19.357  0.00  0.00    +0.000 A 
ATOM      6 CL   UNL     1       3.314   6.136  19.525  0.00  0.00    +0.000 Cl
ATOM      7  C   UNL     1       1.550   7.960  20.435  0.00  0.00    +0.000 A 
ATOM      8  C   UNL     1       0.726   9.078  20.291  0.00  0.00    +0.000 A 
ENDBRANCH   1   2
BRANCH   1   9
ATOM      9  C   UNL     1      -1.652  10.801  18.183  0.00  0.00    +0.000 A 
ATOM     10  C   UNL     1      -1.697   9.958  17.047  0.00  0.00    +0.000 A 
ATOM     11  C   UNL     1      -2.830   9.878  16.232  0.00  0.00    +0.000 A 
ATOM     12  C   UNL     1      -3.954  10.638  16.535  0.00  0.00    +0.000 A 
ATOM     13  C   UNL     1      -3.955  11.429  17.680  0.00  0.00    +0.000 A 
ATOM     14 CL   UNL     1      -5.339  12.385  18.050  0.00  0.00    +0.000 Cl
ATOM     15  C   UNL     1      -2.831  11.492  18.512  0.00  0.00    +0.000 A 
ENDBRANCH   1   9
BRANCH   1  16
ATOM     16  O   UNL     1       0.385  12.026  18.238  0.00  0.00    +0.000 OA
ATOM     17  H   UNL     1       0.702  11.624  17.412  0.00  0.00    +0.000 HD
ENDBRANCH   1  16
BRANCH   1  18
ATOM     18  C   UNL     1      -0.590  11.476  20.301  0.00  0.00    +0.000 C 
ATOM     19  C   UNL     1      -0.818  11.900  21.399  0.00  0.00    +0.000 C 
BRANCH  19  20
ATOM     20  C   UNL     1      -1.145  12.432  22.726  0.00  0.00    +0.000 C 
BRANCH  20  21
ATOM     21  N   UNL     1      -1.908  13.685  22.638  0.00  0.00    +0.000 NA
ATOM     22  C   UNL     1      -2.515  14.012  23.950  0.00  0.00    +0.000 C 
ATOM     23  C   UNL     1      -3.714  13.117  24.319  0.00  0.00    +0.000 C 
ATOM     24  O   UNL     1      -4.721  13.134  23.300  0.00  0.00    +0.000 OA
ATOM     25  C   UNL     1      -4.177  12.749  22.031  0.00  0.00    +0.000 C 
ATOM     26  C   UNL     1      -3.000  13.653  21.640  0.00  0.00    +0.000 C 
ENDBRANCH  20  21
ENDBRANCH  19  20
ENDBRANCH   1  18
TORSDOF 6
ENDMDL
