MODEL 1
REMARK VINA RESULT:      -8.9      0.000      0.000
REMARK  Name = 
REMARK  8 active torsions:
REMARK  status: ('A' for Active; 'I' for Inactive)
REMARK    1  A    between atoms: C_1  and  C_2
REMARK    2  A    between atoms: C_2  and  C_3
REMARK    3  A    between atoms: C_2  and  C_4
REMARK    4  A    between atoms: C_2  and  N_28
REMARK    5  A    between atoms: C_4  and  N_5
REMARK    6  A    between atoms: C_6  and  C_8
REMARK    7  A    between atoms: C_13  and  S_14
REMARK    8  A    between atoms: S_14  and  N_17
REMARK                            x       y       z     vdW  Elec       q    Type
REMARK                         _______ _______ _______ _____ _____    ______ ____
ROOT
ATOM      1  C   UNL     1       1.126   8.565  20.925  0.00  0.00    +0.000 A 
ATOM      2  C   UNL     1       0.390   8.185  22.052  0.00  0.00    +0.000 A 
ATOM      3  C   UNL     1      -0.431   9.111  22.694  0.00  0.00    +0.000 A 
ATOM      4  C   UNL     1      -0.489  10.435  22.245  0.00  0.00    +0.000 A 
ATOM      5 CL   UNL     1      -1.651  11.444  23.020  0.00  0.00    +0.000 Cl
ATOM      6  C   UNL     1       0.343  10.840  21.197  0.00  0.00    +0.000 A 
ATOM      7  C   UNL     1       1.145   9.903  20.527  0.00  0.00    +0.000 A 
ENDROOT
BRANCH   1   9
ATOM      8  N   UNL     1       1.973   6.284  20.797  0.00  0.00    +0.000 N 
ATOM      9  C   UNL     1       1.821   7.500  20.164  0.00  0.00    +0.000 C 
ATOM     10  O   UNL     1       2.299   7.751  19.064  0.00  0.00    +0.000 OA
ATOM     11  H   UNL     1       1.570   6.077  21.704  0.00  0.00    +0.000 HD
BRANCH   8  12
ATOM     12  C   UNL     1       2.811   5.269  20.191  0.00  0.00    +0.000 C 
BRANCH  12  14
ATOM     13  C   UNL     1       2.252   3.502  21.821  0.00  0.00    +0.000 C 
ATOM     14  C   UNL     1       2.276   3.802  20.309  0.00  0.00    +0.000 C 
ATOM     15  C   UNL     1       0.803   3.805  19.821  0.00  0.00    +0.000 C 
BRANCH  14  16
ATOM     16  N   UNL     1       3.053   2.848  19.469  0.00  0.00    +0.000 NA
ATOM     17  C   UNL     1       4.525   3.004  19.419  0.00  0.00    +0.000 C 
ATOM     18  C   UNL     1       5.098   3.839  18.252  0.00  0.00    +0.000 C 
ATOM     19  O   UNL     1       4.511   3.521  16.986  0.00  0.00    +0.000 OA
ATOM     20  C   UNL     1       3.085   3.594  17.058  0.00  0.00    +0.000 C 
ATOM     21  C   UNL     1       2.565   2.597  18.098  0.00  0.00    +0.000 C 
ENDBRANCH  14  16
ENDBRANCH  12  14
ENDBRANCH   8  12
ENDBRANCH   1   9
BRANCH   6  22
ATOM     22  S   UNL     1       0.534  12.547  20.767  0.00  0.00    +0.000 S 
ATOM     23  O   UNL     1       0.398  13.300  21.999  0.00  0.00    +0.000 OA
ATOM     24  O   UNL     1       1.741  12.659  19.970  0.00  0.00    +0.000 OA
BRANCH  22  25
ATOM     25  N   UNL     1      -0.748  12.869  19.755  0.00  0.00    +0.000 NA
ATOM     26  C   UNL     1      -1.930  13.606  20.230  0.00  0.00    +0.000 C 
ATOM     27  C   UNL     1      -3.171  12.713  20.244  0.00  0.00    +0.000 C 
ATOM     28  C   UNL     1      -3.404  12.096  18.890  0.00  0.00    +0.000 A 
ATOM     29  C   UNL     1      -4.695  11.768  18.457  0.00  0.00    +0.000 A 
ATOM     30  C   UNL     1      -4.890  11.188  17.202  0.00  0.00    +0.000 A 
ATOM     31  C   UNL     1      -3.800  10.919  16.376  0.00  0.00    +0.000 A 
ATOM     32  C   UNL     1      -2.512  11.220  16.810  0.00  0.00    +0.000 A 
ATOM     33  C   UNL     1      -2.304  11.805  18.068  0.00  0.00    +0.000 A 
ATOM     34  C   UNL     1      -0.889  12.054  18.536  0.00  0.00    +0.000 C 
ENDBRANCH  22  25
ENDBRANCH   6  22
TORSDOF 6
ENDMDL
MODEL 2
REMARK VINA RESULT:      -8.7      1.074      1.332
REMARK  Name = 
REMARK  8 active torsions:
REMARK  status: ('A' for Active; 'I' for Inactive)
REMARK    1  A    between atoms: C_1  and  C_2
REMARK    2  A    between atoms: C_2  and  C_3
REMARK    3  A    between atoms: C_2  and  C_4
REMARK    4  A    between atoms: C_2  and  N_28
REMARK    5  A    between atoms: C_4  and  N_5
REMARK    6  A    between atoms: C_6  and  C_8
REMARK    7  A    between atoms: C_13  and  S_14
REMARK    8  A    between atoms: S_14  and  N_17
REMARK                            x       y       z     vdW  Elec       q    Type
REMARK                         _______ _______ _______ _____ _____    ______ ____
ROOT
ATOM      1  C   UNL     1       1.063   9.004  20.548  0.00  0.00    +0.000 A 
ATOM      2  C   UNL     1       0.483   8.437  21.687  0.00  0.00    +0.000 A 
ATOM      3  C   UNL     1      -0.354   9.202  22.498  0.00  0.00    +0.000 A 
ATOM      4  C   UNL     1      -0.581  10.552  22.206  0.00  0.00    +0.000 A 
ATOM      5 CL   UNL     1      -1.751  11.350  23.189  0.00  0.00    +0.000 Cl
ATOM      6  C   UNL     1       0.099  11.145  21.139  0.00  0.00    +0.000 A 
ATOM      7  C   UNL     1       0.915  10.370  20.301  0.00  0.00    +0.000 A 
ENDROOT
BRANCH   1   9
ATOM      8  N   UNL     1       2.223   6.903  20.131  0.00  0.00    +0.000 N 
ATOM      9  C   UNL     1       1.776   8.100  19.614  0.00  0.00    +0.000 C 
ATOM     10  O   UNL     1       2.012   8.471  18.470  0.00  0.00    +0.000 OA
ATOM     11  H   UNL     1       2.019   6.596  21.076  0.00  0.00    +0.000 HD
BRANCH   8  12
ATOM     12  C   UNL     1       3.094   6.066  19.330  0.00  0.00    +0.000 C 
BRANCH  12  14
ATOM     13  C   UNL     1       1.714   4.256  20.285  0.00  0.00    +0.000 C 
ATOM     14  C   UNL     1       2.559   4.621  19.048  0.00  0.00    +0.000 C 
ATOM     15  C   UNL     1       1.587   4.713  17.842  0.00  0.00    +0.000 C 
BRANCH  14  16
ATOM     16  N   UNL     1       3.654   3.671  18.705  0.00  0.00    +0.000 NA
ATOM     17  C   UNL     1       4.986   3.894  19.313  0.00  0.00    +0.000 C 
ATOM     18  C   UNL     1       6.004   4.706  18.482  0.00  0.00    +0.000 C 
ATOM     19  O   UNL     1       6.060   4.307  17.108  0.00  0.00    +0.000 OA
ATOM     20  C   UNL     1       4.754   4.317  16.527  0.00  0.00    +0.000 C 
ATOM     21  C   UNL     1       3.844   3.340  17.278  0.00  0.00    +0.000 C 
ENDBRANCH  14  16
ENDBRANCH  12  14
ENDBRANCH   8  12
ENDBRANCH   1   9
BRANCH   6  22
ATOM     22  S   UNL     1       0.084  12.898  20.886  0.00  0.00    +0.000 S 
ATOM     23  O   UNL     1       0.142  13.504  22.202  0.00  0.00    +0.000 OA
ATOM     24  O   UNL     1       1.100  13.200  19.894  0.00  0.00    +0.000 OA
BRANCH  22  25
ATOM     25  N   UNL     1      -1.391  13.205  20.178  0.00  0.00    +0.000 NA
ATOM     26  C   UNL     1      -2.356  14.130  20.794  0.00  0.00    +0.000 C 
ATOM     27  C   UNL     1      -3.610  13.393  21.265  0.00  0.00    +0.000 C 
ATOM     28  C   UNL     1      -4.228  12.610  20.137  0.00  0.00    +0.000 A 
ATOM     29  C   UNL     1      -5.606  12.366  20.096  0.00  0.00    +0.000 A 
ATOM     30  C   UNL     1      -6.161  11.631  19.046  0.00  0.00    +0.000 A 
ATOM     31  C   UNL     1      -5.344  11.123  18.039  0.00  0.00    +0.000 A 
ATOM     32  C   UNL     1      -3.969  11.340  18.085  0.00  0.00    +0.000 A 
ATOM     33  C   UNL     1      -3.401  12.080  19.133  0.00  0.00    +0.000 A 
ATOM     34  C   UNL     1      -1.900  12.238  19.190  0.00  0.00    +0.000 C 
ENDBRANCH  22  25
ENDBRANCH   6  22
TORSDOF 6
ENDMDL
MODEL 3
REMARK VINA RESULT:      -8.6      1.670      2.113
REMARK  Name = 
REMARK  8 active torsions:
REMARK  status: ('A' for Active; 'I' for Inactive)
REMARK    1  A    between atoms: C_1  and  C_2
REMARK    2  A    between atoms: C_2  and  C_3
REMARK    3  A    between atoms: C_2  and  C_4
REMARK    4  A    between atoms: C_2  and  N_28
REMARK    5  A    between atoms: C_4  and  N_5
REMARK    6  A    between atoms: C_6  and  C_8
REMARK    7  A    between atoms: C_13  and  S_14
REMARK    8  A    between atoms: S_14  and  N_17
REMARK                            x       y       z     vdW  Elec       q    Type
REMARK                         _______ _______ _______ _____ _____    ______ ____
ROOT
ATOM      1  C   UNL     1       1.645   8.813  19.548  0.00  0.00    +0.000 A 
ATOM      2  C   UNL     1       1.210   8.082  20.658  0.00  0.00    +0.000 A 
ATOM      3  C   UNL     1       0.431   8.698  21.636  0.00  0.00    +0.000 A 
ATOM      4  C   UNL     1       0.119  10.059  21.540  0.00  0.00    +0.000 A 
ATOM      5 CL   UNL     1      -0.974  10.668  22.724  0.00  0.00    +0.000 Cl
ATOM      6  C   UNL     1       0.661  10.812  20.495  0.00  0.00    +0.000 A 
ATOM      7  C   UNL     1       1.417  10.189  19.490  0.00  0.00    +0.000 A 
ENDROOT
BRANCH   1   9
ATOM      8  N   UNL     1       2.946   6.901  18.781  0.00  0.00    +0.000 N 
ATOM      9  C   UNL     1       2.294   8.068  18.443  0.00  0.00    +0.000 C 
ATOM     10  O   UNL     1       2.304   8.542  17.312  0.00  0.00    +0.000 OA
ATOM     11  H   UNL     1       2.930   6.508  19.715  0.00  0.00    +0.000 HD
BRANCH   8  12
ATOM     12  C   UNL     1       3.763   6.233  17.789  0.00  0.00    +0.000 C 
BRANCH  12  14
ATOM     13  C   UNL     1       3.681   4.539  19.583  0.00  0.00    +0.000 C 
ATOM     14  C   UNL     1       4.170   4.760  18.137  0.00  0.00    +0.000 C 
ATOM     15  C   UNL     1       3.337   3.822  17.225  0.00  0.00    +0.000 C 
BRANCH  14  16
ATOM     16  N   UNL     1       5.616   4.501  17.892  0.00  0.00    +0.000 NA
ATOM     17  C   UNL     1       6.598   5.473  18.424  0.00  0.00    +0.000 C 
ATOM     18  C   UNL     1       7.070   6.585  17.461  0.00  0.00    +0.000 C 
ATOM     19  O   UNL     1       7.391   6.102  16.152  0.00  0.00    +0.000 OA
ATOM     20  C   UNL     1       6.306   5.341  15.615  0.00  0.00    +0.000 C 
ATOM     21  C   UNL     1       6.018   4.138  16.518  0.00  0.00    +0.000 C 
ENDBRANCH  14  16
ENDBRANCH  12  14
ENDBRANCH   8  12
ENDBRANCH   1   9
BRANCH   6  22
ATOM     22  S   UNL     1       0.548  12.579  20.466  0.00  0.00    +0.000 S 
ATOM     23  O   UNL     1       0.450  13.008  21.848  0.00  0.00    +0.000 OA
ATOM     24  O   UNL     1       1.623  13.068  19.622  0.00  0.00    +0.000 OA
BRANCH  22  25
ATOM     25  N   UNL     1      -0.878  12.894  19.666  0.00  0.00    +0.000 NA
ATOM     26  C   UNL     1      -1.985  13.601  20.329  0.00  0.00    +0.000 C 
ATOM     27  C   UNL     1      -3.196  12.686  20.515  0.00  0.00    +0.000 C 
ATOM     28  C   UNL     1      -3.622  12.086  19.201  0.00  0.00    +0.000 A 
ATOM     29  C   UNL     1      -4.959  11.742  18.962  0.00  0.00    +0.000 A 
ATOM     30  C   UNL     1      -5.334  11.178  17.741  0.00  0.00    +0.000 A 
ATOM     31  C   UNL     1      -4.378  10.943  16.755  0.00  0.00    +0.000 A 
ATOM     32  C   UNL     1      -3.043  11.260  16.994  0.00  0.00    +0.000 A 
ATOM     33  C   UNL     1      -2.656  11.829  18.216  0.00  0.00    +0.000 A 
ATOM     34  C   UNL     1      -1.190  12.096  18.468  0.00  0.00    +0.000 C 
ENDBRANCH  22  25
ENDBRANCH   6  22
TORSDOF 6
ENDMDL
MODEL 4
REMARK VINA RESULT:      -8.5      1.287      2.016
REMARK  Name = 
REMARK  8 active torsions:
REMARK  status: ('A' for Active; 'I' for Inactive)
REMARK    1  A    between atoms: C_1  and  C_2
REMARK    2  A    between atoms: C_2  and  C_3
REMARK    3  A    between atoms: C_2  and  C_4
REMARK    4  A    between atoms: C_2  and  N_28
REMARK    5  A    between atoms: C_4  and  N_5
REMARK    6  A    between atoms: C_6  and  C_8
REMARK    7  A    between atoms: C_13  and  S_14
REMARK    8  A    between atoms: S_14  and  N_17
REMARK                            x       y       z     vdW  Elec       q    Type
REMARK                         _______ _______ _______ _____ _____    ______ ____
ROOT
ATOM      1  C   UNL     1       1.128   8.715  20.654  0.00  0.00    +0.000 A 
ATOM      2  C   UNL     1       1.050   8.693  22.050  0.00  0.00    +0.000 A 
ATOM      3  C   UNL     1       0.208   9.584  22.715  0.00  0.00    +0.000 A 
ATOM      4  C   UNL     1      -0.525  10.535  21.996  0.00  0.00    +0.000 A 
ATOM      5 CL   UNL     1      -1.643  11.475  22.911  0.00  0.00    +0.000 Cl
ATOM      6  C   UNL     1      -0.348  10.634  20.613  0.00  0.00    +0.000 A 
ATOM      7  C   UNL     1       0.472   9.717  19.937  0.00  0.00    +0.000 A 
ENDROOT
BRANCH   1   9
ATOM      8  N   UNL     1       1.988   6.435  20.682  0.00  0.00    +0.000 N 
ATOM      9  C   UNL     1       1.876   7.622  19.988  0.00  0.00    +0.000 C 
ATOM     10  O   UNL     1       2.427   7.828  18.913  0.00  0.00    +0.000 OA
ATOM     11  H   UNL     1       1.524   6.265  21.567  0.00  0.00    +0.000 HD
BRANCH   8  12
ATOM     12  C   UNL     1       2.867   5.400  20.178  0.00  0.00    +0.000 C 
BRANCH  12  14
ATOM     13  C   UNL     1       2.282   3.660  21.829  0.00  0.00    +0.000 C 
ATOM     14  C   UNL     1       2.325   3.937  20.312  0.00  0.00    +0.000 C 
ATOM     15  C   UNL     1       0.857   3.938  19.808  0.00  0.00    +0.000 C 
BRANCH  14  16
ATOM     16  N   UNL     1       3.107   2.967  19.496  0.00  0.00    +0.000 NA
ATOM     17  C   UNL     1       4.564   3.191  19.355  0.00  0.00    +0.000 C 
ATOM     18  C   UNL     1       5.031   3.971  18.105  0.00  0.00    +0.000 C 
ATOM     19  O   UNL     1       4.397   3.537  16.897  0.00  0.00    +0.000 OA
ATOM     20  C   UNL     1       2.975   3.545  17.043  0.00  0.00    +0.000 C 
ATOM     21  C   UNL     1       2.563   2.598  18.173  0.00  0.00    +0.000 C 
ENDBRANCH  14  16
ENDBRANCH  12  14
ENDBRANCH   8  12
ENDBRANCH   1   9
BRANCH   6  22
ATOM     22  S   UNL     1      -1.017  11.985  19.684  0.00  0.00    +0.000 S 
ATOM     23  O   UNL     1      -0.979  13.143  20.556  0.00  0.00    +0.000 OA
ATOM     24  O   UNL     1      -0.333  12.009  18.404  0.00  0.00    +0.000 OA
BRANCH  22  25
ATOM     25  N   UNL     1      -2.594  11.545  19.384  0.00  0.00    +0.000 NA
ATOM     26  C   UNL     1      -2.948  10.724  18.215  0.00  0.00    +0.000 C 
ATOM     27  C   UNL     1      -3.796  11.514  17.218  0.00  0.00    +0.000 C 
ATOM     28  C   UNL     1      -5.016  12.089  17.888  0.00  0.00    +0.000 A 
ATOM     29  C   UNL     1      -6.200  12.305  17.172  0.00  0.00    +0.000 A 
ATOM     30  C   UNL     1      -7.319  12.847  17.808  0.00  0.00    +0.000 A 
ATOM     31  C   UNL     1      -7.261  13.189  19.157  0.00  0.00    +0.000 A 
ATOM     32  C   UNL     1      -6.079  13.000  19.870  0.00  0.00    +0.000 A 
ATOM     33  C   UNL     1      -4.950  12.453  19.242  0.00  0.00    +0.000 A 
ATOM     34  C   UNL     1      -3.665  12.326  20.026  0.00  0.00    +0.000 C 
ENDBRANCH  22  25
ENDBRANCH   6  22
TORSDOF 6
ENDMDL
MODEL 5
REMARK VINA RESULT:      -8.5      2.446      3.522
REMARK  Name = 
REMARK  8 active torsions:
REMARK  status: ('A' for Active; 'I' for Inactive)
REMARK    1  A    between atoms: C_1  and  C_2
REMARK    2  A    between atoms: C_2  and  C_3
REMARK    3  A    between atoms: C_2  and  C_4
REMARK    4  A    between atoms: C_2  and  N_28
REMARK    5  A    between atoms: C_4  and  N_5
REMARK    6  A    between atoms: C_6  and  C_8
REMARK    7  A    between atoms: C_13  and  S_14
REMARK    8  A    between atoms: S_14  and  N_17
REMARK                            x       y       z     vdW  Elec       q    Type
REMARK                         _______ _______ _______ _____ _____    ______ ____
ROOT
ATOM      1  C   UNL     1       1.181   8.579  20.682  0.00  0.00    +0.000 A 
ATOM      2  C   UNL     1       1.186   8.624  22.080  0.00  0.00    +0.000 A 
ATOM      3  C   UNL     1       0.388   9.550  22.751  0.00  0.00    +0.000 A 
ATOM      4  C   UNL     1      -0.385  10.470  22.033  0.00  0.00    +0.000 A 
ATOM      5 CL   UNL     1      -1.443  11.458  22.967  0.00  0.00    +0.000 Cl
ATOM      6  C   UNL     1      -0.290  10.503  20.638  0.00  0.00    +0.000 A 
ATOM      7  C   UNL     1       0.485   9.551  19.959  0.00  0.00    +0.000 A 
ENDROOT
BRANCH   1   9
ATOM      8  N   UNL     1       2.049   6.305  20.772  0.00  0.00    +0.000 N 
ATOM      9  C   UNL     1       1.885   7.452  20.025  0.00  0.00    +0.000 C 
ATOM     10  O   UNL     1       2.359   7.601  18.905  0.00  0.00    +0.000 OA
ATOM     11  H   UNL     1       1.648   6.183  21.696  0.00  0.00    +0.000 HD
BRANCH   8  12
ATOM     12  C   UNL     1       2.894   5.244  20.264  0.00  0.00    +0.000 C 
BRANCH  12  14
ATOM     13  C   UNL     1       2.256   3.430  21.812  0.00  0.00    +0.000 C 
ATOM     14  C   UNL     1       2.271   3.807  20.317  0.00  0.00    +0.000 C 
ATOM     15  C   UNL     1       0.793   3.927  19.862  0.00  0.00    +0.000 C 
BRANCH  14  16
ATOM     16  N   UNL     1       2.972   2.854  19.413  0.00  0.00    +0.000 NA
ATOM     17  C   UNL     1       4.446   2.949  19.307  0.00  0.00    +0.000 C 
ATOM     18  C   UNL     1       5.009   3.802  18.149  0.00  0.00    +0.000 C 
ATOM     19  O   UNL     1       4.359   3.557  16.897  0.00  0.00    +0.000 OA
ATOM     20  C   UNL     1       2.941   3.688  17.031  0.00  0.00    +0.000 C 
ATOM     21  C   UNL     1       2.419   2.676  18.054  0.00  0.00    +0.000 C 
ENDBRANCH  14  16
ENDBRANCH  12  14
ENDBRANCH   8  12
ENDBRANCH   1   9
BRANCH   6  22
ATOM     22  S   UNL     1      -1.009  11.812  19.688  0.00  0.00    +0.000 S 
ATOM     23  O   UNL     1      -1.031  11.358  18.311  0.00  0.00    +0.000 OA
ATOM     24  O   UNL     1      -2.240  12.201  20.351  0.00  0.00    +0.000 OA
BRANCH  22  25
ATOM     25  N   UNL     1       0.054  13.083  19.855  0.00  0.00    +0.000 NA
ATOM     26  C   UNL     1      -0.402  14.403  20.320  0.00  0.00    +0.000 C 
ATOM     27  C   UNL     1      -0.271  15.454  19.217  0.00  0.00    +0.000 C 
ATOM     28  C   UNL     1       1.137  15.503  18.685  0.00  0.00    +0.000 A 
ATOM     29  C   UNL     1       1.674  16.688  18.166  0.00  0.00    +0.000 A 
ATOM     30  C   UNL     1       2.978  16.712  17.669  0.00  0.00    +0.000 A 
ATOM     31  C   UNL     1       3.752  15.554  17.677  0.00  0.00    +0.000 A 
ATOM     32  C   UNL     1       3.218  14.366  18.170  0.00  0.00    +0.000 A 
ATOM     33  C   UNL     1       1.909  14.331  18.673  0.00  0.00    +0.000 A 
ATOM     34  C   UNL     1       1.337  13.011  19.136  0.00  0.00    +0.000 C 
ENDBRANCH  22  25
ENDBRANCH   6  22
TORSDOF 6
ENDMDL
MODEL 6
REMARK VINA RESULT:      -8.5      1.276      1.809
REMARK  Name = 
REMARK  8 active torsions:
REMARK  status: ('A' for Active; 'I' for Inactive)
REMARK    1  A    between atoms: C_1  and  C_2
REMARK    2  A    between atoms: C_2  and  C_3
REMARK    3  A    between atoms: C_2  and  C_4
REMARK    4  A    between atoms: C_2  and  N_28
REMARK    5  A    between atoms: C_4  and  N_5
REMARK    6  A    between atoms: C_6  and  C_8
REMARK    7  A    between atoms: C_13  and  S_14
REMARK    8  A    between atoms: S_14  and  N_17
REMARK                            x       y       z     vdW  Elec       q    Type
REMARK                         _______ _______ _______ _____ _____    ______ ____
ROOT
ATOM      1  C   UNL     1       1.028   9.176  20.482  0.00  0.00    +0.000 A 
ATOM      2  C   UNL     1       0.513   8.563  21.628  0.00  0.00    +0.000 A 
ATOM      3  C   UNL     1      -0.317   9.279  22.490  0.00  0.00    +0.000 A 
ATOM      4  C   UNL     1      -0.601  10.627  22.240  0.00  0.00    +0.000 A 
ATOM      5 CL   UNL     1      -1.756  11.360  23.287  0.00  0.00    +0.000 Cl
ATOM      6  C   UNL     1       0.017  11.269  21.163  0.00  0.00    +0.000 A 
ATOM      7  C   UNL     1       0.825  10.542  20.275  0.00  0.00    +0.000 A 
ENDROOT
BRANCH   1   9
ATOM      8  N   UNL     1       2.282   7.149  19.978  0.00  0.00    +0.000 N 
ATOM      9  C   UNL     1       1.734   8.320  19.499  0.00  0.00    +0.000 C 
ATOM     10  O   UNL     1       1.877   8.709  18.345  0.00  0.00    +0.000 OA
ATOM     11  H   UNL     1       2.154   6.827  20.931  0.00  0.00    +0.000 HD
BRANCH   8  12
ATOM     12  C   UNL     1       3.148   6.369  19.118  0.00  0.00    +0.000 C 
BRANCH  12  14
ATOM     13  C   UNL     1       2.002   4.459  20.183  0.00  0.00    +0.000 C 
ATOM     14  C   UNL     1       2.693   4.890  18.873  0.00  0.00    +0.000 C 
ATOM     15  C   UNL     1       1.602   4.918  17.770  0.00  0.00    +0.000 C 
BRANCH  14  16
ATOM     16  N   UNL     1       3.813   4.023  18.413  0.00  0.00    +0.000 NA
ATOM     17  C   UNL     1       3.486   2.860  17.556  0.00  0.00    +0.000 C 
ATOM     18  C   UNL     1       3.291   1.503  18.268  0.00  0.00    +0.000 C 
ATOM     19  O   UNL     1       4.296   1.229  19.250  0.00  0.00    +0.000 OA
ATOM     20  C   UNL     1       4.409   2.315  20.172  0.00  0.00    +0.000 C 
ATOM     21  C   UNL     1       4.800   3.593  19.424  0.00  0.00    +0.000 C 
ENDBRANCH  14  16
ENDBRANCH  12  14
ENDBRANCH   8  12
ENDBRANCH   1   9
BRANCH   6  22
ATOM     22  S   UNL     1      -0.067  13.025  20.955  0.00  0.00    +0.000 S 
ATOM     23  O   UNL     1       0.019  13.602  22.282  0.00  0.00    +0.000 OA
ATOM     24  O   UNL     1       0.901  13.386  19.935  0.00  0.00    +0.000 OA
BRANCH  22  25
ATOM     25  N   UNL     1      -1.577  13.298  20.308  0.00  0.00    +0.000 NA
ATOM     26  C   UNL     1      -2.552  14.167  20.986  0.00  0.00    +0.000 C 
ATOM     27  C   UNL     1      -3.760  13.368  21.476  0.00  0.00    +0.000 C 
ATOM     28  C   UNL     1      -4.389  12.597  20.346  0.00  0.00    +0.000 A 
ATOM     29  C   UNL     1      -5.758  12.303  20.345  0.00  0.00    +0.000 A 
ATOM     30  C   UNL     1      -6.322  11.579  19.293  0.00  0.00    +0.000 A 
ATOM     31  C   UNL     1      -5.523  11.133  18.241  0.00  0.00    +0.000 A 
ATOM     32  C   UNL     1      -4.157  11.401  18.248  0.00  0.00    +0.000 A 
ATOM     33  C   UNL     1      -3.580  12.130  19.299  0.00  0.00    +0.000 A 
ATOM     34  C   UNL     1      -2.084  12.342  19.309  0.00  0.00    +0.000 C 
ENDBRANCH  22  25
ENDBRANCH   6  22
TORSDOF 6
ENDMDL
MODEL 7
REMARK VINA RESULT:      -8.5      2.127      2.953
REMARK  Name = 
REMARK  8 active torsions:
REMARK  status: ('A' for Active; 'I' for Inactive)
REMARK    1  A    between atoms: C_1  and  C_2
REMARK    2  A    between atoms: C_2  and  C_3
REMARK    3  A    between atoms: C_2  and  C_4
REMARK    4  A    between atoms: C_2  and  N_28
REMARK    5  A    between atoms: C_4  and  N_5
REMARK    6  A    between atoms: C_6  and  C_8
REMARK    7  A    between atoms: C_13  and  S_14
REMARK    8  A    between atoms: S_14  and  N_17
REMARK                            x       y       z     vdW  Elec       q    Type
REMARK                         _______ _______ _______ _____ _____    ______ ____
ROOT
ATOM      1  C   UNL     1       1.815   8.327  19.113  0.00  0.00    +0.000 A 
ATOM      2  C   UNL     1       2.235   8.954  17.935  0.00  0.00    +0.000 A 
ATOM      3  C   UNL     1       2.085  10.332  17.786  0.00  0.00    +0.000 A 
ATOM      4  C   UNL     1       1.472  11.089  18.790  0.00  0.00    +0.000 A 
ATOM      5 CL   UNL     1       1.482  12.797  18.560  0.00  0.00    +0.000 Cl
ATOM      6  C   UNL     1       0.942  10.441  19.909  0.00  0.00    +0.000 A 
ATOM      7  C   UNL     1       1.121   9.059  20.079  0.00  0.00    +0.000 A 
ENDROOT
BRANCH   1   9
ATOM      8  N   UNL     1       2.463   6.178  18.167  0.00  0.00    +0.000 N 
ATOM      9  C   UNL     1       2.179   6.904  19.304  0.00  0.00    +0.000 C 
ATOM     10  O   UNL     1       2.133   6.409  20.425  0.00  0.00    +0.000 OA
ATOM     11  H   UNL     1       2.508   6.592  17.242  0.00  0.00    +0.000 HD
BRANCH   8  12
ATOM     12  C   UNL     1       2.632   4.742  18.266  0.00  0.00    +0.000 C 
BRANCH  12  14
ATOM     13  C   UNL     1       4.565   3.762  19.448  0.00  0.00    +0.000 C 
ATOM     14  C   UNL     1       4.095   4.224  18.054  0.00  0.00    +0.000 C 
ATOM     15  C   UNL     1       4.014   2.961  17.158  0.00  0.00    +0.000 C 
BRANCH  14  16
ATOM     16  N   UNL     1       4.959   5.232  17.378  0.00  0.00    +0.000 NA
ATOM     17  C   UNL     1       5.259   5.040  15.940  0.00  0.00    +0.000 C 
ATOM     18  C   UNL     1       6.573   4.306  15.594  0.00  0.00    +0.000 C 
ATOM     19  O   UNL     1       7.695   4.762  16.358  0.00  0.00    +0.000 OA
ATOM     20  C   UNL     1       7.401   4.722  17.757  0.00  0.00    +0.000 C 
ATOM     21  C   UNL     1       6.206   5.629  18.064  0.00  0.00    +0.000 C 
ENDBRANCH  14  16
ENDBRANCH  12  14
ENDBRANCH   8  12
ENDBRANCH   1   9
BRANCH   6  22
ATOM     22  S   UNL     1      -0.090  11.288  21.073  0.00  0.00    +0.000 S 
ATOM     23  O   UNL     1      -0.724  10.265  21.882  0.00  0.00    +0.000 OA
ATOM     24  O   UNL     1       0.718  12.320  21.696  0.00  0.00    +0.000 OA
BRANCH  22  25
ATOM     25  N   UNL     1      -1.227  12.063  20.136  0.00  0.00    +0.000 NA
ATOM     26  C   UNL     1      -1.952  13.243  20.635  0.00  0.00    +0.000 C 
ATOM     27  C   UNL     1      -3.440  12.944  20.817  0.00  0.00    +0.000 C 
ATOM     28  C   UNL     1      -4.042  12.415  19.542  0.00  0.00    +0.000 A 
ATOM     29  C   UNL     1      -5.392  12.630  19.236  0.00  0.00    +0.000 A 
ATOM     30  C   UNL     1      -5.935  12.126  18.053  0.00  0.00    +0.000 A 
ATOM     31  C   UNL     1      -5.140  11.393  17.174  0.00  0.00    +0.000 A 
ATOM     32  C   UNL     1      -3.803  11.155  17.483  0.00  0.00    +0.000 A 
ATOM     33  C   UNL     1      -3.247  11.660  18.667  0.00  0.00    +0.000 A 
ATOM     34  C   UNL     1      -1.813  11.323  19.004  0.00  0.00    +0.000 C 
ENDBRANCH  22  25
ENDBRANCH   6  22
TORSDOF 6
ENDMDL
MODEL 8
REMARK VINA RESULT:      -8.4      2.143      2.957
REMARK  Name = 
REMARK  8 active torsions:
REMARK  status: ('A' for Active; 'I' for Inactive)
REMARK    1  A    between atoms: C_1  and  C_2
REMARK    2  A    between atoms: C_2  and  C_3
REMARK    3  A    between atoms: C_2  and  C_4
REMARK    4  A    between atoms: C_2  and  N_28
REMARK    5  A    between atoms: C_4  and  N_5
REMARK    6  A    between atoms: C_6  and  C_8
REMARK    7  A    between atoms: C_13  and  S_14
REMARK    8  A    between atoms: S_14  and  N_17
REMARK                            x       y       z     vdW  Elec       q    Type
REMARK                         _______ _______ _______ _____ _____    ______ ____
ROOT
ATOM      1  C   UNL     1       1.404   9.138  19.299  0.00  0.00    +0.000 A 
ATOM      2  C   UNL     1       1.499   8.745  20.638  0.00  0.00    +0.000 A 
ATOM      3  C   UNL     1       0.669   9.327  21.596  0.00  0.00    +0.000 A 
ATOM      4  C   UNL     1      -0.227  10.339  21.234  0.00  0.00    +0.000 A 
ATOM      5 CL   UNL     1      -1.303  10.870  22.471  0.00  0.00    +0.000 Cl
ATOM      6  C   UNL     1      -0.229  10.814  19.920  0.00  0.00    +0.000 A 
ATOM      7  C   UNL     1       0.580  10.208  18.946  0.00  0.00    +0.000 A 
ENDROOT
BRANCH   1   9
ATOM      8  N   UNL     1       2.743   7.182  18.735  0.00  0.00    +0.000 N 
ATOM      9  C   UNL     1       2.159   8.351  18.295  0.00  0.00    +0.000 C 
ATOM     10  O   UNL     1       2.307   8.794  17.161  0.00  0.00    +0.000 OA
ATOM     11  H   UNL     1       2.612   6.815  19.670  0.00  0.00    +0.000 HD
BRANCH   8  12
ATOM     12  C   UNL     1       3.654   6.472  17.859  0.00  0.00    +0.000 C 
BRANCH  12  14
ATOM     13  C   UNL     1       3.496   4.894  19.750  0.00  0.00    +0.000 C 
ATOM     14  C   UNL     1       4.000   5.009  18.298  0.00  0.00    +0.000 C 
ATOM     15  C   UNL     1       3.134   4.050  17.437  0.00  0.00    +0.000 C 
BRANCH  14  16
ATOM     16  N   UNL     1       5.435   4.678  18.079  0.00  0.00    +0.000 NA
ATOM     17  C   UNL     1       6.454   5.614  18.609  0.00  0.00    +0.000 C 
ATOM     18  C   UNL     1       6.990   6.685  17.633  0.00  0.00    +0.000 C 
ATOM     19  O   UNL     1       7.308   6.164  16.338  0.00  0.00    +0.000 OA
ATOM     20  C   UNL     1       6.196   5.444  15.798  0.00  0.00    +0.000 C 
ATOM     21  C   UNL     1       5.839   4.273  16.717  0.00  0.00    +0.000 C 
ENDBRANCH  14  16
ENDBRANCH  12  14
ENDBRANCH   8  12
ENDBRANCH   1   9
BRANCH   6  22
ATOM     22  S   UNL     1      -1.122  12.272  19.459  0.00  0.00    +0.000 S 
ATOM     23  O   UNL     1      -0.987  13.204  20.562  0.00  0.00    +0.000 OA
ATOM     24  O   UNL     1      -0.684  12.645  18.127  0.00  0.00    +0.000 OA
BRANCH  22  25
ATOM     25  N   UNL     1      -2.704  11.769  19.326  0.00  0.00    +0.000 NA
ATOM     26  C   UNL     1      -3.136  10.896  18.223  0.00  0.00    +0.000 C 
ATOM     27  C   UNL     1      -4.105  11.622  17.288  0.00  0.00    +0.000 C 
ATOM     28  C   UNL     1      -5.276  12.178  18.054  0.00  0.00    +0.000 A 
ATOM     29  C   UNL     1      -6.530  12.329  17.449  0.00  0.00    +0.000 A 
ATOM     30  C   UNL     1      -7.602  12.854  18.173  0.00  0.00    +0.000 A 
ATOM     31  C   UNL     1      -7.429  13.244  19.499  0.00  0.00    +0.000 A 
ATOM     32  C   UNL     1      -6.179  13.120  20.100  0.00  0.00    +0.000 A 
ATOM     33  C   UNL     1      -5.095  12.591  19.383  0.00  0.00    +0.000 A 
ATOM     34  C   UNL     1      -3.737  12.535  20.043  0.00  0.00    +0.000 C 
ENDBRANCH  22  25
ENDBRANCH   6  22
TORSDOF 6
ENDMDL
MODEL 9
REMARK VINA RESULT:      -8.4      1.714      2.356
REMARK  Name = 
REMARK  8 active torsions:
REMARK  status: ('A' for Active; 'I' for Inactive)
REMARK    1  A    between atoms: C_1  and  C_2
REMARK    2  A    between atoms: C_2  and  C_3
REMARK    3  A    between atoms: C_2  and  C_4
REMARK    4  A    between atoms: C_2  and  N_28
REMARK    5  A    between atoms: C_4  and  N_5
REMARK    6  A    between atoms: C_6  and  C_8
REMARK    7  A    between atoms: C_13  and  S_14
REMARK    8  A    between atoms: S_14  and  N_17
REMARK                            x       y       z     vdW  Elec       q    Type
REMARK                         _______ _______ _______ _____ _____    ______ ____
ROOT
ATOM      1  C   UNL     1       1.615   8.692  19.553  0.00  0.00    +0.000 A 
ATOM      2  C   UNL     1       1.221   8.042  20.726  0.00  0.00    +0.000 A 
ATOM      3  C   UNL     1       0.528   8.742  21.713  0.00  0.00    +0.000 A 
ATOM      4  C   UNL     1       0.264  10.107  21.559  0.00  0.00    +0.000 A 
ATOM      5 CL   UNL     1      -0.729  10.826  22.769  0.00  0.00    +0.000 Cl
ATOM      6  C   UNL     1       0.770  10.780  20.442  0.00  0.00    +0.000 A 
ATOM      7  C   UNL     1       1.438  10.072  19.431  0.00  0.00    +0.000 A 
ENDROOT
BRANCH   1   9
ATOM      8  N   UNL     1       2.195   6.500  18.664  0.00  0.00    +0.000 N 
ATOM      9  C   UNL     1       2.166   7.863  18.455  0.00  0.00    +0.000 C 
ATOM     10  O   UNL     1       2.641   8.403  17.463  0.00  0.00    +0.000 OA
ATOM     11  H   UNL     1       1.793   6.056  19.482  0.00  0.00    +0.000 HD
BRANCH   8  12
ATOM     12  C   UNL     1       2.896   5.653  17.720  0.00  0.00    +0.000 C 
BRANCH  12  14
ATOM     13  C   UNL     1       4.264   5.176  19.718  0.00  0.00    +0.000 C 
ATOM     14  C   UNL     1       4.315   5.172  18.177  0.00  0.00    +0.000 C 
ATOM     15  C   UNL     1       4.469   3.694  17.730  0.00  0.00    +0.000 C 
BRANCH  14  16
ATOM     16  N   UNL     1       5.409   5.972  17.560  0.00  0.00    +0.000 NA
ATOM     17  C   UNL     1       5.433   6.097  16.085  0.00  0.00    +0.000 C 
ATOM     18  C   UNL     1       6.312   5.087  15.314  0.00  0.00    +0.000 C 
ATOM     19  O   UNL     1       7.607   4.903  15.896  0.00  0.00    +0.000 OA
ATOM     20  C   UNL     1       7.494   4.578  17.283  0.00  0.00    +0.000 C 
ATOM     21  C   UNL     1       6.786   5.714  18.028  0.00  0.00    +0.000 C 
ENDBRANCH  14  16
ENDBRANCH  12  14
ENDBRANCH   8  12
ENDBRANCH   1   9
BRANCH   6  22
ATOM     22  S   UNL     1       0.724  12.546  20.321  0.00  0.00    +0.000 S 
ATOM     23  O   UNL     1       0.708  13.052  21.680  0.00  0.00    +0.000 OA
ATOM     24  O   UNL     1       1.776  12.944  19.403  0.00  0.00    +0.000 OA
BRANCH  22  25
ATOM     25  N   UNL     1      -0.725  12.876  19.571  0.00  0.00    +0.000 NA
ATOM     26  C   UNL     1      -1.817  13.557  20.285  0.00  0.00    +0.000 C 
ATOM     27  C   UNL     1      -3.018  12.629  20.476  0.00  0.00    +0.000 C 
ATOM     28  C   UNL     1      -3.477  12.066  19.157  0.00  0.00    +0.000 A 
ATOM     29  C   UNL     1      -4.818  11.722  18.945  0.00  0.00    +0.000 A 
ATOM     30  C   UNL     1      -5.224  11.193  17.718  0.00  0.00    +0.000 A 
ATOM     31  C   UNL     1      -4.294  10.992  16.700  0.00  0.00    +0.000 A 
ATOM     32  C   UNL     1      -2.955  11.310  16.911  0.00  0.00    +0.000 A 
ATOM     33  C   UNL     1      -2.537  11.845  18.139  0.00  0.00    +0.000 A 
ATOM     34  C   UNL     1      -1.066  12.113  18.358  0.00  0.00    +0.000 C 
ENDBRANCH  22  25
ENDBRANCH   6  22
TORSDOF 6
ENDMDL
