MODEL 1
REMARK VINA RESULT:      -7.3      0.000      0.000
REMARK  Name = 
REMARK  8 active torsions:
REMARK  status: ('A' for Active; 'I' for Inactive)
REMARK    1  A    between atoms: N_3  and  C_4
REMARK    2  A    between atoms: C_4  and  N_5
REMARK    3  A    between atoms: N_8  and  C_9
REMARK    4  A    between atoms: N_15  and  C_16
REMARK    5  A    between atoms: C_16  and  O_17
REMARK    6  A    between atoms: N_18  and  C_19
REMARK    7  A    between atoms: N_25  and  C_26
REMARK    8  A    between atoms: C_26  and  O_27
REMARK                            x       y       z     vdW  Elec       q    Type
REMARK                         _______ _______ _______ _____ _____    ______ ____
ROOT
ATOM      1  C   UNL     1       7.288   5.775  18.981  0.00  0.00    +0.000 C 
ENDROOT
BRANCH   1   4
ATOM      2  O   UNL     1       6.209   6.594  16.560  0.00  0.00    +0.000 OA
ATOM      3  C   UNL     1       7.020   5.679  16.586  0.00  0.00    +0.000 C 
ATOM      4  N   UNL     1       7.674   5.256  17.708  0.00  0.00    +0.000 N 
ATOM      5  N   UNL     1       7.402   4.970  15.491  0.00  0.00    +0.000 N 
ATOM      6  H   UNL     1       7.870   4.265  17.736  0.00  0.00    +0.000 HD
ATOM      7  H   UNL     1       8.068   4.222  15.602  0.00  0.00    +0.000 HD
BRANCH   5   8
ATOM      8  C   UNL     1       6.856   5.224  14.192  0.00  0.00    +0.000 C 
ATOM      9  C   UNL     1       7.976   5.254  13.129  0.00  0.00    +0.000 C 
ATOM     10  O   UNL     1       8.948   5.992  13.104  0.00  0.00    +0.000 OA
ATOM     11  N   UNL     1       7.726   4.274  12.220  0.00  0.00    +0.000 N 
ATOM     12  C   UNL     1       6.565   3.643  12.509  0.00  0.00    +0.000 C 
ATOM     13  O   UNL     1       6.016   2.813  11.801  0.00  0.00    +0.000 OA
ATOM     14  N   UNL     1       6.085   4.107  13.715  0.00  0.00    +0.000 N 
ATOM     15  H   UNL     1       8.280   4.095  11.400  0.00  0.00    +0.000 HD
BRANCH  14  16
ATOM     16  C   UNL     1       4.724   3.931  14.121  0.00  0.00    +0.000 C 
BRANCH  16  17
ATOM     17  O   UNL     1       4.658   4.119  15.518  0.00  0.00    +0.000 OA
ATOM     18  H   UNL     1       5.357   4.769  15.720  0.00  0.00    +0.000 HD
ENDBRANCH  16  17
ENDBRANCH  14  16
ENDBRANCH   5   8
ENDBRANCH   1   4
BRANCH   1  19
ATOM     19  N   UNL     1       5.863   5.708  19.121  0.00  0.00    +0.000 N 
ATOM     20  C   UNL     1       5.244   4.531  19.412  0.00  0.00    +0.000 C 
ATOM     21  O   UNL     1       5.848   3.501  19.688  0.00  0.00    +0.000 OA
ATOM     22  N   UNL     1       3.888   4.601  19.334  0.00  0.00    +0.000 N 
ATOM     23  H   UNL     1       5.324   6.538  18.929  0.00  0.00    +0.000 HD
ATOM     24  H   UNL     1       3.431   5.498  19.342  0.00  0.00    +0.000 HD
BRANCH  22  25
ATOM     25  C   UNL     1       3.109   3.447  19.669  0.00  0.00    +0.000 C 
ATOM     26  C   UNL     1       2.061   3.678  20.782  0.00  0.00    +0.000 C 
ATOM     27  O   UNL     1       2.234   4.204  21.870  0.00  0.00    +0.000 OA
ATOM     28  N   UNL     1       0.880   3.163  20.348  0.00  0.00    +0.000 N 
ATOM     29  C   UNL     1       0.989   2.738  19.068  0.00  0.00    +0.000 C 
ATOM     30  O   UNL     1       0.112   2.172  18.432  0.00  0.00    +0.000 OA
ATOM     31  N   UNL     1       2.246   3.051  18.592  0.00  0.00    +0.000 N 
ATOM     32  H   UNL     1       0.034   3.120  20.894  0.00  0.00    +0.000 HD
BRANCH  31  33
ATOM     33  C   UNL     1       2.785   2.447  17.411  0.00  0.00    +0.000 C 
BRANCH  33  34
ATOM     34  O   UNL     1       4.072   1.963  17.725  0.00  0.00    +0.000 OA
ATOM     35  H   UNL     1       4.525   2.711  18.160  0.00  0.00    +0.000 HD
ENDBRANCH  33  34
ENDBRANCH  31  33
ENDBRANCH  22  25
ENDBRANCH   1  19
TORSDOF 8
ENDMDL
MODEL 2
REMARK VINA RESULT:      -7.1      6.698      8.765
REMARK  Name = 
REMARK  8 active torsions:
REMARK  status: ('A' for Active; 'I' for Inactive)
REMARK    1  A    between atoms: N_3  and  C_4
REMARK    2  A    between atoms: C_4  and  N_5
REMARK    3  A    between atoms: N_8  and  C_9
REMARK    4  A    between atoms: N_15  and  C_16
REMARK    5  A    between atoms: C_16  and  O_17
REMARK    6  A    between atoms: N_18  and  C_19
REMARK    7  A    between atoms: N_25  and  C_26
REMARK    8  A    between atoms: C_26  and  O_27
REMARK                            x       y       z     vdW  Elec       q    Type
REMARK                         _______ _______ _______ _____ _____    ______ ____
ROOT
ATOM      1  C   UNL     1       1.556   9.308  19.274  0.00  0.00    +0.000 C 
ENDROOT
BRANCH   1   4
ATOM      2  O   UNL     1       0.074  11.524  18.507  0.00  0.00    +0.000 OA
ATOM      3  C   UNL     1      -0.277  10.406  18.157  0.00  0.00    +0.000 C 
ATOM      4  N   UNL     1       0.423   9.261  18.406  0.00  0.00    +0.000 N 
ATOM      5  N   UNL     1      -1.408  10.153  17.447  0.00  0.00    +0.000 N 
ATOM      6  H   UNL     1      -0.146   8.440  18.555  0.00  0.00    +0.000 HD
ATOM      7  H   UNL     1      -1.632   9.200  17.209  0.00  0.00    +0.000 HD
BRANCH   5   8
ATOM      8  C   UNL     1      -2.315  11.193  17.062  0.00  0.00    +0.000 C 
ATOM      9  C   UNL     1      -3.070  10.806  15.773  0.00  0.00    +0.000 C 
ATOM     10  O   UNL     1      -2.582  10.530  14.688  0.00  0.00    +0.000 OA
ATOM     11  N   UNL     1      -4.401  10.776  16.051  0.00  0.00    +0.000 N 
ATOM     12  C   UNL     1      -4.626  11.148  17.332  0.00  0.00    +0.000 C 
ATOM     13  O   UNL     1      -5.724  11.344  17.828  0.00  0.00    +0.000 OA
ATOM     14  N   UNL     1      -3.418  11.298  17.979  0.00  0.00    +0.000 N 
ATOM     15  H   UNL     1      -5.125  10.587  15.380  0.00  0.00    +0.000 HD
BRANCH  14  16
ATOM     16  C   UNL     1      -3.286  12.030  19.203  0.00  0.00    +0.000 C 
BRANCH  16  17
ATOM     17  O   UNL     1      -2.264  12.987  19.030  0.00  0.00    +0.000 OA
ATOM     18  H   UNL     1      -1.455  12.468  18.859  0.00  0.00    +0.000 HD
ENDBRANCH  16  17
ENDBRANCH  14  16
ENDBRANCH   5   8
ENDBRANCH   1   4
BRANCH   1  19
ATOM     19  N   UNL     1       1.904   7.981  19.690  0.00  0.00    +0.000 N 
ATOM     20  C   UNL     1       2.621   7.159  18.875  0.00  0.00    +0.000 C 
ATOM     21  O   UNL     1       3.109   7.522  17.812  0.00  0.00    +0.000 OA
ATOM     22  N   UNL     1       2.712   5.883  19.340  0.00  0.00    +0.000 N 
ATOM     23  H   UNL     1       1.546   7.646  20.571  0.00  0.00    +0.000 HD
ATOM     24  H   UNL     1       2.511   5.687  20.307  0.00  0.00    +0.000 HD
BRANCH  22  25
ATOM     25  C   UNL     1       3.485   4.926  18.608  0.00  0.00    +0.000 C 
ATOM     26  C   UNL     1       4.875   4.624  19.210  0.00  0.00    +0.000 C 
ATOM     27  O   UNL     1       5.722   5.427  19.568  0.00  0.00    +0.000 OA
ATOM     28  N   UNL     1       5.019   3.273  19.257  0.00  0.00    +0.000 N 
ATOM     29  C   UNL     1       3.872   2.661  18.880  0.00  0.00    +0.000 C 
ATOM     30  O   UNL     1       3.718   1.454  18.763  0.00  0.00    +0.000 OA
ATOM     31  N   UNL     1       2.901   3.615  18.656  0.00  0.00    +0.000 N 
ATOM     32  H   UNL     1       5.853   2.791  19.551  0.00  0.00    +0.000 HD
BRANCH  31  33
ATOM     33  C   UNL     1       1.700   3.325  17.932  0.00  0.00    +0.000 C 
BRANCH  33  34
ATOM     34  O   UNL     1       0.947   2.411  18.697  0.00  0.00    +0.000 OA
ATOM     35  H   UNL     1       0.026   2.728  18.639  0.00  0.00    +0.000 HD
ENDBRANCH  33  34
ENDBRANCH  31  33
ENDBRANCH  22  25
ENDBRANCH   1  19
TORSDOF 8
ENDMDL
MODEL 3
REMARK VINA RESULT:      -7.0      5.929      7.497
REMARK  Name = 
REMARK  8 active torsions:
REMARK  status: ('A' for Active; 'I' for Inactive)
REMARK    1  A    between atoms: N_3  and  C_4
REMARK    2  A    between atoms: C_4  and  N_5
REMARK    3  A    between atoms: N_8  and  C_9
REMARK    4  A    between atoms: N_15  and  C_16
REMARK    5  A    between atoms: C_16  and  O_17
REMARK    6  A    between atoms: N_18  and  C_19
REMARK    7  A    between atoms: N_25  and  C_26
REMARK    8  A    between atoms: C_26  and  O_27
REMARK                            x       y       z     vdW  Elec       q    Type
REMARK                         _______ _______ _______ _____ _____    ______ ____
ROOT
ATOM      1  C   UNL     1       1.680   7.265  20.556  0.00  0.00    +0.000 C 
ENDROOT
BRANCH   1   4
ATOM      2  O   UNL     1       3.092   4.896  20.254  0.00  0.00    +0.000 OA
ATOM      3  C   UNL     1       3.379   5.868  19.569  0.00  0.00    +0.000 C 
ATOM      4  N   UNL     1       2.696   7.050  19.577  0.00  0.00    +0.000 N 
ATOM      5  N   UNL     1       4.410   5.894  18.683  0.00  0.00    +0.000 N 
ATOM      6  H   UNL     1       3.266   7.869  19.423  0.00  0.00    +0.000 HD
ATOM      7  H   UNL     1       4.587   6.741  18.167  0.00  0.00    +0.000 HD
BRANCH   5   8
ATOM      8  C   UNL     1       5.279   4.772  18.492  0.00  0.00    +0.000 C 
ATOM      9  C   UNL     1       4.761   3.873  17.349  0.00  0.00    +0.000 C 
ATOM     10  O   UNL     1       3.674   3.320  17.281  0.00  0.00    +0.000 OA
ATOM     11  N   UNL     1       5.714   3.825  16.380  0.00  0.00    +0.000 N 
ATOM     12  C   UNL     1       6.811   4.521  16.758  0.00  0.00    +0.000 C 
ATOM     13  O   UNL     1       7.873   4.548  16.157  0.00  0.00    +0.000 OA
ATOM     14  N   UNL     1       6.546   5.174  17.944  0.00  0.00    +0.000 N 
ATOM     15  H   UNL     1       5.652   3.279  15.537  0.00  0.00    +0.000 HD
BRANCH  14  16
ATOM     16  C   UNL     1       7.584   5.680  18.791  0.00  0.00    +0.000 C 
BRANCH  16  17
ATOM     17  O   UNL     1       7.242   5.376  20.125  0.00  0.00    +0.000 OA
ATOM     18  H   UNL     1       6.491   5.962  20.336  0.00  0.00    +0.000 HD
ENDBRANCH  16  17
ENDBRANCH  14  16
ENDBRANCH   5   8
ENDBRANCH   1   4
BRANCH   1  19
ATOM     19  N   UNL     1       1.416   8.669  20.682  0.00  0.00    +0.000 N 
ATOM     20  C   UNL     1       0.993   9.398  19.614  0.00  0.00    +0.000 C 
ATOM     21  O   UNL     1       0.698   8.903  18.533  0.00  0.00    +0.000 OA
ATOM     22  N   UNL     1       0.962  10.737  19.853  0.00  0.00    +0.000 N 
ATOM     23  H   UNL     1       1.619   9.116  21.562  0.00  0.00    +0.000 HD
ATOM     24  H   UNL     1       0.978  11.077  20.800  0.00  0.00    +0.000 HD
BRANCH  22  25
ATOM     25  C   UNL     1       0.483  11.618  18.831  0.00  0.00    +0.000 C 
ATOM     26  C   UNL     1      -1.006  12.010  18.963  0.00  0.00    +0.000 C 
ATOM     27  O   UNL     1      -1.959  11.266  19.138  0.00  0.00    +0.000 OA
ATOM     28  N   UNL     1      -1.091  13.360  18.827  0.00  0.00    +0.000 N 
ATOM     29  C   UNL     1       0.144  13.906  18.743  0.00  0.00    +0.000 C 
ATOM     30  O   UNL     1       0.384  15.090  18.553  0.00  0.00    +0.000 OA
ATOM     31  N   UNL     1       1.091  12.917  18.914  0.00  0.00    +0.000 N 
ATOM     32  H   UNL     1      -1.950  13.886  18.811  0.00  0.00    +0.000 HD
BRANCH  31  33
ATOM     33  C   UNL     1       2.463  13.104  18.549  0.00  0.00    +0.000 C 
BRANCH  33  34
ATOM     34  O   UNL     1       2.764  12.184  17.524  0.00  0.00    +0.000 OA
ATOM     35  H   UNL     1       3.143  12.722  16.803  0.00  0.00    +0.000 HD
ENDBRANCH  33  34
ENDBRANCH  31  33
ENDBRANCH  22  25
ENDBRANCH   1  19
TORSDOF 8
ENDMDL
MODEL 4
REMARK VINA RESULT:      -7.0      6.667      8.957
REMARK  Name = 
REMARK  8 active torsions:
REMARK  status: ('A' for Active; 'I' for Inactive)
REMARK    1  A    between atoms: N_3  and  C_4
REMARK    2  A    between atoms: C_4  and  N_5
REMARK    3  A    between atoms: N_8  and  C_9
REMARK    4  A    between atoms: N_15  and  C_16
REMARK    5  A    between atoms: C_16  and  O_17
REMARK    6  A    between atoms: N_18  and  C_19
REMARK    7  A    between atoms: N_25  and  C_26
REMARK    8  A    between atoms: C_26  and  O_27
REMARK                            x       y       z     vdW  Elec       q    Type
REMARK                         _______ _______ _______ _____ _____    ______ ____
ROOT
ATOM      1  C   UNL     1       1.342   9.067  20.722  0.00  0.00    +0.000 C 
ENDROOT
BRANCH   1   4
ATOM      2  O   UNL     1       0.328  11.400  19.615  0.00  0.00    +0.000 OA
ATOM      3  C   UNL     1      -0.203  10.327  19.365  0.00  0.00    +0.000 C 
ATOM      4  N   UNL     1       0.264   9.115  19.787  0.00  0.00    +0.000 N 
ATOM      5  N   UNL     1      -1.325  10.193  18.609  0.00  0.00    +0.000 N 
ATOM      6  H   UNL     1      -0.452   8.431  19.984  0.00  0.00    +0.000 HD
ATOM      7  H   UNL     1      -1.706   9.272  18.462  0.00  0.00    +0.000 HD
BRANCH   5   8
ATOM      8  C   UNL     1      -2.006  11.321  18.050  0.00  0.00    +0.000 C 
ATOM      9  C   UNL     1      -2.790  10.910  16.785  0.00  0.00    +0.000 C 
ATOM     10  O   UNL     1      -2.336  10.406  15.769  0.00  0.00    +0.000 OA
ATOM     11  N   UNL     1      -4.108  11.166  16.998  0.00  0.00    +0.000 N 
ATOM     12  C   UNL     1      -4.290  11.743  18.208  0.00  0.00    +0.000 C 
ATOM     13  O   UNL     1      -5.342  12.204  18.620  0.00  0.00    +0.000 OA
ATOM     14  N   UNL     1      -3.092  11.751  18.890  0.00  0.00    +0.000 N 
ATOM     15  H   UNL     1      -4.838  11.026  16.321  0.00  0.00    +0.000 HD
BRANCH  14  16
ATOM     16  C   UNL     1      -2.853  12.604  20.015  0.00  0.00    +0.000 C 
BRANCH  16  17
ATOM     17  O   UNL     1      -1.889  13.562  19.638  0.00  0.00    +0.000 OA
ATOM     18  H   UNL     1      -1.376  13.140  18.924  0.00  0.00    +0.000 HD
ENDBRANCH  16  17
ENDBRANCH  14  16
ENDBRANCH   5   8
ENDBRANCH   1   4
BRANCH   1  19
ATOM     19  N   UNL     1       1.817   7.720  20.846  0.00  0.00    +0.000 N 
ATOM     20  C   UNL     1       2.391   7.082  19.788  0.00  0.00    +0.000 C 
ATOM     21  O   UNL     1       2.645   7.634  18.724  0.00  0.00    +0.000 OA
ATOM     22  N   UNL     1       2.622   5.761  20.016  0.00  0.00    +0.000 N 
ATOM     23  H   UNL     1       1.654   7.233  21.712  0.00  0.00    +0.000 HD
ATOM     24  H   UNL     1       2.624   5.408  20.959  0.00  0.00    +0.000 HD
BRANCH  22  25
ATOM     25  C   UNL     1       3.272   4.982  19.007  0.00  0.00    +0.000 C 
ATOM     26  C   UNL     1       4.765   4.691  19.279  0.00  0.00    +0.000 C 
ATOM     27  O   UNL     1       5.634   5.488  19.595  0.00  0.00    +0.000 OA
ATOM     28  N   UNL     1       4.968   3.361  19.080  0.00  0.00    +0.000 N 
ATOM     29  C   UNL     1       3.795   2.734  18.833  0.00  0.00    +0.000 C 
ATOM     30  O   UNL     1       3.669   1.550  18.554  0.00  0.00    +0.000 OA
ATOM     31  N   UNL     1       2.762   3.640  18.953  0.00  0.00    +0.000 N 
ATOM     32  H   UNL     1       5.863   2.900  19.129  0.00  0.00    +0.000 HD
BRANCH  31  33
ATOM     33  C   UNL     1       1.454   3.379  18.432  0.00  0.00    +0.000 C 
BRANCH  33  34
ATOM     34  O   UNL     1       1.197   4.328  17.422  0.00  0.00    +0.000 OA
ATOM     35  H   UNL     1       0.747   3.829  16.712  0.00  0.00    +0.000 HD
ENDBRANCH  33  34
ENDBRANCH  31  33
ENDBRANCH  22  25
ENDBRANCH   1  19
TORSDOF 8
ENDMDL
MODEL 5
REMARK VINA RESULT:      -7.0      6.801      8.543
REMARK  Name = 
REMARK  8 active torsions:
REMARK  status: ('A' for Active; 'I' for Inactive)
REMARK    1  A    between atoms: N_3  and  C_4
REMARK    2  A    between atoms: C_4  and  N_5
REMARK    3  A    between atoms: N_8  and  C_9
REMARK    4  A    between atoms: N_15  and  C_16
REMARK    5  A    between atoms: C_16  and  O_17
REMARK    6  A    between atoms: N_18  and  C_19
REMARK    7  A    between atoms: N_25  and  C_26
REMARK    8  A    between atoms: C_26  and  O_27
REMARK                            x       y       z     vdW  Elec       q    Type
REMARK                         _______ _______ _______ _____ _____    ______ ____
ROOT
ATOM      1  C   UNL     1       0.852   8.243  21.113  0.00  0.00    +0.000 C 
ENDROOT
BRANCH   1   4
ATOM      2  O   UNL     1       2.052   7.355  18.775  0.00  0.00    +0.000 OA
ATOM      3  C   UNL     1       2.377   6.867  19.849  0.00  0.00    +0.000 C 
ATOM      4  N   UNL     1       1.913   7.288  21.062  0.00  0.00    +0.000 N 
ATOM      5  N   UNL     1       3.266   5.848  19.982  0.00  0.00    +0.000 N 
ATOM      6  H   UNL     1       1.812   6.558  21.753  0.00  0.00    +0.000 HD
ATOM      7  H   UNL     1       3.468   5.495  20.904  0.00  0.00    +0.000 HD
BRANCH   5   8
ATOM      8  C   UNL     1       3.894   5.232  18.853  0.00  0.00    +0.000 C 
ATOM      9  C   UNL     1       5.250   4.614  19.254  0.00  0.00    +0.000 C 
ATOM     10  O   UNL     1       6.207   5.192  19.745  0.00  0.00    +0.000 OA
ATOM     11  N   UNL     1       5.198   3.277  19.010  0.00  0.00    +0.000 N 
ATOM     12  C   UNL     1       4.014   2.944  18.447  0.00  0.00    +0.000 C 
ATOM     13  O   UNL     1       3.730   1.845  17.996  0.00  0.00    +0.000 OA
ATOM     14  N   UNL     1       3.189   4.048  18.438  0.00  0.00    +0.000 N 
ATOM     15  H   UNL     1       5.961   2.637  19.147  0.00  0.00    +0.000 HD
BRANCH  14  16
ATOM     16  C   UNL     1       2.035   4.140  17.596  0.00  0.00    +0.000 C 
BRANCH  16  17
ATOM     17  O   UNL     1       1.096   3.186  18.040  0.00  0.00    +0.000 OA
ATOM     18  H   UNL     1       0.232   3.638  17.995  0.00  0.00    +0.000 HD
ENDBRANCH  16  17
ENDBRANCH  14  16
ENDBRANCH   5   8
ENDBRANCH   1   4
BRANCH   1  19
ATOM     19  N   UNL     1       1.365   9.553  20.833  0.00  0.00    +0.000 N 
ATOM     20  C   UNL     1       0.600  10.660  21.038  0.00  0.00    +0.000 C 
ATOM     21  O   UNL     1      -0.502  10.630  21.573  0.00  0.00    +0.000 OA
ATOM     22  N   UNL     1       1.164  11.802  20.558  0.00  0.00    +0.000 N 
ATOM     23  H   UNL     1       2.279   9.629  20.416  0.00  0.00    +0.000 HD
ATOM     24  H   UNL     1       2.148  11.824  20.349  0.00  0.00    +0.000 HD
BRANCH  22  25
ATOM     25  C   UNL     1       0.491  13.050  20.755  0.00  0.00    +0.000 C 
ATOM     26  C   UNL     1       1.411  14.221  21.166  0.00  0.00    +0.000 C 
ATOM     27  O   UNL     1       2.251  14.232  22.053  0.00  0.00    +0.000 OA
ATOM     28  N   UNL     1       1.109  15.281  20.370  0.00  0.00    +0.000 N 
ATOM     29  C   UNL     1       0.208  14.924  19.427  0.00  0.00    +0.000 C 
ATOM     30  O   UNL     1      -0.300  15.678  18.609  0.00  0.00    +0.000 OA
ATOM     31  N   UNL     1      -0.044  13.571  19.528  0.00  0.00    +0.000 N 
ATOM     32  H   UNL     1       1.514  16.200  20.454  0.00  0.00    +0.000 HD
BRANCH  31  33
ATOM     33  C   UNL     1      -1.181  12.958  18.911  0.00  0.00    +0.000 C 
BRANCH  33  34
ATOM     34  O   UNL     1      -0.945  12.915  17.522  0.00  0.00    +0.000 OA
ATOM     35  H   UNL     1      -0.773  13.841  17.264  0.00  0.00    +0.000 HD
ENDBRANCH  33  34
ENDBRANCH  31  33
ENDBRANCH  22  25
ENDBRANCH   1  19
TORSDOF 8
ENDMDL
MODEL 6
REMARK VINA RESULT:      -6.9      4.831      8.886
REMARK  Name = 
REMARK  8 active torsions:
REMARK  status: ('A' for Active; 'I' for Inactive)
REMARK    1  A    between atoms: N_3  and  C_4
REMARK    2  A    between atoms: C_4  and  N_5
REMARK    3  A    between atoms: N_8  and  C_9
REMARK    4  A    between atoms: N_15  and  C_16
REMARK    5  A    between atoms: C_16  and  O_17
REMARK    6  A    between atoms: N_18  and  C_19
REMARK    7  A    between atoms: N_25  and  C_26
REMARK    8  A    between atoms: C_26  and  O_27
REMARK                            x       y       z     vdW  Elec       q    Type
REMARK                         _______ _______ _______ _____ _____    ______ ____
ROOT
ATOM      1  C   UNL     1       7.809   6.882  17.954  0.00  0.00    +0.000 C 
ENDROOT
BRANCH   1   4
ATOM      2  O   UNL     1       5.545   5.477  17.181  0.00  0.00    +0.000 OA
ATOM      3  C   UNL     1       6.086   5.221  18.248  0.00  0.00    +0.000 C 
ATOM      4  N   UNL     1       7.248   5.790  18.683  0.00  0.00    +0.000 N 
ATOM      5  N   UNL     1       5.613   4.311  19.140  0.00  0.00    +0.000 N 
ATOM      6  H   UNL     1       7.308   5.920  19.683  0.00  0.00    +0.000 HD
ATOM      7  H   UNL     1       6.113   4.169  20.004  0.00  0.00    +0.000 HD
BRANCH   5   8
ATOM      8  C   UNL     1       4.404   3.579  18.913  0.00  0.00    +0.000 C 
ATOM      9  C   UNL     1       4.241   2.459  19.963  0.00  0.00    +0.000 C 
ATOM     10  O   UNL     1       5.013   1.540  20.185  0.00  0.00    +0.000 OA
ATOM     11  N   UNL     1       3.091   2.685  20.652  0.00  0.00    +0.000 N 
ATOM     12  C   UNL     1       2.447   3.768  20.159  0.00  0.00    +0.000 C 
ATOM     13  O   UNL     1       1.329   4.135  20.486  0.00  0.00    +0.000 OA
ATOM     14  N   UNL     1       3.242   4.373  19.209  0.00  0.00    +0.000 N 
ATOM     15  H   UNL     1       2.724   2.086  21.372  0.00  0.00    +0.000 HD
BRANCH  14  16
ATOM     16  C   UNL     1       2.722   5.298  18.247  0.00  0.00    +0.000 C 
BRANCH  16  17
ATOM     17  O   UNL     1       1.478   4.805  17.798  0.00  0.00    +0.000 OA
ATOM     18  H   UNL     1       0.867   4.935  18.548  0.00  0.00    +0.000 HD
ENDBRANCH  16  17
ENDBRANCH  14  16
ENDBRANCH   5   8
ENDBRANCH   1   4
BRANCH   1  19
ATOM     19  N   UNL     1       8.525   7.746  18.847  0.00  0.00    +0.000 N 
ATOM     20  C   UNL     1       8.491   9.098  18.688  0.00  0.00    +0.000 C 
ATOM     21  O   UNL     1       7.773   9.663  17.873  0.00  0.00    +0.000 OA
ATOM     22  N   UNL     1       9.359   9.758  19.501  0.00  0.00    +0.000 N 
ATOM     23  H   UNL     1       9.110   7.326  19.552  0.00  0.00    +0.000 HD
ATOM     24  H   UNL     1       9.747   9.292  20.305  0.00  0.00    +0.000 HD
BRANCH  22  25
ATOM     25  C   UNL     1       9.388  11.189  19.476  0.00  0.00    +0.000 C 
ATOM     26  C   UNL     1       9.395  11.858  20.870  0.00  0.00    +0.000 C 
ATOM     27  O   UNL     1       8.653  11.625  21.811  0.00  0.00    +0.000 OA
ATOM     28  N   UNL     1      10.381  12.795  20.871  0.00  0.00    +0.000 N 
ATOM     29  C   UNL     1      11.085  12.744  19.717  0.00  0.00    +0.000 C 
ATOM     30  O   UNL     1      11.990  13.505  19.405  0.00  0.00    +0.000 OA
ATOM     31  N   UNL     1      10.627  11.693  18.951  0.00  0.00    +0.000 N 
ATOM     32  H   UNL     1      10.575  13.427  21.632  0.00  0.00    +0.000 HD
BRANCH  31  33
ATOM     33  C   UNL     1      10.925  11.579  17.555  0.00  0.00    +0.000 C 
BRANCH  33  34
ATOM     34  O   UNL     1      12.328  11.594  17.414  0.00  0.00    +0.000 OA
ATOM     35  H   UNL     1      12.555  12.526  17.228  0.00  0.00    +0.000 HD
ENDBRANCH  33  34
ENDBRANCH  31  33
ENDBRANCH  22  25
ENDBRANCH   1  19
TORSDOF 8
ENDMDL
MODEL 7
REMARK VINA RESULT:      -6.9      4.054      5.747
REMARK  Name = 
REMARK  8 active torsions:
REMARK  status: ('A' for Active; 'I' for Inactive)
REMARK    1  A    between atoms: N_3  and  C_4
REMARK    2  A    between atoms: C_4  and  N_5
REMARK    3  A    between atoms: N_8  and  C_9
REMARK    4  A    between atoms: N_15  and  C_16
REMARK    5  A    between atoms: C_16  and  O_17
REMARK    6  A    between atoms: N_18  and  C_19
REMARK    7  A    between atoms: N_25  and  C_26
REMARK    8  A    between atoms: C_26  and  O_27
REMARK                            x       y       z     vdW  Elec       q    Type
REMARK                         _______ _______ _______ _____ _____    ______ ____
ROOT
ATOM      1  C   UNL     1       2.910   4.275  20.179  0.00  0.00    +0.000 C 
ENDROOT
BRANCH   1   4
ATOM      2  O   UNL     1       4.721   5.690  18.625  0.00  0.00    +0.000 OA
ATOM      3  C   UNL     1       4.996   4.559  19.002  0.00  0.00    +0.000 C 
ATOM      4  N   UNL     1       4.217   3.811  19.838  0.00  0.00    +0.000 N 
ATOM      5  N   UNL     1       6.133   3.899  18.658  0.00  0.00    +0.000 N 
ATOM      6  H   UNL     1       4.243   2.817  19.663  0.00  0.00    +0.000 HD
ATOM      7  H   UNL     1       6.277   2.963  19.002  0.00  0.00    +0.000 HD
BRANCH   5   8
ATOM      8  C   UNL     1       7.114   4.474  17.787  0.00  0.00    +0.000 C 
ATOM      9  C   UNL     1       6.538   4.659  16.367  0.00  0.00    +0.000 C 
ATOM     10  O   UNL     1       6.083   3.791  15.638  0.00  0.00    +0.000 OA
ATOM     11  N   UNL     1       6.578   5.982  16.060  0.00  0.00    +0.000 N 
ATOM     12  C   UNL     1       7.156   6.685  17.061  0.00  0.00    +0.000 C 
ATOM     13  O   UNL     1       7.449   7.869  17.015  0.00  0.00    +0.000 OA
ATOM     14  N   UNL     1       7.385   5.844  18.130  0.00  0.00    +0.000 N 
ATOM     15  H   UNL     1       6.297   6.378  15.178  0.00  0.00    +0.000 HD
BRANCH  14  16
ATOM     16  C   UNL     1       8.302   6.169  19.181  0.00  0.00    +0.000 C 
BRANCH  16  17
ATOM     17  O   UNL     1       7.865   5.520  20.354  0.00  0.00    +0.000 OA
ATOM     18  H   UNL     1       7.251   4.826  20.049  0.00  0.00    +0.000 HD
ENDBRANCH  16  17
ENDBRANCH  14  16
ENDBRANCH   5   8
ENDBRANCH   1   4
BRANCH   1  19
ATOM     19  N   UNL     1       2.961   5.670  20.507  0.00  0.00    +0.000 N 
ATOM     20  C   UNL     1       1.842   6.443  20.442  0.00  0.00    +0.000 C 
ATOM     21  O   UNL     1       0.723   5.994  20.224  0.00  0.00    +0.000 OA
ATOM     22  N   UNL     1       2.093   7.770  20.608  0.00  0.00    +0.000 N 
ATOM     23  H   UNL     1       3.857   6.079  20.718  0.00  0.00    +0.000 HD
ATOM     24  H   UNL     1       2.965   8.068  21.015  0.00  0.00    +0.000 HD
BRANCH  22  25
ATOM     25  C   UNL     1       0.998   8.692  20.618  0.00  0.00    +0.000 C 
ATOM     26  C   UNL     1       0.946   9.618  21.854  0.00  0.00    +0.000 C 
ATOM     27  O   UNL     1       1.029   9.296  23.029  0.00  0.00    +0.000 OA
ATOM     28  N   UNL     1       0.762  10.890  21.409  0.00  0.00    +0.000 N 
ATOM     29  C   UNL     1       0.807  10.930  20.057  0.00  0.00    +0.000 C 
ATOM     30  O   UNL     1       0.612  11.922  19.371  0.00  0.00    +0.000 OA
ATOM     31  N   UNL     1       1.114   9.674  19.576  0.00  0.00    +0.000 N 
ATOM     32  H   UNL     1       0.632  11.695  22.000  0.00  0.00    +0.000 HD
BRANCH  31  33
ATOM     33  C   UNL     1       0.906   9.310  18.206  0.00  0.00    +0.000 C 
BRANCH  33  34
ATOM     34  O   UNL     1       1.854  10.006  17.428  0.00  0.00    +0.000 OA
ATOM     35  H   UNL     1       1.739  10.946  17.668  0.00  0.00    +0.000 HD
ENDBRANCH  33  34
ENDBRANCH  31  33
ENDBRANCH  22  25
ENDBRANCH   1  19
TORSDOF 8
ENDMDL
MODEL 8
REMARK VINA RESULT:      -6.9      6.801      8.327
REMARK  Name = 
REMARK  8 active torsions:
REMARK  status: ('A' for Active; 'I' for Inactive)
REMARK    1  A    between atoms: N_3  and  C_4
REMARK    2  A    between atoms: C_4  and  N_5
REMARK    3  A    between atoms: N_8  and  C_9
REMARK    4  A    between atoms: N_15  and  C_16
REMARK    5  A    between atoms: C_16  and  O_17
REMARK    6  A    between atoms: N_18  and  C_19
REMARK    7  A    between atoms: N_25  and  C_26
REMARK    8  A    between atoms: C_26  and  O_27
REMARK                            x       y       z     vdW  Elec       q    Type
REMARK                         _______ _______ _______ _____ _____    ______ ____
ROOT
ATOM      1  C   UNL     1       1.390   9.319  19.633  0.00  0.00    +0.000 C 
ENDROOT
BRANCH   1   4
ATOM      2  O   UNL     1       2.729   7.725  17.799  0.00  0.00    +0.000 OA
ATOM      3  C   UNL     1       2.481   7.292  18.916  0.00  0.00    +0.000 C 
ATOM      4  N   UNL     1       1.906   8.019  19.918  0.00  0.00    +0.000 N 
ATOM      5  N   UNL     1       2.769   6.026  19.321  0.00  0.00    +0.000 N 
ATOM      6  H   UNL     1       1.305   7.489  20.534  0.00  0.00    +0.000 HD
ATOM      7  H   UNL     1       2.519   5.745  20.256  0.00  0.00    +0.000 HD
BRANCH   5   8
ATOM      8  C   UNL     1       3.376   5.067  18.449  0.00  0.00    +0.000 C 
ATOM      9  C   UNL     1       4.879   4.917  18.768  0.00  0.00    +0.000 C 
ATOM     10  O   UNL     1       5.727   5.796  18.750  0.00  0.00    +0.000 OA
ATOM     11  N   UNL     1       5.112   3.626  19.126  0.00  0.00    +0.000 N 
ATOM     12  C   UNL     1       3.978   2.895  19.028  0.00  0.00    +0.000 C 
ATOM     13  O   UNL     1       3.906   1.683  19.155  0.00  0.00    +0.000 OA
ATOM     14  N   UNL     1       2.923   3.732  18.734  0.00  0.00    +0.000 N 
ATOM     15  H   UNL     1       6.015   3.245  19.351  0.00  0.00    +0.000 HD
BRANCH  14  16
ATOM     16  C   UNL     1       1.683   3.251  18.205  0.00  0.00    +0.000 C 
BRANCH  16  17
ATOM     17  O   UNL     1       1.171   4.234  17.333  0.00  0.00    +0.000 OA
ATOM     18  H   UNL     1       1.952   4.603  16.877  0.00  0.00    +0.000 HD
ENDBRANCH  16  17
ENDBRANCH  14  16
ENDBRANCH   5   8
ENDBRANCH   1   4
BRANCH   1  19
ATOM     19  N   UNL     1       0.173   9.205  18.883  0.00  0.00    +0.000 N 
ATOM     20  C   UNL     1      -0.459  10.312  18.404  0.00  0.00    +0.000 C 
ATOM     21  O   UNL     1       0.013  11.441  18.472  0.00  0.00    +0.000 OA
ATOM     22  N   UNL     1      -1.683  10.047  17.874  0.00  0.00    +0.000 N 
ATOM     23  H   UNL     1      -0.240   8.292  18.778  0.00  0.00    +0.000 HD
ATOM     24  H   UNL     1      -1.927   9.103  17.623  0.00  0.00    +0.000 HD
BRANCH  22  25
ATOM     25  C   UNL     1      -2.434  11.114  17.284  0.00  0.00    +0.000 C 
ATOM     26  C   UNL     1      -3.115  10.759  15.944  0.00  0.00    +0.000 C 
ATOM     27  O   UNL     1      -2.609  10.224  14.970  0.00  0.00    +0.000 OA
ATOM     28  N   UNL     1      -4.409  11.172  16.017  0.00  0.00    +0.000 N 
ATOM     29  C   UNL     1      -4.689  11.636  17.256  0.00  0.00    +0.000 C 
ATOM     30  O   UNL     1      -5.751  12.133  17.604  0.00  0.00    +0.000 OA
ATOM     31  N   UNL     1      -3.589  11.454  18.069  0.00  0.00    +0.000 N 
ATOM     32  H   UNL     1      -5.074  11.121  15.262  0.00  0.00    +0.000 HD
BRANCH  31  33
ATOM     33  C   UNL     1      -3.444  12.135  19.320  0.00  0.00    +0.000 C 
BRANCH  33  34
ATOM     34  O   UNL     1      -2.333  12.996  19.215  0.00  0.00    +0.000 OA
ATOM     35  H   UNL     1      -1.596  12.426  18.922  0.00  0.00    +0.000 HD
ENDBRANCH  33  34
ENDBRANCH  31  33
ENDBRANCH  22  25
ENDBRANCH   1  19
TORSDOF 8
ENDMDL
MODEL 9
REMARK VINA RESULT:      -6.9      0.532      7.064
REMARK  Name = 
REMARK  8 active torsions:
REMARK  status: ('A' for Active; 'I' for Inactive)
REMARK    1  A    between atoms: N_3  and  C_4
REMARK    2  A    between atoms: C_4  and  N_5
REMARK    3  A    between atoms: N_8  and  C_9
REMARK    4  A    between atoms: N_15  and  C_16
REMARK    5  A    between atoms: C_16  and  O_17
REMARK    6  A    between atoms: N_18  and  C_19
REMARK    7  A    between atoms: N_25  and  C_26
REMARK    8  A    between atoms: C_26  and  O_27
REMARK                            x       y       z     vdW  Elec       q    Type
REMARK                         _______ _______ _______ _____ _____    ______ ____
ROOT
ATOM      1  C   UNL     1       7.098   5.880  19.072  0.00  0.00    +0.000 C 
ENDROOT
BRANCH   1   4
ATOM      2  O   UNL     1       5.947   3.455  19.775  0.00  0.00    +0.000 OA
ATOM      3  C   UNL     1       5.235   4.422  19.545  0.00  0.00    +0.000 C 
ATOM      4  N   UNL     1       5.699   5.678  19.275  0.00  0.00    +0.000 N 
ATOM      5  N   UNL     1       3.876   4.383  19.550  0.00  0.00    +0.000 N 
ATOM      6  H   UNL     1       5.132   6.209  18.629  0.00  0.00    +0.000 HD
ATOM      7  H   UNL     1       3.364   5.225  19.337  0.00  0.00    +0.000 HD
BRANCH   5   8
ATOM      8  C   UNL     1       3.150   3.177  19.806  0.00  0.00    +0.000 C 
ATOM      9  C   UNL     1       2.147   3.381  20.962  0.00  0.00    +0.000 C 
ATOM     10  O   UNL     1       2.402   3.728  22.105  0.00  0.00    +0.000 OA
ATOM     11  N   UNL     1       0.895   3.149  20.485  0.00  0.00    +0.000 N 
ATOM     12  C   UNL     1       0.944   2.763  19.190  0.00  0.00    +0.000 C 
ATOM     13  O   UNL     1      -0.006   2.361  18.536  0.00  0.00    +0.000 OA
ATOM     14  N   UNL     1       2.241   2.870  18.734  0.00  0.00    +0.000 N 
ATOM     15  H   UNL     1       0.055   3.177  21.038  0.00  0.00    +0.000 HD
BRANCH  14  16
ATOM     16  C   UNL     1       2.699   2.202  17.553  0.00  0.00    +0.000 C 
BRANCH  16  17
ATOM     17  O   UNL     1       2.260   2.944  16.436  0.00  0.00    +0.000 OA
ATOM     18  H   UNL     1       1.766   3.698  16.809  0.00  0.00    +0.000 HD
ENDBRANCH  16  17
ENDBRANCH  14  16
ENDBRANCH   5   8
ENDBRANCH   1   4
BRANCH   1  19
ATOM     19  N   UNL     1       7.508   5.244  17.854  0.00  0.00    +0.000 N 
ATOM     20  C   UNL     1       6.942   5.585  16.664  0.00  0.00    +0.000 C 
ATOM     21  O   UNL     1       6.154   6.514  16.533  0.00  0.00    +0.000 OA
ATOM     22  N   UNL     1       7.310   4.770  15.638  0.00  0.00    +0.000 N 
ATOM     23  H   UNL     1       8.174   4.490  17.909  0.00  0.00    +0.000 HD
ATOM     24  H   UNL     1       8.123   4.184  15.732  0.00  0.00    +0.000 HD
BRANCH  22  25
ATOM     25  C   UNL     1       6.830   5.048  14.319  0.00  0.00    +0.000 C 
ATOM     26  C   UNL     1       7.938   5.253  13.261  0.00  0.00    +0.000 C 
ATOM     27  O   UNL     1       8.920   5.974  13.341  0.00  0.00    +0.000 OA
ATOM     28  N   UNL     1       7.619   4.493  12.179  0.00  0.00    +0.000 N 
ATOM     29  C   UNL     1       6.526   3.738  12.435  0.00  0.00    +0.000 C 
ATOM     30  O   UNL     1       5.968   3.004  11.632  0.00  0.00    +0.000 OA
ATOM     31  N   UNL     1       6.145   3.922  13.748  0.00  0.00    +0.000 N 
ATOM     32  H   UNL     1       8.135   4.477  11.313  0.00  0.00    +0.000 HD
BRANCH  31  33
ATOM     33  C   UNL     1       4.852   3.537  14.227  0.00  0.00    +0.000 C 
BRANCH  33  34
ATOM     34  O   UNL     1       4.565   4.318  15.365  0.00  0.00    +0.000 OA
ATOM     35  H   UNL     1       4.016   3.746  15.935  0.00  0.00    +0.000 HD
ENDBRANCH  33  34
ENDBRANCH  31  33
ENDBRANCH  22  25
ENDBRANCH   1  19
TORSDOF 8
ENDMDL
