MODEL 1
REMARK VINA RESULT:      -7.3      0.000      0.000
REMARK  Name = 
REMARK  9 active torsions:
REMARK  status: ('A' for Active; 'I' for Inactive)
REMARK    1  A    between atoms: C_1  and  O_2
REMARK    2  A    between atoms: O_2  and  C_3
REMARK    3  A    between atoms: C_7  and  C_8
REMARK    4  A    between atoms: C_9  and  C_10
REMARK    5  A    between atoms: C_10  and  O_12
REMARK    6  A    between atoms: N_15  and  C_16
REMARK    7  A    between atoms: C_16  and  C_17
REMARK    8  A    between atoms: C_22  and  O_23
REMARK    9  A    between atoms: O_23  and  C_24
REMARK                            x       y       z     vdW  Elec       q    Type
REMARK                         _______ _______ _______ _____ _____    ______ ____
ROOT
ATOM      1  C   UNL     1      -2.792  13.138  20.900  0.00  0.00    +0.000 A 
ATOM      2  C   UNL     1      -1.582  13.186  21.532  0.00  0.00    +0.000 A 
ATOM      3  C   UNL     1      -0.349  12.613  20.864  0.00  0.00    +0.000 A 
ATOM      4  O   UNL     1       0.752  12.860  21.362  0.00  0.00    +0.000 OA
ATOM      5  N   UNL     1      -0.492  11.786  19.761  0.00  0.00    +0.000 N 
ATOM      6  C   UNL     1      -1.757  11.662  19.204  0.00  0.00    +0.000 A 
ATOM      7  C   UNL     1      -2.797  12.455  19.640  0.00  0.00    +0.000 A 
ATOM      8  O   UNL     1      -3.711  12.504  18.602  0.00  0.00    +0.000 OA
ATOM      9  C   UNL     1      -3.301  11.590  17.659  0.00  0.00    +0.000 A 
ATOM     10  C   UNL     1      -3.825  11.377  16.386  0.00  0.00    +0.000 A 
ATOM     11  C   UNL     1      -3.329  10.262  15.685  0.00  0.00    +0.000 A 
ATOM     12  C   UNL     1      -2.405   9.388  16.263  0.00  0.00    +0.000 A 
ATOM     13  C   UNL     1      -1.818   9.692  17.492  0.00  0.00    +0.000 A 
ATOM     14  C   UNL     1      -2.225  10.866  18.148  0.00  0.00    +0.000 A 
ENDROOT
BRANCH   1  19
ATOM     15  C   UNL     1      -5.895  13.047  23.072  0.00  0.00    +0.000 A 
ATOM     16  C   UNL     1      -6.181  14.410  23.175  0.00  0.00    +0.000 A 
ATOM     17  C   UNL     1      -5.428  15.347  22.468  0.00  0.00    +0.000 A 
ATOM     18  C   UNL     1      -4.360  14.936  21.663  0.00  0.00    +0.000 A 
ATOM     19  C   UNL     1      -4.035  13.574  21.587  0.00  0.00    +0.000 A 
ATOM     20  C   UNL     1      -4.822  12.631  22.280  0.00  0.00    +0.000 A 
BRANCH  15  22
ATOM     21  C   UNL     1      -7.916  11.783  23.182  0.00  0.00    +0.000 C 
ATOM     22  O   UNL     1      -6.727  12.246  23.804  0.00  0.00    +0.000 OA
ENDBRANCH  15  22
ENDBRANCH   1  19
BRANCH   2  23
ATOM     23  C   UNL     1      -1.403  13.789  22.893  0.00  0.00    +0.000 C 
ATOM     24  O   UNL     1      -1.320  14.973  23.139  0.00  0.00    +0.000 OA
BRANCH  23  25
ATOM     25  O   UNL     1      -1.384  12.893  23.908  0.00  0.00    +0.000 OA
ATOM     26  H   UNL     1      -0.481  12.592  24.171  0.00  0.00    +0.000 HD
ENDBRANCH  23  25
ENDBRANCH   2  23
BRANCH   5  27
ATOM     27  C   UNL     1       0.703  11.475  18.962  0.00  0.00    +0.000 C 
BRANCH  27  28
ATOM     28  C   UNL     1       1.196  10.054  19.008  0.00  0.00    +0.000 A 
ATOM     29  C   UNL     1       1.772   9.475  17.855  0.00  0.00    +0.000 A 
ATOM     30  C   UNL     1       2.298   8.183  17.874  0.00  0.00    +0.000 A 
ATOM     31  C   UNL     1       2.258   7.439  19.041  0.00  0.00    +0.000 A 
ATOM     32  C   UNL     1       1.697   7.992  20.192  0.00  0.00    +0.000 A 
ATOM     33  C   UNL     1       1.161   9.288  20.188  0.00  0.00    +0.000 A 
BRANCH  33  34
ATOM     34  O   UNL     1       0.784   9.706  21.438  0.00  0.00    +0.000 OA
ATOM     35  C   UNL     1      -0.311   9.063  22.075  0.00  0.00    +0.000 C 
ENDBRANCH  33  34
ENDBRANCH  27  28
ENDBRANCH   5  27
TORSDOF 7
ENDMDL
MODEL 2
REMARK VINA RESULT:      -7.0      4.048      7.520
REMARK  Name = 
REMARK  9 active torsions:
REMARK  status: ('A' for Active; 'I' for Inactive)
REMARK    1  A    between atoms: C_1  and  O_2
REMARK    2  A    between atoms: O_2  and  C_3
REMARK    3  A    between atoms: C_7  and  C_8
REMARK    4  A    between atoms: C_9  and  C_10
REMARK    5  A    between atoms: C_10  and  O_12
REMARK    6  A    between atoms: N_15  and  C_16
REMARK    7  A    between atoms: C_16  and  C_17
REMARK    8  A    between atoms: C_22  and  O_23
REMARK    9  A    between atoms: O_23  and  C_24
REMARK                            x       y       z     vdW  Elec       q    Type
REMARK                         _______ _______ _______ _____ _____    ______ ____
ROOT
ATOM      1  C   UNL     1       1.354   8.271  19.966  0.00  0.00    +0.000 A 
ATOM      2  C   UNL     1       1.905   8.829  18.847  0.00  0.00    +0.000 A 
ATOM      3  C   UNL     1       2.682   7.971  17.870  0.00  0.00    +0.000 A 
ATOM      4  O   UNL     1       2.980   8.457  16.777  0.00  0.00    +0.000 OA
ATOM      5  N   UNL     1       3.086   6.699  18.248  0.00  0.00    +0.000 N 
ATOM      6  C   UNL     1       2.602   6.197  19.449  0.00  0.00    +0.000 A 
ATOM      7  C   UNL     1       1.636   6.879  20.157  0.00  0.00    +0.000 A 
ATOM      8  O   UNL     1       0.997   5.940  20.947  0.00  0.00    +0.000 OA
ATOM      9  C   UNL     1       1.716   4.771  20.847  0.00  0.00    +0.000 A 
ATOM     10  C   UNL     1       1.389   3.516  21.355  0.00  0.00    +0.000 A 
ATOM     11  C   UNL     1       2.382   2.524  21.258  0.00  0.00    +0.000 A 
ATOM     12  C   UNL     1       3.645   2.805  20.731  0.00  0.00    +0.000 A 
ATOM     13  C   UNL     1       3.901   4.038  20.129  0.00  0.00    +0.000 A 
ATOM     14  C   UNL     1       2.876   4.997  20.122  0.00  0.00    +0.000 A 
ENDROOT
BRANCH   1  19
ATOM     15  C   UNL     1      -0.982  10.776  21.585  0.00  0.00    +0.000 A 
ATOM     16  C   UNL     1      -0.795  10.471  22.935  0.00  0.00    +0.000 A 
ATOM     17  C   UNL     1       0.150   9.524  23.323  0.00  0.00    +0.000 A 
ATOM     18  C   UNL     1       0.912   8.848  22.362  0.00  0.00    +0.000 A 
ATOM     19  C   UNL     1       0.702   9.113  21.002  0.00  0.00    +0.000 A 
ATOM     20  C   UNL     1      -0.235  10.096  20.620  0.00  0.00    +0.000 A 
BRANCH  15  22
ATOM     21  C   UNL     1      -2.569  12.317  22.481  0.00  0.00    +0.000 C 
ATOM     22  O   UNL     1      -1.927  11.737  21.355  0.00  0.00    +0.000 OA
ENDBRANCH  15  22
ENDBRANCH   1  19
BRANCH   2  23
ATOM     23  C   UNL     1       1.784  10.288  18.526  0.00  0.00    +0.000 C 
ATOM     24  O   UNL     1       2.540  11.161  18.895  0.00  0.00    +0.000 OA
BRANCH  23  25
ATOM     25  O   UNL     1       0.747  10.602  17.711  0.00  0.00    +0.000 OA
ATOM     26  H   UNL     1       0.995  11.148  16.928  0.00  0.00    +0.000 HD
ENDBRANCH  23  25
ENDBRANCH   2  23
BRANCH   5  27
ATOM     27  C   UNL     1       3.579   5.785  17.207  0.00  0.00    +0.000 C 
BRANCH  27  28
ATOM     28  C   UNL     1       5.052   5.477  17.222  0.00  0.00    +0.000 A 
ATOM     29  C   UNL     1       5.846   5.901  18.310  0.00  0.00    +0.000 A 
ATOM     30  C   UNL     1       7.201   5.581  18.392  0.00  0.00    +0.000 A 
ATOM     31  C   UNL     1       7.796   4.835  17.389  0.00  0.00    +0.000 A 
ATOM     32  C   UNL     1       7.030   4.402  16.306  0.00  0.00    +0.000 A 
ATOM     33  C   UNL     1       5.667   4.718  16.208  0.00  0.00    +0.000 A 
BRANCH  33  34
ATOM     34  O   UNL     1       5.056   4.093  15.152  0.00  0.00    +0.000 OA
ATOM     35  C   UNL     1       5.748   4.000  13.915  0.00  0.00    +0.000 C 
ENDBRANCH  33  34
ENDBRANCH  27  28
ENDBRANCH   5  27
TORSDOF 7
ENDMDL
MODEL 3
REMARK VINA RESULT:      -6.9      2.657      8.095
REMARK  Name = 
REMARK  9 active torsions:
REMARK  status: ('A' for Active; 'I' for Inactive)
REMARK    1  A    between atoms: C_1  and  O_2
REMARK    2  A    between atoms: O_2  and  C_3
REMARK    3  A    between atoms: C_7  and  C_8
REMARK    4  A    between atoms: C_9  and  C_10
REMARK    5  A    between atoms: C_10  and  O_12
REMARK    6  A    between atoms: N_15  and  C_16
REMARK    7  A    between atoms: C_16  and  C_17
REMARK    8  A    between atoms: C_22  and  O_23
REMARK    9  A    between atoms: O_23  and  C_24
REMARK                            x       y       z     vdW  Elec       q    Type
REMARK                         _______ _______ _______ _____ _____    ______ ____
ROOT
ATOM      1  C   UNL     1      -2.227  11.997  19.176  0.00  0.00    +0.000 A 
ATOM      2  C   UNL     1      -3.087  11.635  18.178  0.00  0.00    +0.000 A 
ATOM      3  C   UNL     1      -4.553  12.010  18.260  0.00  0.00    +0.000 A 
ATOM      4  O   UNL     1      -5.251  11.857  17.255  0.00  0.00    +0.000 OA
ATOM      5  N   UNL     1      -5.078  12.452  19.465  0.00  0.00    +0.000 N 
ATOM      6  C   UNL     1      -4.193  12.703  20.504  0.00  0.00    +0.000 A 
ATOM      7  C   UNL     1      -2.831  12.662  20.292  0.00  0.00    +0.000 A 
ATOM      8  O   UNL     1      -2.260  13.446  21.279  0.00  0.00    +0.000 OA
ATOM      9  C   UNL     1      -3.260  13.768  22.168  0.00  0.00    +0.000 A 
ATOM     10  C   UNL     1      -3.198  14.646  23.248  0.00  0.00    +0.000 A 
ATOM     11  C   UNL     1      -4.317  14.667  24.101  0.00  0.00    +0.000 A 
ATOM     12  C   UNL     1      -5.403  13.811  23.903  0.00  0.00    +0.000 A 
ATOM     13  C   UNL     1      -5.483  13.028  22.750  0.00  0.00    +0.000 A 
ATOM     14  C   UNL     1      -4.419  13.085  21.834  0.00  0.00    +0.000 A 
ENDROOT
BRANCH   1  19
ATOM     15  C   UNL     1       0.783   9.724  19.531  0.00  0.00    +0.000 A 
ATOM     16  C   UNL     1       1.761  10.486  18.887  0.00  0.00    +0.000 A 
ATOM     17  C   UNL     1       1.470  11.768  18.424  0.00  0.00    +0.000 A 
ATOM     18  C   UNL     1       0.185  12.302  18.577  0.00  0.00    +0.000 A 
ATOM     19  C   UNL     1      -0.817  11.529  19.181  0.00  0.00    +0.000 A 
ATOM     20  C   UNL     1      -0.505  10.246  19.675  0.00  0.00    +0.000 A 
BRANCH  15  22
ATOM     21  C   UNL     1       1.102   8.188  21.329  0.00  0.00    +0.000 C 
ATOM     22  O   UNL     1       1.217   8.497  19.948  0.00  0.00    +0.000 OA
ENDBRANCH  15  22
ENDBRANCH   1  19
BRANCH   2  23
ATOM     23  C   UNL     1      -2.648  10.862  16.972  0.00  0.00    +0.000 C 
ATOM     24  O   UNL     1      -2.601   9.654  16.882  0.00  0.00    +0.000 OA
BRANCH  23  25
ATOM     25  O   UNL     1      -2.331  11.624  15.897  0.00  0.00    +0.000 OA
ATOM     26  H   UNL     1      -1.607  11.256  15.336  0.00  0.00    +0.000 HD
ENDBRANCH  23  25
ENDBRANCH   2  23
BRANCH   5  27
ATOM     27  C   UNL     1      -6.411  13.075  19.459  0.00  0.00    +0.000 C 
BRANCH  27  28
ATOM     28  C   UNL     1      -6.471  14.537  19.108  0.00  0.00    +0.000 A 
ATOM     29  C   UNL     1      -5.896  15.490  19.979  0.00  0.00    +0.000 A 
ATOM     30  C   UNL     1      -5.875  16.848  19.660  0.00  0.00    +0.000 A 
ATOM     31  C   UNL     1      -6.429  17.286  18.469  0.00  0.00    +0.000 A 
ATOM     32  C   UNL     1      -7.000  16.362  17.593  0.00  0.00    +0.000 A 
ATOM     33  C   UNL     1      -7.032  14.994  17.901  0.00  0.00    +0.000 A 
BRANCH  33  34
ATOM     34  O   UNL     1      -7.504  14.232  16.864  0.00  0.00    +0.000 OA
ATOM     35  C   UNL     1      -7.912  14.879  15.666  0.00  0.00    +0.000 C 
ENDBRANCH  33  34
ENDBRANCH  27  28
ENDBRANCH   5  27
TORSDOF 7
ENDMDL
MODEL 4
REMARK VINA RESULT:      -6.9      1.141      1.778
REMARK  Name = 
REMARK  9 active torsions:
REMARK  status: ('A' for Active; 'I' for Inactive)
REMARK    1  A    between atoms: C_1  and  O_2
REMARK    2  A    between atoms: O_2  and  C_3
REMARK    3  A    between atoms: C_7  and  C_8
REMARK    4  A    between atoms: C_9  and  C_10
REMARK    5  A    between atoms: C_10  and  O_12
REMARK    6  A    between atoms: N_15  and  C_16
REMARK    7  A    between atoms: C_16  and  C_17
REMARK    8  A    between atoms: C_22  and  O_23
REMARK    9  A    between atoms: O_23  and  C_24
REMARK                            x       y       z     vdW  Elec       q    Type
REMARK                         _______ _______ _______ _____ _____    ______ ____
ROOT
ATOM      1  C   UNL     1      -2.508  13.423  21.417  0.00  0.00    +0.000 A 
ATOM      2  C   UNL     1      -1.217  13.500  21.858  0.00  0.00    +0.000 A 
ATOM      3  C   UNL     1      -0.089  12.930  21.022  0.00  0.00    +0.000 A 
ATOM      4  O   UNL     1       1.070  13.203  21.342  0.00  0.00    +0.000 OA
ATOM      5  N   UNL     1      -0.383  12.079  19.968  0.00  0.00    +0.000 N 
ATOM      6  C   UNL     1      -1.716  11.926  19.611  0.00  0.00    +0.000 A 
ATOM      7  C   UNL     1      -2.691  12.713  20.185  0.00  0.00    +0.000 A 
ATOM      8  O   UNL     1      -3.752  12.728  19.297  0.00  0.00    +0.000 OA
ATOM      9  C   UNL     1      -3.474  11.800  18.320  0.00  0.00    +0.000 A 
ATOM     10  C   UNL     1      -4.180  11.553  17.145  0.00  0.00    +0.000 A 
ATOM     11  C   UNL     1      -3.778  10.431  16.398  0.00  0.00    +0.000 A 
ATOM     12  C   UNL     1      -2.762   9.582  16.845  0.00  0.00    +0.000 A 
ATOM     13  C   UNL     1      -2.001   9.920  17.965  0.00  0.00    +0.000 A 
ATOM     14  C   UNL     1      -2.324  11.101  18.654  0.00  0.00    +0.000 A 
ENDROOT
BRANCH   1  19
ATOM     15  C   UNL     1      -5.237  15.584  22.911  0.00  0.00    +0.000 A 
ATOM     16  C   UNL     1      -5.974  14.625  23.609  0.00  0.00    +0.000 A 
ATOM     17  C   UNL     1      -5.538  13.303  23.673  0.00  0.00    +0.000 A 
ATOM     18  C   UNL     1      -4.365  12.912  23.017  0.00  0.00    +0.000 A 
ATOM     19  C   UNL     1      -3.640  13.855  22.276  0.00  0.00    +0.000 A 
ATOM     20  C   UNL     1      -4.072  15.198  22.244  0.00  0.00    +0.000 A 
BRANCH  15  22
ATOM     21  C   UNL     1      -5.636  17.581  24.155  0.00  0.00    +0.000 C 
ATOM     22  O   UNL     1      -5.775  16.840  22.952  0.00  0.00    +0.000 OA
ENDBRANCH  15  22
ENDBRANCH   1  19
BRANCH   2  23
ATOM     23  C   UNL     1      -0.844  14.134  23.164  0.00  0.00    +0.000 C 
ATOM     24  O   UNL     1      -1.173  13.740  24.262  0.00  0.00    +0.000 OA
BRANCH  23  25
ATOM     25  O   UNL     1      -0.029  15.210  23.057  0.00  0.00    +0.000 OA
ATOM     26  H   UNL     1       0.896  14.996  22.788  0.00  0.00    +0.000 HD
ENDBRANCH  23  25
ENDBRANCH   2  23
BRANCH   5  27
ATOM     27  C   UNL     1       0.683  11.768  19.003  0.00  0.00    +0.000 C 
BRANCH  27  28
ATOM     28  C   UNL     1       1.178  10.347  18.978  0.00  0.00    +0.000 A 
ATOM     29  C   UNL     1       1.758   9.829  17.799  0.00  0.00    +0.000 A 
ATOM     30  C   UNL     1       2.287   8.538  17.753  0.00  0.00    +0.000 A 
ATOM     31  C   UNL     1       2.245   7.735  18.881  0.00  0.00    +0.000 A 
ATOM     32  C   UNL     1       1.679   8.228  20.057  0.00  0.00    +0.000 A 
ATOM     33  C   UNL     1       1.141   9.522  20.118  0.00  0.00    +0.000 A 
BRANCH  33  34
ATOM     34  O   UNL     1       0.759   9.875  21.386  0.00  0.00    +0.000 OA
ATOM     35  C   UNL     1       0.506   8.850  22.337  0.00  0.00    +0.000 C 
ENDBRANCH  33  34
ENDBRANCH  27  28
ENDBRANCH   5  27
TORSDOF 7
ENDMDL
MODEL 5
REMARK VINA RESULT:      -6.9      1.333      1.958
REMARK  Name = 
REMARK  9 active torsions:
REMARK  status: ('A' for Active; 'I' for Inactive)
REMARK    1  A    between atoms: C_1  and  O_2
REMARK    2  A    between atoms: O_2  and  C_3
REMARK    3  A    between atoms: C_7  and  C_8
REMARK    4  A    between atoms: C_9  and  C_10
REMARK    5  A    between atoms: C_10  and  O_12
REMARK    6  A    between atoms: N_15  and  C_16
REMARK    7  A    between atoms: C_16  and  C_17
REMARK    8  A    between atoms: C_22  and  O_23
REMARK    9  A    between atoms: O_23  and  C_24
REMARK                            x       y       z     vdW  Elec       q    Type
REMARK                         _______ _______ _______ _____ _____    ______ ____
ROOT
ATOM      1  C   UNL     1      -3.920  13.196  21.249  0.00  0.00    +0.000 A 
ATOM      2  C   UNL     1      -2.789  13.363  21.997  0.00  0.00    +0.000 A 
ATOM      3  C   UNL     1      -1.438  12.964  21.438  0.00  0.00    +0.000 A 
ATOM      4  O   UNL     1      -0.427  13.322  22.045  0.00  0.00    +0.000 OA
ATOM      5  N   UNL     1      -1.377  12.166  20.305  0.00  0.00    +0.000 N 
ATOM      6  C   UNL     1      -2.561  11.914  19.625  0.00  0.00    +0.000 A 
ATOM      7  C   UNL     1      -3.725  12.562  19.978  0.00  0.00    +0.000 A 
ATOM      8  O   UNL     1      -4.537  12.540  18.859  0.00  0.00    +0.000 OA
ATOM      9  C   UNL     1      -3.933  11.716  17.938  0.00  0.00    +0.000 A 
ATOM     10  C   UNL     1      -4.307  11.488  16.615  0.00  0.00    +0.000 A 
ATOM     11  C   UNL     1      -3.617  10.465  15.938  0.00  0.00    +0.000 A 
ATOM     12  C   UNL     1      -2.652   9.686  16.581  0.00  0.00    +0.000 A 
ATOM     13  C   UNL     1      -2.223  10.014  17.868  0.00  0.00    +0.000 A 
ATOM     14  C   UNL     1      -2.828  11.106  18.511  0.00  0.00    +0.000 A 
ENDROOT
BRANCH   1  19
ATOM     15  C   UNL     1      -7.091  15.018  22.239  0.00  0.00    +0.000 A 
ATOM     16  C   UNL     1      -7.916  13.941  22.572  0.00  0.00    +0.000 A 
ATOM     17  C   UNL     1      -7.419  12.639  22.566  0.00  0.00    +0.000 A 
ATOM     18  C   UNL     1      -6.090  12.389  22.204  0.00  0.00    +0.000 A 
ATOM     19  C   UNL     1      -5.265  13.457  21.823  0.00  0.00    +0.000 A 
ATOM     20  C   UNL     1      -5.767  14.774  21.863  0.00  0.00    +0.000 A 
BRANCH  15  22
ATOM     21  C   UNL     1      -6.930  17.389  22.025  0.00  0.00    +0.000 C 
ATOM     22  O   UNL     1      -7.708  16.236  22.308  0.00  0.00    +0.000 OA
ENDBRANCH  15  22
ENDBRANCH   1  19
BRANCH   2  23
ATOM     23  C   UNL     1      -2.811  13.934  23.382  0.00  0.00    +0.000 C 
ATOM     24  O   UNL     1      -3.217  13.369  24.375  0.00  0.00    +0.000 OA
BRANCH  23  25
ATOM     25  O   UNL     1      -2.277  15.174  23.491  0.00  0.00    +0.000 OA
ATOM     26  H   UNL     1      -2.390  15.738  22.689  0.00  0.00    +0.000 HD
ENDBRANCH  23  25
ENDBRANCH   2  23
BRANCH   5  27
ATOM     27  C   UNL     1      -0.084  12.027  19.618  0.00  0.00    +0.000 C 
BRANCH  27  28
ATOM     28  C   UNL     1       0.564  10.670  19.665  0.00  0.00    +0.000 A 
ATOM     29  C   UNL     1       1.102  10.110  18.484  0.00  0.00    +0.000 A 
ATOM     30  C   UNL     1       1.767   8.883  18.497  0.00  0.00    +0.000 A 
ATOM     31  C   UNL     1       1.905   8.186  19.685  0.00  0.00    +0.000 A 
ATOM     32  C   UNL     1       1.384   8.722  20.864  0.00  0.00    +0.000 A 
ATOM     33  C   UNL     1       0.711   9.952  20.867  0.00  0.00    +0.000 A 
BRANCH  33  34
ATOM     34  O   UNL     1       0.395  10.376  22.131  0.00  0.00    +0.000 OA
ATOM     35  C   UNL     1       0.033   9.411  23.109  0.00  0.00    +0.000 C 
ENDBRANCH  33  34
ENDBRANCH  27  28
ENDBRANCH   5  27
TORSDOF 7
ENDMDL
MODEL 6
REMARK VINA RESULT:      -6.9      1.161      1.608
REMARK  Name = 
REMARK  9 active torsions:
REMARK  status: ('A' for Active; 'I' for Inactive)
REMARK    1  A    between atoms: C_1  and  O_2
REMARK    2  A    between atoms: O_2  and  C_3
REMARK    3  A    between atoms: C_7  and  C_8
REMARK    4  A    between atoms: C_9  and  C_10
REMARK    5  A    between atoms: C_10  and  O_12
REMARK    6  A    between atoms: N_15  and  C_16
REMARK    7  A    between atoms: C_16  and  C_17
REMARK    8  A    between atoms: C_22  and  O_23
REMARK    9  A    between atoms: O_23  and  C_24
REMARK                            x       y       z     vdW  Elec       q    Type
REMARK                         _______ _______ _______ _____ _____    ______ ____
ROOT
ATOM      1  C   UNL     1      -3.247  13.057  20.685  0.00  0.00    +0.000 A 
ATOM      2  C   UNL     1      -2.074  13.168  21.377  0.00  0.00    +0.000 A 
ATOM      3  C   UNL     1      -0.781  12.659  20.774  0.00  0.00    +0.000 A 
ATOM      4  O   UNL     1       0.279  12.963  21.326  0.00  0.00    +0.000 OA
ATOM      5  N   UNL     1      -0.825  11.825  19.667  0.00  0.00    +0.000 N 
ATOM      6  C   UNL     1      -2.053  11.637  19.047  0.00  0.00    +0.000 A 
ATOM      7  C   UNL     1      -3.153  12.374  19.428  0.00  0.00    +0.000 A 
ATOM      8  O   UNL     1      -4.014  12.376  18.346  0.00  0.00    +0.000 OA
ATOM      9  C   UNL     1      -3.510  11.485  17.427  0.00  0.00    +0.000 A 
ATOM     10  C   UNL     1      -3.958  11.245  16.129  0.00  0.00    +0.000 A 
ATOM     11  C   UNL     1      -3.370  10.157  15.457  0.00  0.00    +0.000 A 
ATOM     12  C   UNL     1      -2.433   9.331  16.083  0.00  0.00    +0.000 A 
ATOM     13  C   UNL     1      -1.925   9.666  17.339  0.00  0.00    +0.000 A 
ATOM     14  C   UNL     1      -2.425  10.817  17.971  0.00  0.00    +0.000 A 
ENDROOT
BRANCH   1  19
ATOM     15  C   UNL     1      -6.520  14.855  21.322  0.00  0.00    +0.000 A 
ATOM     16  C   UNL     1      -7.137  13.966  22.205  0.00  0.00    +0.000 A 
ATOM     17  C   UNL     1      -6.460  12.838  22.664  0.00  0.00    +0.000 A 
ATOM     18  C   UNL     1      -5.157  12.568  22.228  0.00  0.00    +0.000 A 
ATOM     19  C   UNL     1      -4.544  13.428  21.307  0.00  0.00    +0.000 A 
ATOM     20  C   UNL     1      -5.225  14.585  20.873  0.00  0.00    +0.000 A 
BRANCH  15  22
ATOM     21  C   UNL     1      -7.379  16.264  19.599  0.00  0.00    +0.000 C 
ATOM     22  O   UNL     1      -7.296  15.925  20.975  0.00  0.00    +0.000 OA
ENDBRANCH  15  22
ENDBRANCH   1  19
BRANCH   2  23
ATOM     23  C   UNL     1      -1.995  13.779  22.743  0.00  0.00    +0.000 C 
ATOM     24  O   UNL     1      -2.230  14.936  23.017  0.00  0.00    +0.000 OA
BRANCH  23  25
ATOM     25  O   UNL     1      -1.674  12.910  23.732  0.00  0.00    +0.000 OA
ATOM     26  H   UNL     1      -2.434  12.638  24.299  0.00  0.00    +0.000 HD
ENDBRANCH  23  25
ENDBRANCH   2  23
BRANCH   5  27
ATOM     27  C   UNL     1       0.424  11.577  18.930  0.00  0.00    +0.000 C 
BRANCH  27  28
ATOM     28  C   UNL     1       0.991  10.186  19.012  0.00  0.00    +0.000 A 
ATOM     29  C   UNL     1       1.551   9.588  17.860  0.00  0.00    +0.000 A 
ATOM     30  C   UNL     1       2.144   8.326  17.909  0.00  0.00    +0.000 A 
ATOM     31  C   UNL     1       2.188   7.631  19.106  0.00  0.00    +0.000 A 
ATOM     32  C   UNL     1       1.644   8.203  20.256  0.00  0.00    +0.000 A 
ATOM     33  C   UNL     1       1.042   9.469  20.222  0.00  0.00    +0.000 A 
BRANCH  33  34
ATOM     34  O   UNL     1       0.693   9.919  21.469  0.00  0.00    +0.000 OA
ATOM     35  C   UNL     1      -0.305   9.217  22.198  0.00  0.00    +0.000 C 
ENDBRANCH  33  34
ENDBRANCH  27  28
ENDBRANCH   5  27
TORSDOF 7
ENDMDL
MODEL 7
REMARK VINA RESULT:      -6.9      1.962      4.373
REMARK  Name = 
REMARK  9 active torsions:
REMARK  status: ('A' for Active; 'I' for Inactive)
REMARK    1  A    between atoms: C_1  and  O_2
REMARK    2  A    between atoms: O_2  and  C_3
REMARK    3  A    between atoms: C_7  and  C_8
REMARK    4  A    between atoms: C_9  and  C_10
REMARK    5  A    between atoms: C_10  and  O_12
REMARK    6  A    between atoms: N_15  and  C_16
REMARK    7  A    between atoms: C_16  and  C_17
REMARK    8  A    between atoms: C_22  and  O_23
REMARK    9  A    between atoms: O_23  and  C_24
REMARK                            x       y       z     vdW  Elec       q    Type
REMARK                         _______ _______ _______ _____ _____    ______ ____
ROOT
ATOM      1  C   UNL     1      -4.221  12.481  19.706  0.00  0.00    +0.000 A 
ATOM      2  C   UNL     1      -4.230  11.576  18.683  0.00  0.00    +0.000 A 
ATOM      3  C   UNL     1      -2.928  11.007  18.155  0.00  0.00    +0.000 A 
ATOM      4  O   UNL     1      -2.982  10.044  17.386  0.00  0.00    +0.000 OA
ATOM      5  N   UNL     1      -1.729  11.612  18.498  0.00  0.00    +0.000 N 
ATOM      6  C   UNL     1      -1.761  12.613  19.461  0.00  0.00    +0.000 A 
ATOM      7  C   UNL     1      -2.920  12.881  20.157  0.00  0.00    +0.000 A 
ATOM      8  O   UNL     1      -2.533  13.483  21.341  0.00  0.00    +0.000 OA
ATOM      9  C   UNL     1      -1.185  13.741  21.240  0.00  0.00    +0.000 A 
ATOM     10  C   UNL     1      -0.326  14.215  22.230  0.00  0.00    +0.000 A 
ATOM     11  C   UNL     1       0.975  14.554  21.817  0.00  0.00    +0.000 A 
ATOM     12  C   UNL     1       1.361  14.473  20.477  0.00  0.00    +0.000 A 
ATOM     13  C   UNL     1       0.515  13.889  19.533  0.00  0.00    +0.000 A 
ATOM     14  C   UNL     1      -0.747  13.443  19.960  0.00  0.00    +0.000 A 
ENDROOT
BRANCH   1  19
ATOM     15  C   UNL     1      -7.136  13.517  21.892  0.00  0.00    +0.000 A 
ATOM     16  C   UNL     1      -7.616  14.618  21.179  0.00  0.00    +0.000 A 
ATOM     17  C   UNL     1      -7.058  14.967  19.951  0.00  0.00    +0.000 A 
ATOM     18  C   UNL     1      -5.991  14.230  19.424  0.00  0.00    +0.000 A 
ATOM     19  C   UNL     1      -5.471  13.150  20.150  0.00  0.00    +0.000 A 
ATOM     20  C   UNL     1      -6.063  12.785  21.377  0.00  0.00    +0.000 A 
BRANCH  15  22
ATOM     21  C   UNL     1      -7.220  12.351  23.972  0.00  0.00    +0.000 C 
ATOM     22  O   UNL     1      -7.793  13.284  23.068  0.00  0.00    +0.000 OA
ENDBRANCH  15  22
ENDBRANCH   1  19
BRANCH   2  23
ATOM     23  C   UNL     1      -5.494  11.104  18.030  0.00  0.00    +0.000 C 
ATOM     24  O   UNL     1      -6.338  10.402  18.544  0.00  0.00    +0.000 OA
BRANCH  23  25
ATOM     25  O   UNL     1      -5.686  11.567  16.772  0.00  0.00    +0.000 OA
ATOM     26  H   UNL     1      -6.627  11.565  16.476  0.00  0.00    +0.000 HD
ENDBRANCH  23  25
ENDBRANCH   2  23
BRANCH   5  27
ATOM     27  C   UNL     1      -0.478  10.891  18.220  0.00  0.00    +0.000 C 
BRANCH  27  28
ATOM     28  C   UNL     1       0.054  10.011  19.319  0.00  0.00    +0.000 A 
ATOM     29  C   UNL     1      -0.677   9.872  20.520  0.00  0.00    +0.000 A 
ATOM     30  C   UNL     1      -0.251   9.018  21.537  0.00  0.00    +0.000 A 
ATOM     31  C   UNL     1       0.914   8.287  21.381  0.00  0.00    +0.000 A 
ATOM     32  C   UNL     1       1.651   8.406  20.202  0.00  0.00    +0.000 A 
ATOM     33  C   UNL     1       1.237   9.263  19.172  0.00  0.00    +0.000 A 
BRANCH  33  34
ATOM     34  O   UNL     1       2.008   9.142  18.045  0.00  0.00    +0.000 OA
ATOM     35  C   UNL     1       2.812   7.982  17.885  0.00  0.00    +0.000 C 
ENDBRANCH  33  34
ENDBRANCH  27  28
ENDBRANCH   5  27
TORSDOF 7
ENDMDL
MODEL 8
REMARK VINA RESULT:      -6.8      2.309      4.695
REMARK  Name = 
REMARK  9 active torsions:
REMARK  status: ('A' for Active; 'I' for Inactive)
REMARK    1  A    between atoms: C_1  and  O_2
REMARK    2  A    between atoms: O_2  and  C_3
REMARK    3  A    between atoms: C_7  and  C_8
REMARK    4  A    between atoms: C_9  and  C_10
REMARK    5  A    between atoms: C_10  and  O_12
REMARK    6  A    between atoms: N_15  and  C_16
REMARK    7  A    between atoms: C_16  and  C_17
REMARK    8  A    between atoms: C_22  and  O_23
REMARK    9  A    between atoms: O_23  and  C_24
REMARK                            x       y       z     vdW  Elec       q    Type
REMARK                         _______ _______ _______ _____ _____    ______ ____
ROOT
ATOM      1  C   UNL     1      -4.144  12.440  19.765  0.00  0.00    +0.000 A 
ATOM      2  C   UNL     1      -4.157  11.540  18.738  0.00  0.00    +0.000 A 
ATOM      3  C   UNL     1      -2.857  10.990  18.187  0.00  0.00    +0.000 A 
ATOM      4  O   UNL     1      -2.911  10.031  17.414  0.00  0.00    +0.000 OA
ATOM      5  N   UNL     1      -1.661  11.609  18.515  0.00  0.00    +0.000 N 
ATOM      6  C   UNL     1      -1.690  12.604  19.483  0.00  0.00    +0.000 A 
ATOM      7  C   UNL     1      -2.842  12.854  20.198  0.00  0.00    +0.000 A 
ATOM      8  O   UNL     1      -2.443  13.454  21.379  0.00  0.00    +0.000 OA
ATOM      9  C   UNL     1      -1.101  13.731  21.259  0.00  0.00    +0.000 A 
ATOM     10  C   UNL     1      -0.233  14.211  22.238  0.00  0.00    +0.000 A 
ATOM     11  C   UNL     1       1.058  14.569  21.806  0.00  0.00    +0.000 A 
ATOM     12  C   UNL     1       1.423  14.499  20.460  0.00  0.00    +0.000 A 
ATOM     13  C   UNL     1       0.570  13.909  19.526  0.00  0.00    +0.000 A 
ATOM     14  C   UNL     1      -0.679  13.445  19.970  0.00  0.00    +0.000 A 
ENDROOT
BRANCH   1  19
ATOM     15  C   UNL     1      -7.168  14.720  19.857  0.00  0.00    +0.000 A 
ATOM     16  C   UNL     1      -7.916  14.118  20.871  0.00  0.00    +0.000 A 
ATOM     17  C   UNL     1      -7.403  13.036  21.584  0.00  0.00    +0.000 A 
ATOM     18  C   UNL     1      -6.137  12.523  21.279  0.00  0.00    +0.000 A 
ATOM     19  C   UNL     1      -5.395  13.090  20.233  0.00  0.00    +0.000 A 
ATOM     20  C   UNL     1      -5.909  14.204  19.538  0.00  0.00    +0.000 A 
BRANCH  15  22
ATOM     21  C   UNL     1      -7.201  16.316  18.083  0.00  0.00    +0.000 C 
ATOM     22  O   UNL     1      -7.790  15.780  19.258  0.00  0.00    +0.000 OA
ENDBRANCH  15  22
ENDBRANCH   1  19
BRANCH   2  23
ATOM     23  C   UNL     1      -5.425  11.055  18.103  0.00  0.00    +0.000 C 
ATOM     24  O   UNL     1      -6.238  10.315  18.616  0.00  0.00    +0.000 OA
BRANCH  23  25
ATOM     25  O   UNL     1      -5.662  11.551  16.865  0.00  0.00    +0.000 OA
ATOM     26  H   UNL     1      -5.021  12.242  16.573  0.00  0.00    +0.000 HD
ENDBRANCH  23  25
ENDBRANCH   2  23
BRANCH   5  27
ATOM     27  C   UNL     1      -0.405  10.906  18.213  0.00  0.00    +0.000 C 
BRANCH  27  28
ATOM     28  C   UNL     1       0.125   9.983  19.277  0.00  0.00    +0.000 A 
ATOM     29  C   UNL     1      -0.558   9.869  20.509  0.00  0.00    +0.000 A 
ATOM     30  C   UNL     1      -0.135   8.979  21.496  0.00  0.00    +0.000 A 
ATOM     31  C   UNL     1       0.980   8.186  21.280  0.00  0.00    +0.000 A 
ATOM     32  C   UNL     1       1.668   8.281  20.070  0.00  0.00    +0.000 A 
ATOM     33  C   UNL     1       1.257   9.173  19.069  0.00  0.00    +0.000 A 
BRANCH  33  34
ATOM     34  O   UNL     1       1.969   9.024  17.907  0.00  0.00    +0.000 OA
ATOM     35  C   UNL     1       2.909   7.964  17.808  0.00  0.00    +0.000 C 
ENDBRANCH  33  34
ENDBRANCH  27  28
ENDBRANCH   5  27
TORSDOF 7
ENDMDL
MODEL 9
REMARK VINA RESULT:      -6.7      3.427      7.806
REMARK  Name = 
REMARK  9 active torsions:
REMARK  status: ('A' for Active; 'I' for Inactive)
REMARK    1  A    between atoms: C_1  and  O_2
REMARK    2  A    between atoms: O_2  and  C_3
REMARK    3  A    between atoms: C_7  and  C_8
REMARK    4  A    between atoms: C_9  and  C_10
REMARK    5  A    between atoms: C_10  and  O_12
REMARK    6  A    between atoms: N_15  and  C_16
REMARK    7  A    between atoms: C_16  and  C_17
REMARK    8  A    between atoms: C_22  and  O_23
REMARK    9  A    between atoms: O_23  and  C_24
REMARK                            x       y       z     vdW  Elec       q    Type
REMARK                         _______ _______ _______ _____ _____    ______ ____
ROOT
ATOM      1  C   UNL     1      -0.646  15.206  19.965  0.00  0.00    +0.000 A 
ATOM      2  C   UNL     1      -0.518  13.880  19.662  0.00  0.00    +0.000 A 
ATOM      3  C   UNL     1      -1.001  12.824  20.635  0.00  0.00    +0.000 A 
ATOM      4  O   UNL     1      -1.066  11.657  20.244  0.00  0.00    +0.000 OA
ATOM      5  N   UNL     1      -1.296  13.183  21.942  0.00  0.00    +0.000 N 
ATOM      6  C   UNL     1      -1.307  14.536  22.254  0.00  0.00    +0.000 A 
ATOM      7  C   UNL     1      -1.182  15.487  21.265  0.00  0.00    +0.000 A 
ATOM      8  O   UNL     1      -1.751  16.645  21.763  0.00  0.00    +0.000 OA
ATOM      9  C   UNL     1      -2.019  16.423  23.094  0.00  0.00    +0.000 A 
ATOM     10  C   UNL     1      -2.711  17.247  23.979  0.00  0.00    +0.000 A 
ATOM     11  C   UNL     1      -2.697  16.861  25.332  0.00  0.00    +0.000 A 
ATOM     12  C   UNL     1      -1.979  15.744  25.766  0.00  0.00    +0.000 A 
ATOM     13  C   UNL     1      -1.393  14.879  24.841  0.00  0.00    +0.000 A 
ATOM     14  C   UNL     1      -1.498  15.197  23.477  0.00  0.00    +0.000 A 
ENDROOT
BRANCH   1  19
ATOM     15  C   UNL     1       1.902  17.244  18.040  0.00  0.00    +0.000 A 
ATOM     16  C   UNL     1       1.065  17.973  17.193  0.00  0.00    +0.000 A 
ATOM     17  C   UNL     1      -0.320  17.875  17.308  0.00  0.00    +0.000 A 
ATOM     18  C   UNL     1      -0.893  17.025  18.262  0.00  0.00    +0.000 A 
ATOM     19  C   UNL     1      -0.063  16.254  19.088  0.00  0.00    +0.000 A 
ATOM     20  C   UNL     1       1.337  16.383  18.985  0.00  0.00    +0.000 A 
BRANCH  15  22
ATOM     21  C   UNL     1       4.147  16.478  18.304  0.00  0.00    +0.000 C 
ATOM     22  O   UNL     1       3.236  17.455  17.824  0.00  0.00    +0.000 OA
ENDBRANCH  15  22
ENDBRANCH   1  19
BRANCH   2  23
ATOM     23  C   UNL     1       0.095  13.398  18.382  0.00  0.00    +0.000 C 
ATOM     24  O   UNL     1       1.280  13.240  18.179  0.00  0.00    +0.000 OA
BRANCH  23  25
ATOM     25  O   UNL     1      -0.797  13.079  17.414  0.00  0.00    +0.000 OA
ATOM     26  H   UNL     1      -1.508  12.459  17.702  0.00  0.00    +0.000 HD
ENDBRANCH  23  25
ENDBRANCH   2  23
BRANCH   5  27
ATOM     27  C   UNL     1      -2.026  12.222  22.782  0.00  0.00    +0.000 C 
BRANCH  27  28
ATOM     28  C   UNL     1      -3.499  12.469  22.967  0.00  0.00    +0.000 A 
ATOM     29  C   UNL     1      -4.039  12.537  24.271  0.00  0.00    +0.000 A 
ATOM     30  C   UNL     1      -5.387  12.826  24.486  0.00  0.00    +0.000 A 
ATOM     31  C   UNL     1      -6.226  13.049  23.408  0.00  0.00    +0.000 A 
ATOM     32  C   UNL     1      -5.713  12.989  22.112  0.00  0.00    +0.000 A 
ATOM     33  C   UNL     1      -4.361  12.697  21.879  0.00  0.00    +0.000 A 
BRANCH  33  34
ATOM     34  O   UNL     1      -4.016  12.819  20.558  0.00  0.00    +0.000 OA
ATOM     35  C   UNL     1      -4.936  12.386  19.565  0.00  0.00    +0.000 C 
ENDBRANCH  33  34
ENDBRANCH  27  28
ENDBRANCH   5  27
TORSDOF 7
ENDMDL
