MODEL 1
REMARK VINA RESULT:      -8.4      0.000      0.000
REMARK  Name = 
REMARK  9 active torsions:
REMARK  status: ('A' for Active; 'I' for Inactive)
REMARK    1  A    between atoms: C_1  and  C_2
REMARK    2  A    between atoms: N_5  and  C_6
REMARK    3  A    between atoms: C_6  and  C_7
REMARK    4  A    between atoms: C_9  and  N_10
REMARK    5  A    between atoms: C_11  and  C_13
REMARK    6  A    between atoms: C_17  and  N_18
REMARK    7  A    between atoms: N_18  and  C_19
REMARK    8  A    between atoms: C_20  and  C_22
REMARK    9  A    between atoms: C_26  and  C_27
REMARK                            x       y       z     vdW  Elec       q    Type
REMARK                         _______ _______ _______ _____ _____    ______ ____
ROOT
ATOM      1  C   UNL     1      -0.371  11.110  19.774  0.00  0.00    +0.000 C 
ATOM      2  C   UNL     1      -0.870  11.118  21.225  0.00  0.00    +0.000 C 
ATOM      3  C   UNL     1       0.302  10.774  22.156  0.00  0.00    +0.000 C 
ATOM      4  C   UNL     1       0.993   9.454  21.787  0.00  0.00    +0.000 C 
ATOM      5  C   UNL     1       1.280   9.321  20.278  0.00  0.00    +0.000 C 
ATOM      6  C   UNL     1       0.053   9.676  19.438  0.00  0.00    +0.000 C 
ENDROOT
BRANCH   1   8
ATOM      7  N   UNL     1      -2.509  10.956  18.694  0.00  0.00    +0.000 N 
ATOM      8  C   UNL     1      -1.321  11.690  18.726  0.00  0.00    +0.000 C 
ATOM      9  O   UNL     1      -1.041  12.636  18.006  0.00  0.00    +0.000 OA
ATOM     10  H   UNL     1      -2.711  10.364  19.487  0.00  0.00    +0.000 HD
BRANCH   7  16
ATOM     11  C   UNL     1      -2.901  10.627  15.560  0.00  0.00    +0.000 C 
ATOM     12  C   UNL     1      -3.779  11.246  16.581  0.00  0.00    +0.000 A 
ATOM     13  N   UNL     1      -4.987  11.790  16.220  0.00  0.00    +0.000 NA
ATOM     14  C   UNL     1      -5.516  12.233  17.336  0.00  0.00    +0.000 A 
ATOM     15  N   UNL     1      -4.704  11.994  18.413  0.00  0.00    +0.000 N 
ATOM     16  C   UNL     1      -3.604  11.324  17.951  0.00  0.00    +0.000 A 
BRANCH  15  17
ATOM     17  C   UNL     1      -4.937  12.523  19.736  0.00  0.00    +0.000 C 
BRANCH  17  18
ATOM     18  C   UNL     1      -6.066  11.845  20.495  0.00  0.00    +0.000 C 
ATOM     19  N   UNL     1      -7.003  11.281  21.123  0.00  0.00    +0.000 NA
ENDBRANCH  17  18
ENDBRANCH  15  17
ENDBRANCH   7  16
ENDBRANCH   1   8
BRANCH   5  20
ATOM     20  N   UNL     1       1.818   8.006  19.884  0.00  0.00    +0.000 N 
ATOM     21  C   UNL     1       1.543   6.876  20.767  0.00  0.00    +0.000 C 
ATOM     22  C   UNL     1       2.361   7.889  18.587  0.00  0.00    +0.000 C 
ATOM     23  O   UNL     1       2.456   8.858  17.827  0.00  0.00    +0.000 OA
BRANCH  22  24
ATOM     24  C   UNL     1       2.901   6.595  18.076  0.00  0.00    +0.000 A 
ATOM     25  C   UNL     1       4.121   6.616  17.383  0.00  0.00    +0.000 A 
ATOM     26  C   UNL     1       4.690   5.433  16.902  0.00  0.00    +0.000 A 
ATOM     27  C   UNL     1       4.057   4.211  17.133  0.00  0.00    +0.000 A 
ATOM     28  C   UNL     1       2.823   4.171  17.795  0.00  0.00    +0.000 A 
ATOM     29  C   UNL     1       2.231   5.377  18.206  0.00  0.00    +0.000 A 
BRANCH  28  30
ATOM     30  C   UNL     1       2.132   2.871  18.123  0.00  0.00    +0.000 C 
ATOM     31  F   UNL     1       2.496   2.336  19.318  0.00  0.00    +0.000 F 
ATOM     32  F   UNL     1       0.778   3.021  18.175  0.00  0.00    +0.000 F 
ATOM     33  F   UNL     1       2.361   1.909  17.188  0.00  0.00    +0.000 F 
ENDBRANCH  28  30
ENDBRANCH  22  24
ENDBRANCH   5  20
TORSDOF 7
ENDMDL
MODEL 2
REMARK VINA RESULT:      -8.2      1.855      2.302
REMARK  Name = 
REMARK  9 active torsions:
REMARK  status: ('A' for Active; 'I' for Inactive)
REMARK    1  A    between atoms: C_1  and  C_2
REMARK    2  A    between atoms: N_5  and  C_6
REMARK    3  A    between atoms: C_6  and  C_7
REMARK    4  A    between atoms: C_9  and  N_10
REMARK    5  A    between atoms: C_11  and  C_13
REMARK    6  A    between atoms: C_17  and  N_18
REMARK    7  A    between atoms: N_18  and  C_19
REMARK    8  A    between atoms: C_20  and  C_22
REMARK    9  A    between atoms: C_26  and  C_27
REMARK                            x       y       z     vdW  Elec       q    Type
REMARK                         _______ _______ _______ _____ _____    ______ ____
ROOT
ATOM      1  C   UNL     1      -0.123  10.696  19.918  0.00  0.00    +0.000 C 
ATOM      2  C   UNL     1      -0.642  10.663  21.361  0.00  0.00    +0.000 C 
ATOM      3  C   UNL     1       0.508  10.249  22.293  0.00  0.00    +0.000 C 
ATOM      4  C   UNL     1       1.165   8.924  21.881  0.00  0.00    +0.000 C 
ATOM      5  C   UNL     1       1.468   8.841  20.372  0.00  0.00    +0.000 C 
ATOM      6  C   UNL     1       0.264   9.265  19.532  0.00  0.00    +0.000 C 
ENDROOT
BRANCH   1   8
ATOM      7  N   UNL     1      -2.190  10.569  18.703  0.00  0.00    +0.000 N 
ATOM      8  C   UNL     1      -1.042  11.344  18.881  0.00  0.00    +0.000 C 
ATOM      9  O   UNL     1      -0.769  12.372  18.281  0.00  0.00    +0.000 OA
ATOM     10  H   UNL     1      -2.405   9.888  19.418  0.00  0.00    +0.000 HD
BRANCH   7  16
ATOM     11  C   UNL     1      -2.632  10.051  15.602  0.00  0.00    +0.000 C 
ATOM     12  C   UNL     1      -3.451  10.807  16.578  0.00  0.00    +0.000 A 
ATOM     13  N   UNL     1      -4.616  11.416  16.184  0.00  0.00    +0.000 NA
ATOM     14  C   UNL     1      -5.100  11.976  17.267  0.00  0.00    +0.000 A 
ATOM     15  N   UNL     1      -4.300  11.751  18.355  0.00  0.00    +0.000 N 
ATOM     16  C   UNL     1      -3.259  10.968  17.939  0.00  0.00    +0.000 A 
BRANCH  15  17
ATOM     17  C   UNL     1      -4.480  12.390  19.638  0.00  0.00    +0.000 C 
BRANCH  17  18
ATOM     18  C   UNL     1      -5.691  13.305  19.720  0.00  0.00    +0.000 C 
ATOM     19  N   UNL     1      -6.695  14.065  19.787  0.00  0.00    +0.000 NA
ENDBRANCH  17  18
ENDBRANCH  15  17
ENDBRANCH   7  16
ENDBRANCH   1   8
BRANCH   5  20
ATOM     20  N   UNL     1       1.974   7.527  19.934  0.00  0.00    +0.000 N 
ATOM     21  C   UNL     1       1.630   6.369  20.753  0.00  0.00    +0.000 C 
ATOM     22  C   UNL     1       2.556   7.452  18.651  0.00  0.00    +0.000 C 
ATOM     23  O   UNL     1       2.710   8.450  17.941  0.00  0.00    +0.000 OA
BRANCH  22  24
ATOM     24  C   UNL     1       3.068   6.164  18.096  0.00  0.00    +0.000 A 
ATOM     25  C   UNL     1       2.154   5.116  17.906  0.00  0.00    +0.000 A 
ATOM     26  C   UNL     1       2.571   3.895  17.368  0.00  0.00    +0.000 A 
ATOM     27  C   UNL     1       3.902   3.717  16.987  0.00  0.00    +0.000 A 
ATOM     28  C   UNL     1       4.835   4.739  17.197  0.00  0.00    +0.000 A 
ATOM     29  C   UNL     1       4.415   5.933  17.808  0.00  0.00    +0.000 A 
BRANCH  28  30
ATOM     30  C   UNL     1       6.270   4.618  16.746  0.00  0.00    +0.000 C 
ATOM     31  F   UNL     1       6.463   3.708  15.754  0.00  0.00    +0.000 F 
ATOM     32  F   UNL     1       6.748   5.802  16.268  0.00  0.00    +0.000 F 
ATOM     33  F   UNL     1       7.106   4.263  17.758  0.00  0.00    +0.000 F 
ENDBRANCH  28  30
ENDBRANCH  22  24
ENDBRANCH   5  20
TORSDOF 7
ENDMDL
MODEL 3
REMARK VINA RESULT:      -7.9      2.217      3.449
REMARK  Name = 
REMARK  9 active torsions:
REMARK  status: ('A' for Active; 'I' for Inactive)
REMARK    1  A    between atoms: C_1  and  C_2
REMARK    2  A    between atoms: N_5  and  C_6
REMARK    3  A    between atoms: C_6  and  C_7
REMARK    4  A    between atoms: C_9  and  N_10
REMARK    5  A    between atoms: C_11  and  C_13
REMARK    6  A    between atoms: C_17  and  N_18
REMARK    7  A    between atoms: N_18  and  C_19
REMARK    8  A    between atoms: C_20  and  C_22
REMARK    9  A    between atoms: C_26  and  C_27
REMARK                            x       y       z     vdW  Elec       q    Type
REMARK                         _______ _______ _______ _____ _____    ______ ____
ROOT
ATOM      1  C   UNL     1      -0.162  10.591  20.095  0.00  0.00    +0.000 C 
ATOM      2  C   UNL     1      -0.631   9.938  21.401  0.00  0.00    +0.000 C 
ATOM      3  C   UNL     1       0.582   9.314  22.108  0.00  0.00    +0.000 C 
ATOM      4  C   UNL     1       1.357   8.334  21.215  0.00  0.00    +0.000 C 
ATOM      5  C   UNL     1       1.621   8.884  19.800  0.00  0.00    +0.000 C 
ATOM      6  C   UNL     1       0.356   9.476  19.180  0.00  0.00    +0.000 C 
ENDROOT
BRANCH   1   8
ATOM      7  N   UNL     1      -2.092  10.724  18.674  0.00  0.00    +0.000 N 
ATOM      8  C   UNL     1      -1.171  11.495  19.386  0.00  0.00    +0.000 C 
ATOM      9  O   UNL     1      -1.132  12.715  19.424  0.00  0.00    +0.000 OA
ATOM     10  H   UNL     1      -2.163   9.745  18.916  0.00  0.00    +0.000 HD
BRANCH   7  16
ATOM     11  C   UNL     1      -4.583  12.127  20.055  0.00  0.00    +0.000 C 
ATOM     12  C   UNL     1      -4.322  11.814  18.630  0.00  0.00    +0.000 A 
ATOM     13  N   UNL     1      -5.239  12.150  17.666  0.00  0.00    +0.000 NA
ATOM     14  C   UNL     1      -4.710  11.757  16.531  0.00  0.00    +0.000 A 
ATOM     15  N   UNL     1      -3.480  11.184  16.716  0.00  0.00    +0.000 N 
ATOM     16  C   UNL     1      -3.198  11.250  18.053  0.00  0.00    +0.000 A 
BRANCH  15  17
ATOM     17  C   UNL     1      -2.741  10.500  15.680  0.00  0.00    +0.000 C 
BRANCH  17  18
ATOM     18  C   UNL     1      -3.552  10.187  14.433  0.00  0.00    +0.000 C 
ATOM     19  N   UNL     1      -4.226   9.925  13.400  0.00  0.00    +0.000 NA
ENDBRANCH  17  18
ENDBRANCH  15  17
ENDBRANCH   7  16
ENDBRANCH   1   8
BRANCH   5  20
ATOM     20  N   UNL     1       2.244   7.910  18.885  0.00  0.00    +0.000 N 
ATOM     21  C   UNL     1       2.770   8.416  17.622  0.00  0.00    +0.000 C 
ATOM     22  C   UNL     1       2.487   6.613  19.388  0.00  0.00    +0.000 C 
ATOM     23  O   UNL     1       2.131   6.271  20.519  0.00  0.00    +0.000 OA
BRANCH  22  24
ATOM     24  C   UNL     1       3.143   5.561  18.557  0.00  0.00    +0.000 A 
ATOM     25  C   UNL     1       2.347   4.517  18.063  0.00  0.00    +0.000 A 
ATOM     26  C   UNL     1       2.900   3.515  17.260  0.00  0.00    +0.000 A 
ATOM     27  C   UNL     1       4.253   3.563  16.918  0.00  0.00    +0.000 A 
ATOM     28  C   UNL     1       5.071   4.579  17.425  0.00  0.00    +0.000 A 
ATOM     29  C   UNL     1       4.514   5.535  18.291  0.00  0.00    +0.000 A 
BRANCH  28  30
ATOM     30  C   UNL     1       6.523   4.708  17.034  0.00  0.00    +0.000 C 
ATOM     31  F   UNL     1       7.392   4.262  17.979  0.00  0.00    +0.000 F 
ATOM     32  F   UNL     1       6.803   4.002  15.902  0.00  0.00    +0.000 F 
ATOM     33  F   UNL     1       6.877   5.993  16.765  0.00  0.00    +0.000 F 
ENDBRANCH  28  30
ENDBRANCH  22  24
ENDBRANCH   5  20
TORSDOF 7
ENDMDL
MODEL 4
REMARK VINA RESULT:      -7.7      1.972      2.466
REMARK  Name = 
REMARK  9 active torsions:
REMARK  status: ('A' for Active; 'I' for Inactive)
REMARK    1  A    between atoms: C_1  and  C_2
REMARK    2  A    between atoms: N_5  and  C_6
REMARK    3  A    between atoms: C_6  and  C_7
REMARK    4  A    between atoms: C_9  and  N_10
REMARK    5  A    between atoms: C_11  and  C_13
REMARK    6  A    between atoms: C_17  and  N_18
REMARK    7  A    between atoms: N_18  and  C_19
REMARK    8  A    between atoms: C_20  and  C_22
REMARK    9  A    between atoms: C_26  and  C_27
REMARK                            x       y       z     vdW  Elec       q    Type
REMARK                         _______ _______ _______ _____ _____    ______ ____
ROOT
ATOM      1  C   UNL     1      -0.341  10.836  19.630  0.00  0.00    +0.000 C 
ATOM      2  C   UNL     1      -0.781  10.311  21.003  0.00  0.00    +0.000 C 
ATOM      3  C   UNL     1       0.455   9.795  21.756  0.00  0.00    +0.000 C 
ATOM      4  C   UNL     1       1.248   8.749  20.961  0.00  0.00    +0.000 C 
ATOM      5  C   UNL     1       1.485   9.155  19.493  0.00  0.00    +0.000 C 
ATOM      6  C   UNL     1       0.198   9.646  18.830  0.00  0.00    +0.000 C 
ENDROOT
BRANCH   1   8
ATOM      7  N   UNL     1      -2.575  10.915  18.756  0.00  0.00    +0.000 N 
ATOM      8  C   UNL     1      -1.382  11.635  18.844  0.00  0.00    +0.000 C 
ATOM      9  O   UNL     1      -1.162  12.726  18.343  0.00  0.00    +0.000 OA
ATOM     10  H   UNL     1      -2.706  10.151  19.404  0.00  0.00    +0.000 HD
BRANCH   7  16
ATOM     11  C   UNL     1      -3.526  10.804  15.728  0.00  0.00    +0.000 C 
ATOM     12  C   UNL     1      -4.145  11.451  16.909  0.00  0.00    +0.000 A 
ATOM     13  N   UNL     1      -5.328  12.135  16.785  0.00  0.00    +0.000 NA
ATOM     14  C   UNL     1      -5.609  12.567  17.992  0.00  0.00    +0.000 A 
ATOM     15  N   UNL     1      -4.658  12.186  18.901  0.00  0.00    +0.000 N 
ATOM     16  C   UNL     1      -3.733  11.434  18.229  0.00  0.00    +0.000 A 
BRANCH  15  17
ATOM     17  C   UNL     1      -4.603  12.662  20.263  0.00  0.00    +0.000 C 
BRANCH  17  18
ATOM     18  C   UNL     1      -5.799  12.266  21.115  0.00  0.00    +0.000 C 
ATOM     19  N   UNL     1      -6.790  11.937  21.821  0.00  0.00    +0.000 NA
ENDBRANCH  17  18
ENDBRANCH  15  17
ENDBRANCH   7  16
ENDBRANCH   1   8
BRANCH   5  20
ATOM     20  N   UNL     1       2.125   8.107  18.677  0.00  0.00    +0.000 N 
ATOM     21  C   UNL     1       2.748   8.519  17.423  0.00  0.00    +0.000 C 
ATOM     22  C   UNL     1       2.287   6.835  19.266  0.00  0.00    +0.000 C 
ATOM     23  O   UNL     1       1.848   6.573  20.390  0.00  0.00    +0.000 OA
BRANCH  22  24
ATOM     24  C   UNL     1       2.953   5.713  18.541  0.00  0.00    +0.000 A 
ATOM     25  C   UNL     1       2.159   4.635  18.120  0.00  0.00    +0.000 A 
ATOM     26  C   UNL     1       2.722   3.567  17.415  0.00  0.00    +0.000 A 
ATOM     27  C   UNL     1       4.081   3.579  17.098  0.00  0.00    +0.000 A 
ATOM     28  C   UNL     1       4.896   4.630  17.536  0.00  0.00    +0.000 A 
ATOM     29  C   UNL     1       4.328   5.658  18.307  0.00  0.00    +0.000 A 
BRANCH  28  30
ATOM     30  C   UNL     1       6.357   4.718  17.166  0.00  0.00    +0.000 C 
ATOM     31  F   UNL     1       6.704   3.953  16.097  0.00  0.00    +0.000 F 
ATOM     32  F   UNL     1       6.717   5.994  16.848  0.00  0.00    +0.000 F 
ATOM     33  F   UNL     1       7.176   4.346  18.185  0.00  0.00    +0.000 F 
ENDBRANCH  28  30
ENDBRANCH  22  24
ENDBRANCH   5  20
TORSDOF 7
ENDMDL
MODEL 5
REMARK VINA RESULT:      -7.6      4.314      6.082
REMARK  Name = 
REMARK  9 active torsions:
REMARK  status: ('A' for Active; 'I' for Inactive)
REMARK    1  A    between atoms: C_1  and  C_2
REMARK    2  A    between atoms: N_5  and  C_6
REMARK    3  A    between atoms: C_6  and  C_7
REMARK    4  A    between atoms: C_9  and  N_10
REMARK    5  A    between atoms: C_11  and  C_13
REMARK    6  A    between atoms: C_17  and  N_18
REMARK    7  A    between atoms: N_18  and  C_19
REMARK    8  A    between atoms: C_20  and  C_22
REMARK    9  A    between atoms: C_26  and  C_27
REMARK                            x       y       z     vdW  Elec       q    Type
REMARK                         _______ _______ _______ _____ _____    ______ ____
ROOT
ATOM      1  C   UNL     1       1.224  12.270  20.583  0.00  0.00    +0.000 C 
ATOM      2  C   UNL     1      -0.262  12.555  20.333  0.00  0.00    +0.000 C 
ATOM      3  C   UNL     1      -1.067  11.276  20.612  0.00  0.00    +0.000 C 
ATOM      4  C   UNL     1      -0.565  10.066  19.813  0.00  0.00    +0.000 C 
ATOM      5  C   UNL     1       0.968   9.909  19.850  0.00  0.00    +0.000 C 
ATOM      6  C   UNL     1       1.677  11.230  19.552  0.00  0.00    +0.000 C 
ENDROOT
BRANCH   1   8
ATOM      7  N   UNL     1       2.176  14.111  19.371  0.00  0.00    +0.000 N 
ATOM      8  C   UNL     1       2.151  13.486  20.620  0.00  0.00    +0.000 C 
ATOM      9  O   UNL     1       2.796  13.817  21.602  0.00  0.00    +0.000 OA
ATOM     10  H   UNL     1       1.430  13.890  18.727  0.00  0.00    +0.000 HD
BRANCH   7  16
ATOM     11  C   UNL     1       1.048  17.024  19.938  0.00  0.00    +0.000 C 
ATOM     12  C   UNL     1       2.323  16.588  19.321  0.00  0.00    +0.000 A 
ATOM     13  N   UNL     1       3.241  17.515  18.895  0.00  0.00    +0.000 NA
ATOM     14  C   UNL     1       4.246  16.818  18.420  0.00  0.00    +0.000 A 
ATOM     15  N   UNL     1       4.022  15.471  18.524  0.00  0.00    +0.000 N 
ATOM     16  C   UNL     1       2.810  15.307  19.138  0.00  0.00    +0.000 A 
BRANCH  15  17
ATOM     17  C   UNL     1       4.864  14.461  17.926  0.00  0.00    +0.000 C 
BRANCH  17  18
ATOM     18  C   UNL     1       6.331  14.847  17.824  0.00  0.00    +0.000 C 
ATOM     19  N   UNL     1       7.548  15.166  17.740  0.00  0.00    +0.000 NA
ENDBRANCH  17  18
ENDBRANCH  15  17
ENDBRANCH   7  16
ENDBRANCH   1   8
BRANCH   5  20
ATOM     20  N   UNL     1       1.481   8.835  18.980  0.00  0.00    +0.000 N 
ATOM     21  C   UNL     1       1.708   9.160  17.575  0.00  0.00    +0.000 C 
ATOM     22  C   UNL     1       1.925   7.650  19.605  0.00  0.00    +0.000 C 
ATOM     23  O   UNL     1       1.824   7.475  20.823  0.00  0.00    +0.000 OA
BRANCH  22  24
ATOM     24  C   UNL     1       2.493   6.514  18.821  0.00  0.00    +0.000 A 
ATOM     25  C   UNL     1       3.607   6.767  18.006  0.00  0.00    +0.000 A 
ATOM     26  C   UNL     1       4.199   5.738  17.267  0.00  0.00    +0.000 A 
ATOM     27  C   UNL     1       3.699   4.438  17.357  0.00  0.00    +0.000 A 
ATOM     28  C   UNL     1       2.570   4.171  18.140  0.00  0.00    +0.000 A 
ATOM     29  C   UNL     1       1.944   5.230  18.817  0.00  0.00    +0.000 A 
BRANCH  28  30
ATOM     30  C   UNL     1       2.031   2.772  18.318  0.00  0.00    +0.000 C 
ATOM     31  F   UNL     1       0.674   2.698  18.317  0.00  0.00    +0.000 F 
ATOM     32  F   UNL     1       2.454   1.941  17.324  0.00  0.00    +0.000 F 
ATOM     33  F   UNL     1       2.445   2.199  19.480  0.00  0.00    +0.000 F 
ENDBRANCH  28  30
ENDBRANCH  22  24
ENDBRANCH   5  20
TORSDOF 7
ENDMDL
MODEL 6
REMARK VINA RESULT:      -7.6      4.320      5.981
REMARK  Name = 
REMARK  9 active torsions:
REMARK  status: ('A' for Active; 'I' for Inactive)
REMARK    1  A    between atoms: C_1  and  C_2
REMARK    2  A    between atoms: N_5  and  C_6
REMARK    3  A    between atoms: C_6  and  C_7
REMARK    4  A    between atoms: C_9  and  N_10
REMARK    5  A    between atoms: C_11  and  C_13
REMARK    6  A    between atoms: C_17  and  N_18
REMARK    7  A    between atoms: N_18  and  C_19
REMARK    8  A    between atoms: C_20  and  C_22
REMARK    9  A    between atoms: C_26  and  C_27
REMARK                            x       y       z     vdW  Elec       q    Type
REMARK                         _______ _______ _______ _____ _____    ______ ____
ROOT
ATOM      1  C   UNL     1       0.978  12.583  19.319  0.00  0.00    +0.000 C 
ATOM      2  C   UNL     1      -0.487  12.671  18.873  0.00  0.00    +0.000 C 
ATOM      3  C   UNL     1      -1.279  11.536  19.542  0.00  0.00    +0.000 C 
ATOM      4  C   UNL     1      -0.674  10.149  19.281  0.00  0.00    +0.000 C 
ATOM      5  C   UNL     1       0.854  10.106  19.486  0.00  0.00    +0.000 C 
ATOM      6  C   UNL     1       1.550  11.268  18.778  0.00  0.00    +0.000 C 
ENDROOT
BRANCH   1   8
ATOM      7  N   UNL     1       1.849  14.707  20.022  0.00  0.00    +0.000 N 
ATOM      8  C   UNL     1       1.865  13.781  18.977  0.00  0.00    +0.000 C 
ATOM      9  O   UNL     1       2.459  13.904  17.917  0.00  0.00    +0.000 OA
ATOM     10  H   UNL     1       1.523  14.384  20.923  0.00  0.00    +0.000 HD
BRANCH   7  16
ATOM     11  C   UNL     1       1.203  17.594  18.871  0.00  0.00    +0.000 C 
ATOM     12  C   UNL     1       2.427  17.067  19.518  0.00  0.00    +0.000 A 
ATOM     13  N   UNL     1       3.517  17.880  19.707  0.00  0.00    +0.000 NA
ATOM     14  C   UNL     1       4.411  17.130  20.308  0.00  0.00    +0.000 A 
ATOM     15  N   UNL     1       3.944  15.861  20.525  0.00  0.00    +0.000 N 
ATOM     16  C   UNL     1       2.658  15.816  20.061  0.00  0.00    +0.000 A 
BRANCH  15  17
ATOM     17  C   UNL     1       4.760  14.768  21.000  0.00  0.00    +0.000 C 
BRANCH  17  18
ATOM     18  C   UNL     1       4.739  14.579  22.509  0.00  0.00    +0.000 C 
ATOM     19  N   UNL     1       4.721  14.423  23.760  0.00  0.00    +0.000 NA
ENDBRANCH  17  18
ENDBRANCH  15  17
ENDBRANCH   7  16
ENDBRANCH   1   8
BRANCH   5  20
ATOM     20  N   UNL     1       1.472   8.821  19.110  0.00  0.00    +0.000 N 
ATOM     21  C   UNL     1       2.042   8.717  17.770  0.00  0.00    +0.000 C 
ATOM     22  C   UNL     1       1.669   7.872  20.136  0.00  0.00    +0.000 C 
ATOM     23  O   UNL     1       1.276   8.064  21.290  0.00  0.00    +0.000 OA
BRANCH  22  24
ATOM     24  C   UNL     1       2.317   6.554  19.871  0.00  0.00    +0.000 A 
ATOM     25  C   UNL     1       3.440   6.527  19.031  0.00  0.00    +0.000 A 
ATOM     26  C   UNL     1       4.104   5.326  18.765  0.00  0.00    +0.000 A 
ATOM     27  C   UNL     1       3.668   4.141  19.361  0.00  0.00    +0.000 A 
ATOM     28  C   UNL     1       2.531   4.141  20.177  0.00  0.00    +0.000 A 
ATOM     29  C   UNL     1       1.833   5.344  20.374  0.00  0.00    +0.000 A 
BRANCH  28  30
ATOM     30  C   UNL     1       2.059   2.899  20.893  0.00  0.00    +0.000 C 
ATOM     31  F   UNL     1       2.974   2.370  21.747  0.00  0.00    +0.000 F 
ATOM     32  F   UNL     1       0.945   3.143  21.639  0.00  0.00    +0.000 F 
ATOM     33  F   UNL     1       1.717   1.902  20.033  0.00  0.00    +0.000 F 
ENDBRANCH  28  30
ENDBRANCH  22  24
ENDBRANCH   5  20
TORSDOF 7
ENDMDL
MODEL 7
REMARK VINA RESULT:      -7.6      3.776      4.805
REMARK  Name = 
REMARK  9 active torsions:
REMARK  status: ('A' for Active; 'I' for Inactive)
REMARK    1  A    between atoms: C_1  and  C_2
REMARK    2  A    between atoms: N_5  and  C_6
REMARK    3  A    between atoms: C_6  and  C_7
REMARK    4  A    between atoms: C_9  and  N_10
REMARK    5  A    between atoms: C_11  and  C_13
REMARK    6  A    between atoms: C_17  and  N_18
REMARK    7  A    between atoms: N_18  and  C_19
REMARK    8  A    between atoms: C_20  and  C_22
REMARK    9  A    between atoms: C_26  and  C_27
REMARK                            x       y       z     vdW  Elec       q    Type
REMARK                         _______ _______ _______ _____ _____    ______ ____
ROOT
ATOM      1  C   UNL     1       1.068  12.205  20.745  0.00  0.00    +0.000 C 
ATOM      2  C   UNL     1      -0.463  12.249  20.826  0.00  0.00    +0.000 C 
ATOM      3  C   UNL     1      -0.974  10.883  21.311  0.00  0.00    +0.000 C 
ATOM      4  C   UNL     1      -0.470   9.715  20.453  0.00  0.00    +0.000 C 
ATOM      5  C   UNL     1       1.039   9.792  20.150  0.00  0.00    +0.000 C 
ATOM      6  C   UNL     1       1.447  11.184  19.668  0.00  0.00    +0.000 C 
ENDROOT
BRANCH   1   8
ATOM      7  N   UNL     1       1.465  14.069  19.285  0.00  0.00    +0.000 N 
ATOM      8  C   UNL     1       1.775  13.546  20.543  0.00  0.00    +0.000 C 
ATOM      9  O   UNL     1       2.528  14.046  21.363  0.00  0.00    +0.000 OA
ATOM     10  H   UNL     1       0.658  13.689  18.811  0.00  0.00    +0.000 HD
BRANCH   7  16
ATOM     11  C   UNL     1       4.245  14.919  18.007  0.00  0.00    +0.000 C 
ATOM     12  C   UNL     1       3.063  15.735  18.371  0.00  0.00    +0.000 A 
ATOM     13  N   UNL     1       3.061  17.090  18.154  0.00  0.00    +0.000 NA
ATOM     14  C   UNL     1       1.885  17.506  18.562  0.00  0.00    +0.000 A 
ATOM     15  N   UNL     1       1.116  16.474  19.030  0.00  0.00    +0.000 N 
ATOM     16  C   UNL     1       1.842  15.325  18.876  0.00  0.00    +0.000 A 
BRANCH  15  17
ATOM     17  C   UNL     1      -0.148  16.649  19.706  0.00  0.00    +0.000 C 
BRANCH  17  18
ATOM     18  C   UNL     1      -1.148  17.512  18.955  0.00  0.00    +0.000 C 
ATOM     19  N   UNL     1      -1.978  18.229  18.332  0.00  0.00    +0.000 NA
ENDBRANCH  17  18
ENDBRANCH  15  17
ENDBRANCH   7  16
ENDBRANCH   1   8
BRANCH   5  20
ATOM     20  N   UNL     1       1.517   8.756  19.216  0.00  0.00    +0.000 N 
ATOM     21  C   UNL     1       1.703   9.144  17.821  0.00  0.00    +0.000 C 
ATOM     22  C   UNL     1       1.970   7.541  19.772  0.00  0.00    +0.000 C 
ATOM     23  O   UNL     1       1.906   7.311  20.984  0.00  0.00    +0.000 OA
BRANCH  22  24
ATOM     24  C   UNL     1       2.506   6.439  18.919  0.00  0.00    +0.000 A 
ATOM     25  C   UNL     1       3.584   6.727  18.069  0.00  0.00    +0.000 A 
ATOM     26  C   UNL     1       4.144   5.730  17.264  0.00  0.00    +0.000 A 
ATOM     27  C   UNL     1       3.649   4.426  17.323  0.00  0.00    +0.000 A 
ATOM     28  C   UNL     1       2.554   4.125  18.142  0.00  0.00    +0.000 A 
ATOM     29  C   UNL     1       1.957   5.155  18.887  0.00  0.00    +0.000 A 
BRANCH  28  30
ATOM     30  C   UNL     1       2.024   2.720  18.286  0.00  0.00    +0.000 C 
ATOM     31  F   UNL     1       2.391   1.884  17.279  0.00  0.00    +0.000 F 
ATOM     32  F   UNL     1       2.460   2.135  19.438  0.00  0.00    +0.000 F 
ATOM     33  F   UNL     1       0.666   2.679  18.341  0.00  0.00    +0.000 F 
ENDBRANCH  28  30
ENDBRANCH  22  24
ENDBRANCH   5  20
TORSDOF 7
ENDMDL
MODEL 8
REMARK VINA RESULT:      -7.5      4.657      6.579
REMARK  Name = 
REMARK  9 active torsions:
REMARK  status: ('A' for Active; 'I' for Inactive)
REMARK    1  A    between atoms: C_1  and  C_2
REMARK    2  A    between atoms: N_5  and  C_6
REMARK    3  A    between atoms: C_6  and  C_7
REMARK    4  A    between atoms: C_9  and  N_10
REMARK    5  A    between atoms: C_11  and  C_13
REMARK    6  A    between atoms: C_17  and  N_18
REMARK    7  A    between atoms: N_18  and  C_19
REMARK    8  A    between atoms: C_20  and  C_22
REMARK    9  A    between atoms: C_26  and  C_27
REMARK                            x       y       z     vdW  Elec       q    Type
REMARK                         _______ _______ _______ _____ _____    ______ ____
ROOT
ATOM      1  C   UNL     1       1.176  12.551  19.945  0.00  0.00    +0.000 C 
ATOM      2  C   UNL     1       0.107  12.996  18.938  0.00  0.00    +0.000 C 
ATOM      3  C   UNL     1      -1.022  11.954  18.919  0.00  0.00    +0.000 C 
ATOM      4  C   UNL     1      -0.519  10.530  18.641  0.00  0.00    +0.000 C 
ATOM      5  C   UNL     1       0.722  10.153  19.474  0.00  0.00    +0.000 C 
ATOM      6  C   UNL     1       1.788  11.246  19.425  0.00  0.00    +0.000 C 
ENDROOT
BRANCH   1   8
ATOM      7  N   UNL     1       2.523  14.392  19.200  0.00  0.00    +0.000 N 
ATOM      8  C   UNL     1       2.243  13.585  20.304  0.00  0.00    +0.000 C 
ATOM      9  O   UNL     1       2.784  13.650  21.397  0.00  0.00    +0.000 OA
ATOM     10  H   UNL     1       1.850  14.397  18.446  0.00  0.00    +0.000 HD
BRANCH   7  16
ATOM     11  C   UNL     1       1.798  17.251  20.375  0.00  0.00    +0.000 C 
ATOM     12  C   UNL     1       3.031  16.767  19.710  0.00  0.00    +0.000 A 
ATOM     13  N   UNL     1       4.099  17.611  19.529  0.00  0.00    +0.000 NA
ATOM     14  C   UNL     1       5.018  16.886  18.937  0.00  0.00    +0.000 A 
ATOM     15  N   UNL     1       4.595  15.600  18.730  0.00  0.00    +0.000 N 
ATOM     16  C   UNL     1       3.338  15.497  19.258  0.00  0.00    +0.000 A 
BRANCH  15  17
ATOM     17  C   UNL     1       5.316  14.627  17.943  0.00  0.00    +0.000 C 
BRANCH  17  18
ATOM     18  C   UNL     1       6.814  14.871  17.861  0.00  0.00    +0.000 C 
ATOM     19  N   UNL     1       8.057  15.073  17.794  0.00  0.00    +0.000 NA
ENDBRANCH  17  18
ENDBRANCH  15  17
ENDBRANCH   7  16
ENDBRANCH   1   8
BRANCH   5  20
ATOM     20  N   UNL     1       1.301   8.842  19.125  0.00  0.00    +0.000 N 
ATOM     21  C   UNL     1       1.778   8.662  17.758  0.00  0.00    +0.000 C 
ATOM     22  C   UNL     1       1.558   7.944  20.183  0.00  0.00    +0.000 C 
ATOM     23  O   UNL     1       1.246   8.201  21.350  0.00  0.00    +0.000 OA
BRANCH  22  24
ATOM     24  C   UNL     1       2.174   6.606  19.944  0.00  0.00    +0.000 A 
ATOM     25  C   UNL     1       3.503   6.562  19.497  0.00  0.00    +0.000 A 
ATOM     26  C   UNL     1       4.142   5.337  19.279  0.00  0.00    +0.000 A 
ATOM     27  C   UNL     1       3.467   4.142  19.534  0.00  0.00    +0.000 A 
ATOM     28  C   UNL     1       2.131   4.165  19.951  0.00  0.00    +0.000 A 
ATOM     29  C   UNL     1       1.482   5.403  20.093  0.00  0.00    +0.000 A 
BRANCH  28  30
ATOM     30  C   UNL     1       1.379   2.903  20.298  0.00  0.00    +0.000 C 
ATOM     31  F   UNL     1       0.228   2.733  19.595  0.00  0.00    +0.000 F 
ATOM     32  F   UNL     1       2.131   1.790  20.064  0.00  0.00    +0.000 F 
ATOM     33  F   UNL     1       1.036   2.848  21.613  0.00  0.00    +0.000 F 
ENDBRANCH  28  30
ENDBRANCH  22  24
ENDBRANCH   5  20
TORSDOF 7
ENDMDL
MODEL 9
REMARK VINA RESULT:      -7.5      2.190      3.104
REMARK  Name = 
REMARK  9 active torsions:
REMARK  status: ('A' for Active; 'I' for Inactive)
REMARK    1  A    between atoms: C_1  and  C_2
REMARK    2  A    between atoms: N_5  and  C_6
REMARK    3  A    between atoms: C_6  and  C_7
REMARK    4  A    between atoms: C_9  and  N_10
REMARK    5  A    between atoms: C_11  and  C_13
REMARK    6  A    between atoms: C_17  and  N_18
REMARK    7  A    between atoms: N_18  and  C_19
REMARK    8  A    between atoms: C_20  and  C_22
REMARK    9  A    between atoms: C_26  and  C_27
REMARK                            x       y       z     vdW  Elec       q    Type
REMARK                         _______ _______ _______ _____ _____    ______ ____
ROOT
ATOM      1  C   UNL     1      -1.874  11.774  18.752  0.00  0.00    +0.000 C 
ATOM      2  C   UNL     1      -1.420  13.009  19.541  0.00  0.00    +0.000 C 
ATOM      3  C   UNL     1       0.067  13.264  19.251  0.00  0.00    +0.000 C 
ATOM      4  C   UNL     1       0.951  12.040  19.530  0.00  0.00    +0.000 C 
ATOM      5  C   UNL     1       0.375  10.733  18.951  0.00  0.00    +0.000 C 
ATOM      6  C   UNL     1      -1.104  10.567  19.298  0.00  0.00    +0.000 C 
ENDROOT
BRANCH   1   8
ATOM      7  N   UNL     1      -4.063  12.509  19.409  0.00  0.00    +0.000 N 
ATOM      8  C   UNL     1      -3.381  11.520  18.697  0.00  0.00    +0.000 C 
ATOM      9  O   UNL     1      -3.886  10.560  18.137  0.00  0.00    +0.000 OA
ATOM     10  H   UNL     1      -3.561  13.362  19.615  0.00  0.00    +0.000 HD
BRANCH   7  16
ATOM     11  C   UNL     1      -5.979  12.890  16.906  0.00  0.00    +0.000 C 
ATOM     12  C   UNL     1      -6.285  12.847  18.355  0.00  0.00    +0.000 A 
ATOM     13  N   UNL     1      -7.578  12.976  18.796  0.00  0.00    +0.000 NA
ATOM     14  C   UNL     1      -7.511  12.882  20.103  0.00  0.00    +0.000 A 
ATOM     15  N   UNL     1      -6.225  12.689  20.533  0.00  0.00    +0.000 N 
ATOM     16  C   UNL     1      -5.431  12.624  19.421  0.00  0.00    +0.000 A 
BRANCH  15  17
ATOM     17  C   UNL     1      -5.820  12.729  21.918  0.00  0.00    +0.000 C 
BRANCH  17  18
ATOM     18  C   UNL     1      -6.966  12.618  22.911  0.00  0.00    +0.000 C 
ATOM     19  N   UNL     1      -7.916  12.525  23.734  0.00  0.00    +0.000 NA
ENDBRANCH  17  18
ENDBRANCH  15  17
ENDBRANCH   7  16
ENDBRANCH   1   8
BRANCH   5  20
ATOM     20  N   UNL     1       1.137   9.526  19.323  0.00  0.00    +0.000 N 
ATOM     21  C   UNL     1       0.961   9.013  20.677  0.00  0.00    +0.000 C 
ATOM     22  C   UNL     1       1.798   8.833  18.287  0.00  0.00    +0.000 C 
ATOM     23  O   UNL     1       1.810   9.247  17.124  0.00  0.00    +0.000 OA
BRANCH  22  24
ATOM     24  C   UNL     1       2.569   7.581  18.548  0.00  0.00    +0.000 A 
ATOM     25  C   UNL     1       2.253   6.839  19.696  0.00  0.00    +0.000 A 
ATOM     26  C   UNL     1       2.924   5.646  19.981  0.00  0.00    +0.000 A 
ATOM     27  C   UNL     1       3.899   5.167  19.105  0.00  0.00    +0.000 A 
ATOM     28  C   UNL     1       4.250   5.908  17.970  0.00  0.00    +0.000 A 
ATOM     29  C   UNL     1       3.618   7.141  17.739  0.00  0.00    +0.000 A 
BRANCH  28  30
ATOM     30  C   UNL     1       5.252   5.402  16.962  0.00  0.00    +0.000 C 
ATOM     31  F   UNL     1       4.715   4.605  16.000  0.00  0.00    +0.000 F 
ATOM     32  F   UNL     1       5.863   6.427  16.303  0.00  0.00    +0.000 F 
ATOM     33  F   UNL     1       6.254   4.684  17.538  0.00  0.00    +0.000 F 
ENDBRANCH  28  30
ENDBRANCH  22  24
ENDBRANCH   5  20
TORSDOF 7
ENDMDL
