MODEL 1
REMARK VINA RESULT:      -8.3      0.000      0.000
REMARK  Name = 
REMARK  11 active torsions:
REMARK  status: ('A' for Active; 'I' for Inactive)
REMARK    1  A    between atoms: C_1  and  C_2
REMARK    2  A    between atoms: C_2  and  S_3
REMARK    3  A    between atoms: S_3  and  C_4
REMARK    4  A    between atoms: C_4  and  C_5
REMARK    5  A    between atoms: C_4  and  N_30
REMARK    6  A    between atoms: C_5  and  N_6
REMARK    7  A    between atoms: C_11  and  C_12
REMARK    8  A    between atoms: C_13  and  C_14
REMARK    9  A    between atoms: C_17  and  C_18
REMARK   10  A    between atoms: C_18  and  N_19
REMARK   11  A    between atoms: N_30  and  O_31
REMARK                            x       y       z     vdW  Elec       q    Type
REMARK                         _______ _______ _______ _____ _____    ______ ____
ROOT
ATOM      1  N   UNL     1       4.214   4.577  17.561  0.00  0.00    +0.000 N 
ATOM      2  N   UNL     1       4.067   3.584  18.457  0.00  0.00    +0.000 NA
ATOM      3  N   UNL     1       3.507   4.100  19.541  0.00  0.00    +0.000 NA
ATOM      4  C   UNL     1       3.203   5.407  19.278  0.00  0.00    +0.000 A 
ATOM      5  C   UNL     1       2.529   6.356  20.057  0.00  0.00    +0.000 A 
ATOM      6  C   UNL     1       2.242   7.600  19.477  0.00  0.00    +0.000 A 
ATOM      7  C   UNL     1       2.711   7.922  18.198  0.00  0.00    +0.000 A 
ATOM      8  C   UNL     1       3.436   7.003  17.433  0.00  0.00    +0.000 A 
ATOM      9  C   UNL     1       3.637   5.740  18.000  0.00  0.00    +0.000 A 
ENDROOT
BRANCH   6  10
ATOM     10  C   UNL     1       1.432   8.540  20.184  0.00  0.00    +0.000 C 
ATOM     11  C   UNL     1       0.725   9.332  20.745  0.00  0.00    +0.000 C 
BRANCH  11  12
ATOM     12  C   UNL     1      -0.165  10.326  21.259  0.00  0.00    +0.000 A 
ATOM     13  C   UNL     1      -0.558  10.372  22.595  0.00  0.00    +0.000 A 
ATOM     14  C   UNL     1      -1.524  11.303  23.013  0.00  0.00    +0.000 A 
ATOM     15  C   UNL     1      -2.104  12.197  22.094  0.00  0.00    +0.000 A 
ATOM     16  C   UNL     1      -1.661  12.161  20.764  0.00  0.00    +0.000 A 
ATOM     17  C   UNL     1      -0.701  11.240  20.355  0.00  0.00    +0.000 A 
BRANCH  15  18
ATOM     18  C   UNL     1      -3.281  13.077  22.464  0.00  0.00    +0.000 C 
BRANCH  18  19
ATOM     19  N   UNL     1      -4.632  12.527  22.504  0.00  0.00    +0.000 NA
ATOM     20  C   UNL     1      -5.339  12.363  21.231  0.00  0.00    +0.000 C 
ATOM     21  C   UNL     1      -6.218  13.559  20.825  0.00  0.00    +0.000 C 
ATOM     22  O   UNL     1      -7.084  13.983  21.886  0.00  0.00    +0.000 OA
ATOM     23  C   UNL     1      -6.346  14.271  23.079  0.00  0.00    +0.000 C 
ATOM     24  C   UNL     1      -5.525  13.059  23.533  0.00  0.00    +0.000 C 
ENDBRANCH  18  19
ENDBRANCH  15  18
ENDBRANCH  11  12
ENDBRANCH   6  10
BRANCH   1  25
ATOM     25  C   UNL     1       4.793   4.307  16.267  0.00  0.00    +0.000 C 
BRANCH  25  26
ATOM     26  C   UNL     1       6.012   5.171  15.896  0.00  0.00    +0.000 C 
BRANCH  26  27
ATOM     27  N   UNL     1       7.006   5.259  16.980  0.00  0.00    +0.000 N 
ATOM     28  C   UNL     1       7.328   6.425  17.620  0.00  0.00    +0.000 C 
ATOM     29  O   UNL     1       6.950   7.537  17.277  0.00  0.00    +0.000 OA
BRANCH  27  30
ATOM     30  O   UNL     1       7.205   4.091  17.752  0.00  0.00    +0.000 OA
ATOM     31  H   UNL     1       7.168   4.442  18.668  0.00  0.00    +0.000 HD
ENDBRANCH  27  30
ENDBRANCH  26  27
BRANCH  26  32
ATOM     32  S   UNL     1       6.912   4.763  14.325  0.00  0.00    +0.000 S 
BRANCH  32  34
ATOM     33  C   UNL     1       6.163   3.334  12.082  0.00  0.00    +0.000 C 
ATOM     34  C   UNL     1       5.752   3.620  13.513  0.00  0.00    +0.000 C 
ENDBRANCH  32  34
ENDBRANCH  26  32
ENDBRANCH  25  26
ENDBRANCH   1  25
TORSDOF 10
ENDMDL
MODEL 2
REMARK VINA RESULT:      -7.9      1.742      2.282
REMARK  Name = 
REMARK  11 active torsions:
REMARK  status: ('A' for Active; 'I' for Inactive)
REMARK    1  A    between atoms: C_1  and  C_2
REMARK    2  A    between atoms: C_2  and  S_3
REMARK    3  A    between atoms: S_3  and  C_4
REMARK    4  A    between atoms: C_4  and  C_5
REMARK    5  A    between atoms: C_4  and  N_30
REMARK    6  A    between atoms: C_5  and  N_6
REMARK    7  A    between atoms: C_11  and  C_12
REMARK    8  A    between atoms: C_13  and  C_14
REMARK    9  A    between atoms: C_17  and  C_18
REMARK   10  A    between atoms: C_18  and  N_19
REMARK   11  A    between atoms: N_30  and  O_31
REMARK                            x       y       z     vdW  Elec       q    Type
REMARK                         _______ _______ _______ _____ _____    ______ ____
ROOT
ATOM      1  N   UNL     1       4.095   4.326  17.656  0.00  0.00    +0.000 N 
ATOM      2  N   UNL     1       3.683   3.319  18.448  0.00  0.00    +0.000 NA
ATOM      3  N   UNL     1       3.022   3.852  19.466  0.00  0.00    +0.000 NA
ATOM      4  C   UNL     1       2.929   5.198  19.250  0.00  0.00    +0.000 A 
ATOM      5  C   UNL     1       2.259   6.190  19.978  0.00  0.00    +0.000 A 
ATOM      6  C   UNL     1       2.226   7.487  19.448  0.00  0.00    +0.000 A 
ATOM      7  C   UNL     1       2.932   7.806  18.283  0.00  0.00    +0.000 A 
ATOM      8  C   UNL     1       3.653   6.837  17.578  0.00  0.00    +0.000 A 
ATOM      9  C   UNL     1       3.602   5.533  18.080  0.00  0.00    +0.000 A 
ENDROOT
BRANCH   6  10
ATOM     10  C   UNL     1       1.434   8.491  20.085  0.00  0.00    +0.000 C 
ATOM     11  C   UNL     1       0.736   9.309  20.619  0.00  0.00    +0.000 C 
BRANCH  11  12
ATOM     12  C   UNL     1      -0.226  10.205  21.180  0.00  0.00    +0.000 A 
ATOM     13  C   UNL     1      -0.840  11.216  20.443  0.00  0.00    +0.000 A 
ATOM     14  C   UNL     1      -1.690  12.136  21.080  0.00  0.00    +0.000 A 
ATOM     15  C   UNL     1      -1.933  12.049  22.463  0.00  0.00    +0.000 A 
ATOM     16  C   UNL     1      -1.339  10.998  23.176  0.00  0.00    +0.000 A 
ATOM     17  C   UNL     1      -0.501  10.087  22.541  0.00  0.00    +0.000 A 
BRANCH  15  18
ATOM     18  C   UNL     1      -2.683  13.130  23.215  0.00  0.00    +0.000 C 
BRANCH  18  19
ATOM     19  N   UNL     1      -1.957  14.208  23.879  0.00  0.00    +0.000 NA
ATOM     20  C   UNL     1      -2.573  14.819  25.059  0.00  0.00    +0.000 C 
ATOM     21  C   UNL     1      -3.437  16.058  24.767  0.00  0.00    +0.000 C 
ATOM     22  O   UNL     1      -2.756  17.014  23.944  0.00  0.00    +0.000 OA
ATOM     23  C   UNL     1      -2.286  16.418  22.729  0.00  0.00    +0.000 C 
ATOM     24  C   UNL     1      -1.364  15.227  23.013  0.00  0.00    +0.000 C 
ENDBRANCH  18  19
ENDBRANCH  15  18
ENDBRANCH  11  12
ENDBRANCH   6  10
BRANCH   1  25
ATOM     25  C   UNL     1       4.838   4.045  16.452  0.00  0.00    +0.000 C 
BRANCH  25  26
ATOM     26  C   UNL     1       5.975   5.032  16.132  0.00  0.00    +0.000 C 
BRANCH  26  27
ATOM     27  N   UNL     1       6.945   5.167  17.232  0.00  0.00    +0.000 N 
ATOM     28  C   UNL     1       7.452   6.368  17.652  0.00  0.00    +0.000 C 
ATOM     29  O   UNL     1       7.282   7.436  17.080  0.00  0.00    +0.000 OA
BRANCH  27  30
ATOM     30  O   UNL     1       6.921   4.161  18.225  0.00  0.00    +0.000 OA
ATOM     31  H   UNL     1       5.958   4.000  18.331  0.00  0.00    +0.000 HD
ENDBRANCH  27  30
ENDBRANCH  26  27
BRANCH  26  32
ATOM     32  S   UNL     1       6.925   4.775  14.559  0.00  0.00    +0.000 S 
BRANCH  32  34
ATOM     33  C   UNL     1       6.327   3.448  12.209  0.00  0.00    +0.000 C 
ATOM     34  C   UNL     1       5.749   3.804  13.565  0.00  0.00    +0.000 C 
ENDBRANCH  32  34
ENDBRANCH  26  32
ENDBRANCH  25  26
ENDBRANCH   1  25
TORSDOF 10
ENDMDL
MODEL 3
REMARK VINA RESULT:      -7.8      6.817     10.149
REMARK  Name = 
REMARK  11 active torsions:
REMARK  status: ('A' for Active; 'I' for Inactive)
REMARK    1  A    between atoms: C_1  and  C_2
REMARK    2  A    between atoms: C_2  and  S_3
REMARK    3  A    between atoms: S_3  and  C_4
REMARK    4  A    between atoms: C_4  and  C_5
REMARK    5  A    between atoms: C_4  and  N_30
REMARK    6  A    between atoms: C_5  and  N_6
REMARK    7  A    between atoms: C_11  and  C_12
REMARK    8  A    between atoms: C_13  and  C_14
REMARK    9  A    between atoms: C_17  and  C_18
REMARK   10  A    between atoms: C_18  and  N_19
REMARK   11  A    between atoms: N_30  and  O_31
REMARK                            x       y       z     vdW  Elec       q    Type
REMARK                         _______ _______ _______ _____ _____    ______ ____
ROOT
ATOM      1  N   UNL     1       5.388   4.765  16.844  0.00  0.00    +0.000 N 
ATOM      2  N   UNL     1       5.008   5.264  15.654  0.00  0.00    +0.000 NA
ATOM      3  N   UNL     1       5.464   6.505  15.573  0.00  0.00    +0.000 NA
ATOM      4  C   UNL     1       6.228   6.747  16.680  0.00  0.00    +0.000 A 
ATOM      5  C   UNL     1       6.996   7.866  17.026  0.00  0.00    +0.000 A 
ATOM      6  C   UNL     1       7.791   7.789  18.177  0.00  0.00    +0.000 A 
ATOM      7  C   UNL     1       7.737   6.670  19.015  0.00  0.00    +0.000 A 
ATOM      8  C   UNL     1       6.929   5.569  18.711  0.00  0.00    +0.000 A 
ATOM      9  C   UNL     1       6.209   5.635  17.514  0.00  0.00    +0.000 A 
ENDROOT
BRANCH   6  10
ATOM     10  C   UNL     1       8.696   8.851  18.484  0.00  0.00    +0.000 C 
ATOM     11  C   UNL     1       9.425   9.771  18.738  0.00  0.00    +0.000 C 
BRANCH  11  12
ATOM     12  C   UNL     1      10.187  10.962  18.949  0.00  0.00    +0.000 A 
ATOM     13  C   UNL     1      10.497  11.448  20.217  0.00  0.00    +0.000 A 
ATOM     14  C   UNL     1      11.149  12.685  20.358  0.00  0.00    +0.000 A 
ATOM     15  C   UNL     1      11.497  13.445  19.226  0.00  0.00    +0.000 A 
ATOM     16  C   UNL     1      11.213  12.917  17.959  0.00  0.00    +0.000 A 
ATOM     17  C   UNL     1      10.571  11.689  17.824  0.00  0.00    +0.000 A 
BRANCH  15  18
ATOM     18  C   UNL     1      12.022  14.862  19.343  0.00  0.00    +0.000 C 
BRANCH  18  19
ATOM     19  N   UNL     1      11.100  15.993  19.361  0.00  0.00    +0.000 NA
ATOM     20  C   UNL     1       9.737  15.755  19.846  0.00  0.00    +0.000 C 
ATOM     21  C   UNL     1       8.718  15.397  18.751  0.00  0.00    +0.000 C 
ATOM     22  O   UNL     1       8.758  16.312  17.649  0.00  0.00    +0.000 OA
ATOM     23  C   UNL     1      10.078  16.418  17.105  0.00  0.00    +0.000 C 
ATOM     24  C   UNL     1      11.089  16.847  18.174  0.00  0.00    +0.000 C 
ENDBRANCH  18  19
ENDBRANCH  15  18
ENDBRANCH  11  12
ENDBRANCH   6  10
BRANCH   1  25
ATOM     25  C   UNL     1       5.041   3.414  17.209  0.00  0.00    +0.000 C 
BRANCH  25  26
ATOM     26  C   UNL     1       3.703   3.254  17.954  0.00  0.00    +0.000 C 
BRANCH  26  27
ATOM     27  N   UNL     1       3.572   1.951  18.628  0.00  0.00    +0.000 N 
ATOM     28  C   UNL     1       4.270   1.606  19.754  0.00  0.00    +0.000 C 
ATOM     29  O   UNL     1       5.179   2.265  20.241  0.00  0.00    +0.000 OA
BRANCH  27  30
ATOM     30  O   UNL     1       2.336   1.281  18.476  0.00  0.00    +0.000 OA
ATOM     31  H   UNL     1       1.692   1.983  18.711  0.00  0.00    +0.000 HD
ENDBRANCH  27  30
ENDBRANCH  26  27
BRANCH  26  32
ATOM     32  S   UNL     1       3.227   4.576  19.167  0.00  0.00    +0.000 S 
BRANCH  32  34
ATOM     33  C   UNL     1       2.887   7.157  18.241  0.00  0.00    +0.000 C 
ATOM     34  C   UNL     1       2.331   5.753  18.107  0.00  0.00    +0.000 C 
ENDBRANCH  32  34
ENDBRANCH  26  32
ENDBRANCH  25  26
ENDBRANCH   1  25
TORSDOF 10
ENDMDL
MODEL 4
REMARK VINA RESULT:      -7.7      7.602     11.762
REMARK  Name = 
REMARK  11 active torsions:
REMARK  status: ('A' for Active; 'I' for Inactive)
REMARK    1  A    between atoms: C_1  and  C_2
REMARK    2  A    between atoms: C_2  and  S_3
REMARK    3  A    between atoms: S_3  and  C_4
REMARK    4  A    between atoms: C_4  and  C_5
REMARK    5  A    between atoms: C_4  and  N_30
REMARK    6  A    between atoms: C_5  and  N_6
REMARK    7  A    between atoms: C_11  and  C_12
REMARK    8  A    between atoms: C_13  and  C_14
REMARK    9  A    between atoms: C_17  and  C_18
REMARK   10  A    between atoms: C_18  and  N_19
REMARK   11  A    between atoms: N_30  and  O_31
REMARK                            x       y       z     vdW  Elec       q    Type
REMARK                         _______ _______ _______ _____ _____    ______ ____
ROOT
ATOM      1  N   UNL     1      11.122  14.052  19.321  0.00  0.00    +0.000 N 
ATOM      2  N   UNL     1      11.357  14.470  18.064  0.00  0.00    +0.000 NA
ATOM      3  N   UNL     1      11.044  13.476  17.245  0.00  0.00    +0.000 NA
ATOM      4  C   UNL     1      10.508  12.466  17.992  0.00  0.00    +0.000 A 
ATOM      5  C   UNL     1       9.945  11.245  17.597  0.00  0.00    +0.000 A 
ATOM      6  C   UNL     1       9.347  10.447  18.582  0.00  0.00    +0.000 A 
ATOM      7  C   UNL     1       9.406  10.806  19.933  0.00  0.00    +0.000 A 
ATOM      8  C   UNL     1      10.017  11.994  20.346  0.00  0.00    +0.000 A 
ATOM      9  C   UNL     1      10.532  12.815  19.338  0.00  0.00    +0.000 A 
ENDROOT
BRANCH   6  10
ATOM     10  C   UNL     1       8.637   9.267  18.201  0.00  0.00    +0.000 C 
ATOM     11  C   UNL     1       8.018   8.278  17.916  0.00  0.00    +0.000 C 
BRANCH  11  12
ATOM     12  C   UNL     1       7.253   7.083  17.743  0.00  0.00    +0.000 A 
ATOM     13  C   UNL     1       7.677   5.840  18.206  0.00  0.00    +0.000 A 
ATOM     14  C   UNL     1       6.935   4.685  17.904  0.00  0.00    +0.000 A 
ATOM     15  C   UNL     1       5.760   4.769  17.135  0.00  0.00    +0.000 A 
ATOM     16  C   UNL     1       5.330   6.035  16.716  0.00  0.00    +0.000 A 
ATOM     17  C   UNL     1       6.065   7.177  17.021  0.00  0.00    +0.000 A 
BRANCH  15  18
ATOM     18  C   UNL     1       5.044   3.533  16.627  0.00  0.00    +0.000 C 
BRANCH  18  19
ATOM     19  N   UNL     1       3.923   2.970  17.372  0.00  0.00    +0.000 NA
ATOM     20  C   UNL     1       2.611   3.603  17.214  0.00  0.00    +0.000 C 
ATOM     21  C   UNL     1       2.293   4.694  18.251  0.00  0.00    +0.000 C 
ATOM     22  O   UNL     1       2.535   4.255  19.594  0.00  0.00    +0.000 OA
ATOM     23  C   UNL     1       3.872   3.770  19.754  0.00  0.00    +0.000 C 
ATOM     24  C   UNL     1       4.173   2.631  18.773  0.00  0.00    +0.000 C 
ENDBRANCH  18  19
ENDBRANCH  15  18
ENDBRANCH  11  12
ENDBRANCH   6  10
BRANCH   1  25
ATOM     25  C   UNL     1      11.362  14.935  20.436  0.00  0.00    +0.000 C 
BRANCH  25  26
ATOM     26  C   UNL     1      10.250  15.962  20.717  0.00  0.00    +0.000 C 
BRANCH  26  27
ATOM     27  N   UNL     1      10.467  17.247  20.031  0.00  0.00    +0.000 N 
ATOM     28  C   UNL     1      10.203  18.464  20.601  0.00  0.00    +0.000 C 
ATOM     29  O   UNL     1       9.625  18.625  21.667  0.00  0.00    +0.000 OA
BRANCH  27  30
ATOM     30  O   UNL     1      11.468  17.271  19.034  0.00  0.00    +0.000 OA
ATOM     31  H   UNL     1      11.581  18.234  18.879  0.00  0.00    +0.000 HD
ENDBRANCH  27  30
ENDBRANCH  26  27
BRANCH  26  32
ATOM     32  S   UNL     1       8.496  15.438  20.412  0.00  0.00    +0.000 S 
BRANCH  32  34
ATOM     33  C   UNL     1       7.757  15.014  17.783  0.00  0.00    +0.000 C 
ATOM     34  C   UNL     1       8.190  16.103  18.745  0.00  0.00    +0.000 C 
ENDBRANCH  32  34
ENDBRANCH  26  32
ENDBRANCH  25  26
ENDBRANCH   1  25
TORSDOF 10
ENDMDL
MODEL 5
REMARK VINA RESULT:      -7.6      1.486      2.489
REMARK  Name = 
REMARK  11 active torsions:
REMARK  status: ('A' for Active; 'I' for Inactive)
REMARK    1  A    between atoms: C_1  and  C_2
REMARK    2  A    between atoms: C_2  and  S_3
REMARK    3  A    between atoms: S_3  and  C_4
REMARK    4  A    between atoms: C_4  and  C_5
REMARK    5  A    between atoms: C_4  and  N_30
REMARK    6  A    between atoms: C_5  and  N_6
REMARK    7  A    between atoms: C_11  and  C_12
REMARK    8  A    between atoms: C_13  and  C_14
REMARK    9  A    between atoms: C_17  and  C_18
REMARK   10  A    between atoms: C_18  and  N_19
REMARK   11  A    between atoms: N_30  and  O_31
REMARK                            x       y       z     vdW  Elec       q    Type
REMARK                         _______ _______ _______ _____ _____    ______ ____
ROOT
ATOM      1  N   UNL     1       4.269   4.548  17.130  0.00  0.00    +0.000 N 
ATOM      2  N   UNL     1       4.077   3.439  17.868  0.00  0.00    +0.000 NA
ATOM      3  N   UNL     1       3.483   3.804  18.995  0.00  0.00    +0.000 NA
ATOM      4  C   UNL     1       3.204   5.139  18.913  0.00  0.00    +0.000 A 
ATOM      5  C   UNL     1       2.511   5.977  19.796  0.00  0.00    +0.000 A 
ATOM      6  C   UNL     1       2.260   7.296  19.391  0.00  0.00    +0.000 A 
ATOM      7  C   UNL     1       2.779   7.791  18.190  0.00  0.00    +0.000 A 
ATOM      8  C   UNL     1       3.522   6.979  17.326  0.00  0.00    +0.000 A 
ATOM      9  C   UNL     1       3.688   5.646  17.712  0.00  0.00    +0.000 A 
ENDROOT
BRANCH   6  10
ATOM     10  C   UNL     1       1.434   8.138  20.198  0.00  0.00    +0.000 C 
ATOM     11  C   UNL     1       0.740   8.874  20.845  0.00  0.00    +0.000 C 
BRANCH  11  12
ATOM     12  C   UNL     1      -0.019   9.877  21.523  0.00  0.00    +0.000 A 
ATOM     13  C   UNL     1      -0.439   9.745  22.845  0.00  0.00    +0.000 A 
ATOM     14  C   UNL     1      -1.281  10.714  23.418  0.00  0.00    +0.000 A 
ATOM     15  C   UNL     1      -1.708  11.825  22.669  0.00  0.00    +0.000 A 
ATOM     16  C   UNL     1      -1.239  11.959  21.354  0.00  0.00    +0.000 A 
ATOM     17  C   UNL     1      -0.402  11.000  20.792  0.00  0.00    +0.000 A 
BRANCH  15  18
ATOM     18  C   UNL     1      -2.764  12.781  23.185  0.00  0.00    +0.000 C 
BRANCH  18  19
ATOM     19  N   UNL     1      -3.625  13.504  22.255  0.00  0.00    +0.000 NA
ATOM     20  C   UNL     1      -3.886  14.920  22.525  0.00  0.00    +0.000 C 
ATOM     21  C   UNL     1      -5.151  15.195  23.357  0.00  0.00    +0.000 C 
ATOM     22  O   UNL     1      -6.300  14.512  22.841  0.00  0.00    +0.000 OA
ATOM     23  C   UNL     1      -6.062  13.106  22.718  0.00  0.00    +0.000 C 
ATOM     24  C   UNL     1      -4.847  12.821  21.830  0.00  0.00    +0.000 C 
ENDBRANCH  18  19
ENDBRANCH  15  18
ENDBRANCH  11  12
ENDBRANCH   6  10
BRANCH   1  25
ATOM     25  C   UNL     1       4.891   4.458  15.832  0.00  0.00    +0.000 C 
BRANCH  25  26
ATOM     26  C   UNL     1       6.382   4.074  15.840  0.00  0.00    +0.000 C 
BRANCH  26  27
ATOM     27  N   UNL     1       7.071   4.417  14.585  0.00  0.00    +0.000 N 
ATOM     28  C   UNL     1       6.590   4.097  13.344  0.00  0.00    +0.000 C 
ATOM     29  O   UNL     1       5.627   3.371  13.135  0.00  0.00    +0.000 OA
BRANCH  27  30
ATOM     30  O   UNL     1       7.908   5.556  14.614  0.00  0.00    +0.000 OA
ATOM     31  H   UNL     1       8.324   5.484  15.500  0.00  0.00    +0.000 HD
ENDBRANCH  27  30
ENDBRANCH  26  27
BRANCH  26  32
ATOM     32  S   UNL     1       7.423   4.685  17.251  0.00  0.00    +0.000 S 
BRANCH  32  34
ATOM     33  C   UNL     1       7.949   7.216  18.225  0.00  0.00    +0.000 C 
ATOM     34  C   UNL     1       7.130   6.480  17.183  0.00  0.00    +0.000 C 
ENDBRANCH  32  34
ENDBRANCH  26  32
ENDBRANCH  25  26
ENDBRANCH   1  25
TORSDOF 10
ENDMDL
MODEL 6
REMARK VINA RESULT:      -7.6      6.225      9.903
REMARK  Name = 
REMARK  11 active torsions:
REMARK  status: ('A' for Active; 'I' for Inactive)
REMARK    1  A    between atoms: C_1  and  C_2
REMARK    2  A    between atoms: C_2  and  S_3
REMARK    3  A    between atoms: S_3  and  C_4
REMARK    4  A    between atoms: C_4  and  C_5
REMARK    5  A    between atoms: C_4  and  N_30
REMARK    6  A    between atoms: C_5  and  N_6
REMARK    7  A    between atoms: C_11  and  C_12
REMARK    8  A    between atoms: C_13  and  C_14
REMARK    9  A    between atoms: C_17  and  C_18
REMARK   10  A    between atoms: C_18  and  N_19
REMARK   11  A    between atoms: N_30  and  O_31
REMARK                            x       y       z     vdW  Elec       q    Type
REMARK                         _______ _______ _______ _____ _____    ______ ____
ROOT
ATOM      1  N   UNL     1       5.537   4.836  18.151  0.00  0.00    +0.000 N 
ATOM      2  N   UNL     1       6.028   4.203  19.231  0.00  0.00    +0.000 NA
ATOM      3  N   UNL     1       7.101   4.868  19.636  0.00  0.00    +0.000 NA
ATOM      4  C   UNL     1       7.217   5.990  18.863  0.00  0.00    +0.000 A 
ATOM      5  C   UNL     1       8.122   7.056  18.943  0.00  0.00    +0.000 A 
ATOM      6  C   UNL     1       7.926   8.151  18.089  0.00  0.00    +0.000 A 
ATOM      7  C   UNL     1       6.924   8.131  17.113  0.00  0.00    +0.000 A 
ATOM      8  C   UNL     1       6.050   7.047  16.985  0.00  0.00    +0.000 A 
ATOM      9  C   UNL     1       6.212   6.004  17.903  0.00  0.00    +0.000 A 
ENDROOT
BRANCH   6  10
ATOM     10  C   UNL     1       8.737   9.317  18.237  0.00  0.00    +0.000 C 
ATOM     11  C   UNL     1       9.393  10.312  18.391  0.00  0.00    +0.000 C 
BRANCH  11  12
ATOM     12  C   UNL     1      10.030  11.569  18.629  0.00  0.00    +0.000 A 
ATOM     13  C   UNL     1      10.800  11.825  19.761  0.00  0.00    +0.000 A 
ATOM     14  C   UNL     1      11.305  13.116  19.994  0.00  0.00    +0.000 A 
ATOM     15  C   UNL     1      11.041  14.162  19.090  0.00  0.00    +0.000 A 
ATOM     16  C   UNL     1      10.300  13.871  17.936  0.00  0.00    +0.000 A 
ATOM     17  C   UNL     1       9.806  12.590  17.708  0.00  0.00    +0.000 A 
BRANCH  15  18
ATOM     18  C   UNL     1      11.400  15.601  19.402  0.00  0.00    +0.000 C 
BRANCH  18  19
ATOM     19  N   UNL     1      10.545  16.405  20.269  0.00  0.00    +0.000 NA
ATOM     20  C   UNL     1      10.795  16.356  21.712  0.00  0.00    +0.000 C 
ATOM     21  C   UNL     1       9.973  15.301  22.473  0.00  0.00    +0.000 C 
ATOM     22  O   UNL     1       8.577  15.370  22.158  0.00  0.00    +0.000 OA
ATOM     23  C   UNL     1       8.352  15.274  20.747  0.00  0.00    +0.000 C 
ATOM     24  C   UNL     1       9.110  16.369  19.987  0.00  0.00    +0.000 C 
ENDBRANCH  18  19
ENDBRANCH  15  18
ENDBRANCH  11  12
ENDBRANCH   6  10
BRANCH   1  25
ATOM     25  C   UNL     1       4.352   4.340  17.495  0.00  0.00    +0.000 C 
BRANCH  25  26
ATOM     26  C   UNL     1       3.025   4.633  18.220  0.00  0.00    +0.000 C 
BRANCH  26  27
ATOM     27  N   UNL     1       2.611   3.545  19.122  0.00  0.00    +0.000 N 
ATOM     28  C   UNL     1       2.177   2.322  18.686  0.00  0.00    +0.000 C 
ATOM     29  O   UNL     1       1.942   2.041  17.519  0.00  0.00    +0.000 OA
BRANCH  27  30
ATOM     30  O   UNL     1       3.192   3.536  20.411  0.00  0.00    +0.000 OA
ATOM     31  H   UNL     1       3.651   2.669  20.423  0.00  0.00    +0.000 HD
ENDBRANCH  27  30
ENDBRANCH  26  27
BRANCH  26  32
ATOM     32  S   UNL     1       2.884   6.233  19.149  0.00  0.00    +0.000 S 
BRANCH  32  34
ATOM     33  C   UNL     1       1.967   8.728  18.391  0.00  0.00    +0.000 C 
ATOM     34  C   UNL     1       2.422   7.396  17.826  0.00  0.00    +0.000 C 
ENDBRANCH  32  34
ENDBRANCH  26  32
ENDBRANCH  25  26
ENDBRANCH   1  25
TORSDOF 10
ENDMDL
MODEL 7
REMARK VINA RESULT:      -7.5      0.955      1.061
REMARK  Name = 
REMARK  11 active torsions:
REMARK  status: ('A' for Active; 'I' for Inactive)
REMARK    1  A    between atoms: C_1  and  C_2
REMARK    2  A    between atoms: C_2  and  S_3
REMARK    3  A    between atoms: S_3  and  C_4
REMARK    4  A    between atoms: C_4  and  C_5
REMARK    5  A    between atoms: C_4  and  N_30
REMARK    6  A    between atoms: C_5  and  N_6
REMARK    7  A    between atoms: C_11  and  C_12
REMARK    8  A    between atoms: C_13  and  C_14
REMARK    9  A    between atoms: C_17  and  C_18
REMARK   10  A    between atoms: C_18  and  N_19
REMARK   11  A    between atoms: N_30  and  O_31
REMARK                            x       y       z     vdW  Elec       q    Type
REMARK                         _______ _______ _______ _____ _____    ______ ____
ROOT
ATOM      1  N   UNL     1       4.320   4.700  18.074  0.00  0.00    +0.000 N 
ATOM      2  N   UNL     1       3.965   3.902  19.097  0.00  0.00    +0.000 NA
ATOM      3  N   UNL     1       3.236   4.624  19.936  0.00  0.00    +0.000 NA
ATOM      4  C   UNL     1       3.045   5.856  19.377  0.00  0.00    +0.000 A 
ATOM      5  C   UNL     1       2.279   6.944  19.817  0.00  0.00    +0.000 A 
ATOM      6  C   UNL     1       2.160   8.052  18.968  0.00  0.00    +0.000 A 
ATOM      7  C   UNL     1       2.873   8.116  17.765  0.00  0.00    +0.000 A 
ATOM      8  C   UNL     1       3.687   7.060  17.342  0.00  0.00    +0.000 A 
ATOM      9  C   UNL     1       3.723   5.931  18.165  0.00  0.00    +0.000 A 
ENDROOT
BRANCH   6  10
ATOM     10  C   UNL     1       1.275   9.118  19.316  0.00  0.00    +0.000 C 
ATOM     11  C   UNL     1       0.557  10.025  19.639  0.00  0.00    +0.000 C 
BRANCH  11  12
ATOM     12  C   UNL     1      -0.231  11.088  20.179  0.00  0.00    +0.000 A 
ATOM     13  C   UNL     1      -0.091  11.544  21.488  0.00  0.00    +0.000 A 
ATOM     14  C   UNL     1      -0.974  12.514  21.995  0.00  0.00    +0.000 A 
ATOM     15  C   UNL     1      -2.004  13.035  21.190  0.00  0.00    +0.000 A 
ATOM     16  C   UNL     1      -2.098  12.593  19.863  0.00  0.00    +0.000 A 
ATOM     17  C   UNL     1      -1.219  11.636  19.365  0.00  0.00    +0.000 A 
BRANCH  15  18
ATOM     18  C   UNL     1      -3.087  13.931  21.756  0.00  0.00    +0.000 C 
BRANCH  18  19
ATOM     19  N   UNL     1      -4.492  13.554  21.645  0.00  0.00    +0.000 NA
ATOM     20  C   UNL     1      -5.417  14.529  21.062  0.00  0.00    +0.000 C 
ATOM     21  C   UNL     1      -6.111  15.448  22.082  0.00  0.00    +0.000 C 
ATOM     22  O   UNL     1      -6.695  14.715  23.166  0.00  0.00    +0.000 OA
ATOM     23  C   UNL     1      -5.732  13.872  23.807  0.00  0.00    +0.000 C 
ATOM     24  C   UNL     1      -5.088  12.902  22.810  0.00  0.00    +0.000 C 
ENDBRANCH  18  19
ENDBRANCH  15  18
ENDBRANCH  11  12
ENDBRANCH   6  10
BRANCH   1  25
ATOM     25  C   UNL     1       5.117   4.180  16.990  0.00  0.00    +0.000 C 
BRANCH  25  26
ATOM     26  C   UNL     1       6.188   5.138  16.439  0.00  0.00    +0.000 C 
BRANCH  26  27
ATOM     27  N   UNL     1       7.265   5.414  17.405  0.00  0.00    +0.000 N 
ATOM     28  C   UNL     1       7.569   6.667  17.864  0.00  0.00    +0.000 C 
ATOM     29  O   UNL     1       7.095   7.706  17.424  0.00  0.00    +0.000 OA
BRANCH  27  30
ATOM     30  O   UNL     1       7.603   4.366  18.292  0.00  0.00    +0.000 OA
ATOM     31  H   UNL     1       7.158   3.595  17.879  0.00  0.00    +0.000 HD
ENDBRANCH  27  30
ENDBRANCH  26  27
BRANCH  26  32
ATOM     32  S   UNL     1       6.973   4.711  14.812  0.00  0.00    +0.000 S 
BRANCH  32  34
ATOM     33  C   UNL     1       6.016   3.395  12.579  0.00  0.00    +0.000 C 
ATOM     34  C   UNL     1       5.568   4.013  13.889  0.00  0.00    +0.000 C 
ENDBRANCH  32  34
ENDBRANCH  26  32
ENDBRANCH  25  26
ENDBRANCH   1  25
TORSDOF 10
ENDMDL
MODEL 8
REMARK VINA RESULT:      -7.4      7.463     11.996
REMARK  Name = 
REMARK  11 active torsions:
REMARK  status: ('A' for Active; 'I' for Inactive)
REMARK    1  A    between atoms: C_1  and  C_2
REMARK    2  A    between atoms: C_2  and  S_3
REMARK    3  A    between atoms: S_3  and  C_4
REMARK    4  A    between atoms: C_4  and  C_5
REMARK    5  A    between atoms: C_4  and  N_30
REMARK    6  A    between atoms: C_5  and  N_6
REMARK    7  A    between atoms: C_11  and  C_12
REMARK    8  A    between atoms: C_13  and  C_14
REMARK    9  A    between atoms: C_17  and  C_18
REMARK   10  A    between atoms: C_18  and  N_19
REMARK   11  A    between atoms: N_30  and  O_31
REMARK                            x       y       z     vdW  Elec       q    Type
REMARK                         _______ _______ _______ _____ _____    ______ ____
ROOT
ATOM      1  N   UNL     1      10.610  14.450  19.682  0.00  0.00    +0.000 N 
ATOM      2  N   UNL     1      10.470  15.026  18.474  0.00  0.00    +0.000 NA
ATOM      3  N   UNL     1      10.127  14.077  17.614  0.00  0.00    +0.000 NA
ATOM      4  C   UNL     1       9.947  12.917  18.314  0.00  0.00    +0.000 A 
ATOM      5  C   UNL     1       9.501  11.660  17.888  0.00  0.00    +0.000 A 
ATOM      6  C   UNL     1       9.286  10.673  18.859  0.00  0.00    +0.000 A 
ATOM      7  C   UNL     1       9.611  10.902  20.201  0.00  0.00    +0.000 A 
ATOM      8  C   UNL     1      10.113  12.135  20.630  0.00  0.00    +0.000 A 
ATOM      9  C   UNL     1      10.239  13.131  19.657  0.00  0.00    +0.000 A 
ENDROOT
BRANCH   6  10
ATOM     10  C   UNL     1       8.696   9.427  18.484  0.00  0.00    +0.000 C 
ATOM     11  C   UNL     1       8.167   8.401  18.154  0.00  0.00    +0.000 C 
BRANCH  11  12
ATOM     12  C   UNL     1       7.389   7.261  17.781  0.00  0.00    +0.000 A 
ATOM     13  C   UNL     1       6.251   7.349  16.982  0.00  0.00    +0.000 A 
ATOM     14  C   UNL     1       5.465   6.208  16.747  0.00  0.00    +0.000 A 
ATOM     15  C   UNL     1       5.815   4.968  17.310  0.00  0.00    +0.000 A 
ATOM     16  C   UNL     1       6.987   4.894  18.076  0.00  0.00    +0.000 A 
ATOM     17  C   UNL     1       7.765   6.025  18.303  0.00  0.00    +0.000 A 
BRANCH  15  18
ATOM     18  C   UNL     1       4.894   3.767  17.240  0.00  0.00    +0.000 C 
BRANCH  18  19
ATOM     19  N   UNL     1       4.168   3.321  18.425  0.00  0.00    +0.000 NA
ATOM     20  C   UNL     1       3.012   2.443  18.227  0.00  0.00    +0.000 C 
ATOM     21  C   UNL     1       1.662   3.172  18.109  0.00  0.00    +0.000 C 
ATOM     22  O   UNL     1       1.461   4.118  19.167  0.00  0.00    +0.000 OA
ATOM     23  C   UNL     1       2.543   5.053  19.246  0.00  0.00    +0.000 C 
ATOM     24  C   UNL     1       3.884   4.337  19.438  0.00  0.00    +0.000 C 
ENDBRANCH  18  19
ENDBRANCH  15  18
ENDBRANCH  11  12
ENDBRANCH   6  10
BRANCH   1  25
ATOM     25  C   UNL     1      10.971  15.248  20.829  0.00  0.00    +0.000 C 
BRANCH  25  26
ATOM     26  C   UNL     1       9.840  16.113  21.414  0.00  0.00    +0.000 C 
BRANCH  26  27
ATOM     27  N   UNL     1       9.856  17.497  20.909  0.00  0.00    +0.000 N 
ATOM     28  C   UNL     1      10.603  18.499  21.467  0.00  0.00    +0.000 C 
ATOM     29  O   UNL     1      11.219  18.407  22.521  0.00  0.00    +0.000 OA
BRANCH  27  30
ATOM     30  O   UNL     1       9.571  17.673  19.536  0.00  0.00    +0.000 OA
ATOM     31  H   UNL     1      10.411  18.054  19.199  0.00  0.00    +0.000 HD
ENDBRANCH  27  30
ENDBRANCH  26  27
BRANCH  26  32
ATOM     32  S   UNL     1       8.104  15.472  21.277  0.00  0.00    +0.000 S 
BRANCH  32  34
ATOM     33  C   UNL     1       7.795  16.576  23.791  0.00  0.00    +0.000 C 
ATOM     34  C   UNL     1       7.202  16.589  22.396  0.00  0.00    +0.000 C 
ENDBRANCH  32  34
ENDBRANCH  26  32
ENDBRANCH  25  26
ENDBRANCH   1  25
TORSDOF 10
ENDMDL
MODEL 9
REMARK VINA RESULT:      -7.4      1.918      2.875
REMARK  Name = 
REMARK  11 active torsions:
REMARK  status: ('A' for Active; 'I' for Inactive)
REMARK    1  A    between atoms: C_1  and  C_2
REMARK    2  A    between atoms: C_2  and  S_3
REMARK    3  A    between atoms: S_3  and  C_4
REMARK    4  A    between atoms: C_4  and  C_5
REMARK    5  A    between atoms: C_4  and  N_30
REMARK    6  A    between atoms: C_5  and  N_6
REMARK    7  A    between atoms: C_11  and  C_12
REMARK    8  A    between atoms: C_13  and  C_14
REMARK    9  A    between atoms: C_17  and  C_18
REMARK   10  A    between atoms: C_18  and  N_19
REMARK   11  A    between atoms: N_30  and  O_31
REMARK                            x       y       z     vdW  Elec       q    Type
REMARK                         _______ _______ _______ _____ _____    ______ ____
ROOT
ATOM      1  N   UNL     1       3.873   4.001  17.932  0.00  0.00    +0.000 N 
ATOM      2  N   UNL     1       3.671   3.033  18.844  0.00  0.00    +0.000 NA
ATOM      3  N   UNL     1       3.162   3.601  19.927  0.00  0.00    +0.000 NA
ATOM      4  C   UNL     1       2.944   4.922  19.650  0.00  0.00    +0.000 A 
ATOM      5  C   UNL     1       2.346   5.925  20.423  0.00  0.00    +0.000 A 
ATOM      6  C   UNL     1       2.136   7.177  19.829  0.00  0.00    +0.000 A 
ATOM      7  C   UNL     1       2.608   7.449  18.540  0.00  0.00    +0.000 A 
ATOM      8  C   UNL     1       3.259   6.473  17.779  0.00  0.00    +0.000 A 
ATOM      9  C   UNL     1       3.382   5.208  18.361  0.00  0.00    +0.000 A 
ENDROOT
BRANCH   6  10
ATOM     10  C   UNL     1       1.402   8.180  20.532  0.00  0.00    +0.000 C 
ATOM     11  C   UNL     1       0.756   9.023  21.093  0.00  0.00    +0.000 C 
BRANCH  11  12
ATOM     12  C   UNL     1      -0.072  10.069  21.607  0.00  0.00    +0.000 A 
ATOM     13  C   UNL     1      -0.587  10.060  22.901  0.00  0.00    +0.000 A 
ATOM     14  C   UNL     1      -1.488  11.059  23.308  0.00  0.00    +0.000 A 
ATOM     15  C   UNL     1      -1.879  12.077  22.419  0.00  0.00    +0.000 A 
ATOM     16  C   UNL     1      -1.315  12.090  21.136  0.00  0.00    +0.000 A 
ATOM     17  C   UNL     1      -0.420  11.101  20.738  0.00  0.00    +0.000 A 
BRANCH  15  18
ATOM     18  C   UNL     1      -2.989  13.052  22.756  0.00  0.00    +0.000 C 
BRANCH  18  19
ATOM     19  N   UNL     1      -2.687  14.458  23.006  0.00  0.00    +0.000 NA
ATOM     20  C   UNL     1      -1.965  14.793  24.235  0.00  0.00    +0.000 C 
ATOM     21  C   UNL     1      -2.862  15.138  25.437  0.00  0.00    +0.000 C 
ATOM     22  O   UNL     1      -3.865  16.107  25.106  0.00  0.00    +0.000 OA
ATOM     23  C   UNL     1      -4.649  15.687  23.984  0.00  0.00    +0.000 C 
ATOM     24  C   UNL     1      -3.768  15.412  22.760  0.00  0.00    +0.000 C 
ENDBRANCH  18  19
ENDBRANCH  15  18
ENDBRANCH  11  12
ENDBRANCH   6  10
BRANCH   1  25
ATOM     25  C   UNL     1       4.414   3.676  16.635  0.00  0.00    +0.000 C 
BRANCH  25  26
ATOM     26  C   UNL     1       5.849   4.169  16.375  0.00  0.00    +0.000 C 
BRANCH  26  27
ATOM     27  N   UNL     1       5.946   5.069  15.213  0.00  0.00    +0.000 N 
ATOM     28  C   UNL     1       6.169   4.634  13.934  0.00  0.00    +0.000 C 
ATOM     29  O   UNL     1       6.460   3.485  13.629  0.00  0.00    +0.000 OA
BRANCH  27  30
ATOM     30  O   UNL     1       5.248   6.295  15.302  0.00  0.00    +0.000 OA
ATOM     31  H   UNL     1       5.829   6.819  15.895  0.00  0.00    +0.000 HD
ENDBRANCH  27  30
ENDBRANCH  26  27
BRANCH  26  32
ATOM     32  S   UNL     1       6.759   4.957  17.787  0.00  0.00    +0.000 S 
BRANCH  32  34
ATOM     33  C   UNL     1       7.672   7.565  17.873  0.00  0.00    +0.000 C 
ATOM     34  C   UNL     1       7.592   6.352  16.966  0.00  0.00    +0.000 C 
ENDBRANCH  32  34
ENDBRANCH  26  32
ENDBRANCH  25  26
ENDBRANCH   1  25
TORSDOF 10
ENDMDL
