MODEL 1
REMARK VINA RESULT:      -8.2      0.000      0.000
REMARK  Name = 
REMARK  6 active torsions:
REMARK  status: ('A' for Active; 'I' for Inactive)
REMARK    1  A    between atoms: C_2  and  C_20
REMARK    2  A    between atoms: N_3  and  C_4
REMARK    3  A    between atoms: C_8  and  O_9
REMARK    4  A    between atoms: O_9  and  C_10
REMARK    5  A    between atoms: C_10  and  C_11
REMARK    6  A    between atoms: C_24  and  N_25
REMARK                            x       y       z     vdW  Elec       q    Type
REMARK                         _______ _______ _______ _____ _____    ______ ____
ROOT
ATOM      1  C   UNL     1       2.687   5.883  19.210  0.00  0.00    +0.000 A 
ATOM      2  C   UNL     1       2.123   4.923  18.366  0.00  0.00    +0.000 A 
ATOM      3  C   UNL     1       2.846   3.808  17.973  0.00  0.00    +0.000 A 
ATOM      4  C   UNL     1       4.149   3.632  18.430  0.00  0.00    +0.000 A 
ATOM      5  C   UNL     1       4.736   4.582  19.263  0.00  0.00    +0.000 A 
ATOM      6  C   UNL     1       4.010   5.713  19.646  0.00  0.00    +0.000 A 
ENDROOT
BRANCH   1   9
ATOM      7  O   UNL     1       2.534   8.475  17.902  0.00  0.00    +0.000 OA
ATOM      8  C   UNL     1       1.951   8.218  18.953  0.00  0.00    +0.000 C 
ATOM      9  N   UNL     1       1.958   7.013  19.630  0.00  0.00    +0.000 N 
ATOM     10  H   UNL     1       1.297   6.878  20.389  0.00  0.00    +0.000 HD
BRANCH   8  11
ATOM     11  C   UNL     1       1.120   9.300  19.507  0.00  0.00    +0.000 A 
ATOM     12  C   UNL     1       0.470  10.224  18.683  0.00  0.00    +0.000 A 
ATOM     13  C   UNL     1      -0.399  11.157  19.250  0.00  0.00    +0.000 A 
ATOM     14  C   UNL     1      -0.612  11.171  20.631  0.00  0.00    +0.000 A 
ATOM     15  C   UNL     1       0.048  10.244  21.450  0.00  0.00    +0.000 A 
ATOM     16  C   UNL     1       0.910   9.302  20.894  0.00  0.00    +0.000 A 
BRANCH  15  17
ATOM     17  N   UNL     1      -0.184  10.238  22.897  0.00  0.00    +0.000 N 
ATOM     18  O   UNL     1       0.596   9.578  23.599  0.00  0.00    +0.000 OA
ATOM     19  O   UNL     1      -1.146  10.885  23.334  0.00  0.00    +0.000 OA
ENDBRANCH  15  17
ENDBRANCH   8  11
ENDBRANCH   1   9
BRANCH   5  20
ATOM     20  O   UNL     1       6.016   4.291  19.661  0.00  0.00    +0.000 OA
BRANCH  20  21
ATOM     21  C   UNL     1       7.007   5.221  19.240  0.00  0.00    +0.000 C 
BRANCH  21  22
ATOM     22  C   UNL     1       7.581   4.886  17.859  0.00  0.00    +0.000 C 
ATOM     23  O   UNL     1       8.427   3.987  17.745  0.00  0.00    +0.000 OA
ATOM     24  N   UNL     1       7.079   5.567  16.777  0.00  0.00    +0.000 N 
ATOM     25  C   UNL     1       6.101   6.662  16.806  0.00  0.00    +0.000 C 
ATOM     26  C   UNL     1       4.939   6.372  15.846  0.00  0.00    +0.000 C 
ATOM     27  O   UNL     1       5.417   6.070  14.525  0.00  0.00    +0.000 OA
ATOM     28  C   UNL     1       6.312   4.944  14.544  0.00  0.00    +0.000 C 
ATOM     29  C   UNL     1       7.530   5.227  15.428  0.00  0.00    +0.000 C 
ENDBRANCH  21  22
ENDBRANCH  20  21
ENDBRANCH   5  20
TORSDOF 6
ENDMDL
MODEL 2
REMARK VINA RESULT:      -7.8      2.170      4.052
REMARK  Name = 
REMARK  6 active torsions:
REMARK  status: ('A' for Active; 'I' for Inactive)
REMARK    1  A    between atoms: C_2  and  C_20
REMARK    2  A    between atoms: N_3  and  C_4
REMARK    3  A    between atoms: C_8  and  O_9
REMARK    4  A    between atoms: O_9  and  C_10
REMARK    5  A    between atoms: C_10  and  C_11
REMARK    6  A    between atoms: C_24  and  N_25
REMARK                            x       y       z     vdW  Elec       q    Type
REMARK                         _______ _______ _______ _____ _____    ______ ____
ROOT
ATOM      1  C   UNL     1       3.039   7.086  18.211  0.00  0.00    +0.000 A 
ATOM      2  C   UNL     1       4.268   7.528  17.715  0.00  0.00    +0.000 A 
ATOM      3  C   UNL     1       5.106   6.668  17.022  0.00  0.00    +0.000 A 
ATOM      4  C   UNL     1       4.720   5.348  16.807  0.00  0.00    +0.000 A 
ATOM      5  C   UNL     1       3.504   4.883  17.302  0.00  0.00    +0.000 A 
ATOM      6  C   UNL     1       2.667   5.747  18.013  0.00  0.00    +0.000 A 
ENDROOT
BRANCH   1   9
ATOM      7  O   UNL     1       1.918   9.593  17.258  0.00  0.00    +0.000 OA
ATOM      8  C   UNL     1       1.693   9.139  18.378  0.00  0.00    +0.000 C 
ATOM      9  N   UNL     1       2.171   7.953  18.902  0.00  0.00    +0.000 N 
ATOM     10  H   UNL     1       1.770   7.609  19.770  0.00  0.00    +0.000 HD
BRANCH   8  11
ATOM     11  C   UNL     1       0.773   9.927  19.215  0.00  0.00    +0.000 A 
ATOM     12  C   UNL     1      -0.202  10.758  18.656  0.00  0.00    +0.000 A 
ATOM     13  C   UNL     1      -1.125  11.392  19.489  0.00  0.00    +0.000 A 
ATOM     14  C   UNL     1      -1.069  11.201  20.872  0.00  0.00    +0.000 A 
ATOM     15  C   UNL     1      -0.084  10.370  21.425  0.00  0.00    +0.000 A 
ATOM     16  C   UNL     1       0.835   9.725  20.601  0.00  0.00    +0.000 A 
BRANCH  15  17
ATOM     17  N   UNL     1      -0.030  10.149  22.873  0.00  0.00    +0.000 N 
ATOM     18  O   UNL     1      -0.999  10.530  23.547  0.00  0.00    +0.000 OA
ATOM     19  O   UNL     1       0.978   9.602  23.340  0.00  0.00    +0.000 OA
ENDBRANCH  15  17
ENDBRANCH   8  11
ENDBRANCH   1   9
BRANCH   5  20
ATOM     20  O   UNL     1       3.225   3.571  17.013  0.00  0.00    +0.000 OA
BRANCH  20  21
ATOM     21  C   UNL     1       4.143   2.625  17.548  0.00  0.00    +0.000 C 
BRANCH  21  22
ATOM     22  C   UNL     1       4.265   2.721  19.072  0.00  0.00    +0.000 C 
ATOM     23  O   UNL     1       5.337   3.078  19.585  0.00  0.00    +0.000 OA
ATOM     24  N   UNL     1       3.142   2.463  19.820  0.00  0.00    +0.000 N 
ATOM     25  C   UNL     1       1.838   2.009  19.317  0.00  0.00    +0.000 C 
ATOM     26  C   UNL     1       0.715   2.910  19.846  0.00  0.00    +0.000 C 
ATOM     27  O   UNL     1       0.765   3.023  21.278  0.00  0.00    +0.000 OA
ATOM     28  C   UNL     1       2.036   3.540  21.711  0.00  0.00    +0.000 C 
ATOM     29  C   UNL     1       3.180   2.622  21.273  0.00  0.00    +0.000 C 
ENDBRANCH  21  22
ENDBRANCH  20  21
ENDBRANCH   5  20
TORSDOF 6
ENDMDL
MODEL 3
REMARK VINA RESULT:      -7.5      2.511      9.164
REMARK  Name = 
REMARK  6 active torsions:
REMARK  status: ('A' for Active; 'I' for Inactive)
REMARK    1  A    between atoms: C_2  and  C_20
REMARK    2  A    between atoms: N_3  and  C_4
REMARK    3  A    between atoms: C_8  and  O_9
REMARK    4  A    between atoms: O_9  and  C_10
REMARK    5  A    between atoms: C_10  and  C_11
REMARK    6  A    between atoms: C_24  and  N_25
REMARK                            x       y       z     vdW  Elec       q    Type
REMARK                         _______ _______ _______ _____ _____    ______ ____
ROOT
ATOM      1  C   UNL     1       3.380   4.357  17.482  0.00  0.00    +0.000 A 
ATOM      2  C   UNL     1       2.649   3.251  17.922  0.00  0.00    +0.000 A 
ATOM      3  C   UNL     1       1.985   3.276  19.139  0.00  0.00    +0.000 A 
ATOM      4  C   UNL     1       2.035   4.418  19.932  0.00  0.00    +0.000 A 
ATOM      5  C   UNL     1       2.766   5.529  19.518  0.00  0.00    +0.000 A 
ATOM      6  C   UNL     1       3.448   5.497  18.298  0.00  0.00    +0.000 A 
ENDROOT
BRANCH   1   9
ATOM      7  O   UNL     1       6.240   4.588  17.011  0.00  0.00    +0.000 OA
ATOM      8  C   UNL     1       5.416   4.482  16.105  0.00  0.00    +0.000 C 
ATOM      9  N   UNL     1       4.046   4.352  16.242  0.00  0.00    +0.000 N 
ATOM     10  H   UNL     1       3.499   4.097  15.425  0.00  0.00    +0.000 HD
BRANCH   8  11
ATOM     11  C   UNL     1       5.968   4.435  14.740  0.00  0.00    +0.000 A 
ATOM     12  C   UNL     1       7.150   5.098  14.401  0.00  0.00    +0.000 A 
ATOM     13  C   UNL     1       7.693   4.926  13.127  0.00  0.00    +0.000 A 
ATOM     14  C   UNL     1       7.054   4.102  12.197  0.00  0.00    +0.000 A 
ATOM     15  C   UNL     1       5.866   3.444  12.544  0.00  0.00    +0.000 A 
ATOM     16  C   UNL     1       5.321   3.601  13.816  0.00  0.00    +0.000 A 
BRANCH  15  17
ATOM     17  N   UNL     1       5.199   2.562  11.581  0.00  0.00    +0.000 N 
ATOM     18  O   UNL     1       5.770   1.502  11.286  0.00  0.00    +0.000 OA
ATOM     19  O   UNL     1       4.112   2.928  11.114  0.00  0.00    +0.000 OA
ENDBRANCH  15  17
ENDBRANCH   8  11
ENDBRANCH   1   9
BRANCH   5  20
ATOM     20  O   UNL     1       2.727   6.600  20.375  0.00  0.00    +0.000 OA
BRANCH  20  21
ATOM     21  C   UNL     1       1.431   7.132  20.620  0.00  0.00    +0.000 C 
BRANCH  21  22
ATOM     22  C   UNL     1       1.323   8.614  20.247  0.00  0.00    +0.000 C 
ATOM     23  O   UNL     1       1.407   8.959  19.058  0.00  0.00    +0.000 OA
ATOM     24  N   UNL     1       1.072   9.511  21.257  0.00  0.00    +0.000 N 
ATOM     25  C   UNL     1       0.983   9.212  22.693  0.00  0.00    +0.000 C 
ATOM     26  C   UNL     1      -0.318   9.776  23.279  0.00  0.00    +0.000 C 
ATOM     27  O   UNL     1      -0.465  11.172  22.978  0.00  0.00    +0.000 OA
ATOM     28  C   UNL     1      -0.444  11.400  21.557  0.00  0.00    +0.000 C 
ATOM     29  C   UNL     1       0.876  10.926  20.945  0.00  0.00    +0.000 C 
ENDBRANCH  21  22
ENDBRANCH  20  21
ENDBRANCH   5  20
TORSDOF 6
ENDMDL
MODEL 4
REMARK VINA RESULT:      -7.5      2.811      8.849
REMARK  Name = 
REMARK  6 active torsions:
REMARK  status: ('A' for Active; 'I' for Inactive)
REMARK    1  A    between atoms: C_2  and  C_20
REMARK    2  A    between atoms: N_3  and  C_4
REMARK    3  A    between atoms: C_8  and  O_9
REMARK    4  A    between atoms: O_9  and  C_10
REMARK    5  A    between atoms: C_10  and  C_11
REMARK    6  A    between atoms: C_24  and  N_25
REMARK                            x       y       z     vdW  Elec       q    Type
REMARK                         _______ _______ _______ _____ _____    ______ ____
ROOT
ATOM      1  C   UNL     1       1.544   8.195  20.325  0.00  0.00    +0.000 A 
ATOM      2  C   UNL     1       0.946   8.042  21.579  0.00  0.00    +0.000 A 
ATOM      3  C   UNL     1       0.259   9.090  22.172  0.00  0.00    +0.000 A 
ATOM      4  C   UNL     1       0.152  10.311  21.511  0.00  0.00    +0.000 A 
ATOM      5  C   UNL     1       0.749  10.489  20.265  0.00  0.00    +0.000 A 
ATOM      6  C   UNL     1       1.453   9.435  19.675  0.00  0.00    +0.000 A 
ENDROOT
BRANCH   1   9
ATOM      7  O   UNL     1       2.871   8.224  17.739  0.00  0.00    +0.000 OA
ATOM      8  C   UNL     1       2.824   7.229  18.459  0.00  0.00    +0.000 C 
ATOM      9  N   UNL     1       2.230   7.134  19.704  0.00  0.00    +0.000 N 
ATOM     10  H   UNL     1       2.414   6.310  20.268  0.00  0.00    +0.000 HD
BRANCH   8  11
ATOM     11  C   UNL     1       3.526   6.038  17.952  0.00  0.00    +0.000 A 
ATOM     12  C   UNL     1       2.850   4.845  17.681  0.00  0.00    +0.000 A 
ATOM     13  C   UNL     1       3.538   3.783  17.092  0.00  0.00    +0.000 A 
ATOM     14  C   UNL     1       4.894   3.912  16.780  0.00  0.00    +0.000 A 
ATOM     15  C   UNL     1       5.566   5.111  17.060  0.00  0.00    +0.000 A 
ATOM     16  C   UNL     1       4.886   6.180  17.639  0.00  0.00    +0.000 A 
BRANCH  15  17
ATOM     17  N   UNL     1       6.983   5.262  16.719  0.00  0.00    +0.000 N 
ATOM     18  O   UNL     1       7.271   6.044  15.800  0.00  0.00    +0.000 OA
ATOM     19  O   UNL     1       7.809   4.598  17.360  0.00  0.00    +0.000 OA
ENDBRANCH  15  17
ENDBRANCH   8  11
ENDBRANCH   1   9
BRANCH   5  20
ATOM     20  O   UNL     1       0.560  11.727  19.705  0.00  0.00    +0.000 OA
BRANCH  20  21
ATOM     21  C   UNL     1      -0.191  11.737  18.497  0.00  0.00    +0.000 C 
BRANCH  21  22
ATOM     22  C   UNL     1      -1.702  11.799  18.744  0.00  0.00    +0.000 C 
ATOM     23  O   UNL     1      -2.150  12.520  19.649  0.00  0.00    +0.000 OA
ATOM     24  N   UNL     1      -2.518  11.088  17.898  0.00  0.00    +0.000 N 
ATOM     25  C   UNL     1      -2.090  10.187  16.819  0.00  0.00    +0.000 C 
ATOM     26  C   UNL     1      -2.791  10.553  15.504  0.00  0.00    +0.000 C 
ATOM     27  O   UNL     1      -4.217  10.607  15.670  0.00  0.00    +0.000 OA
ATOM     28  C   UNL     1      -4.584  11.557  16.686  0.00  0.00    +0.000 C 
ATOM     29  C   UNL     1      -3.970  11.180  18.037  0.00  0.00    +0.000 C 
ENDBRANCH  21  22
ENDBRANCH  20  21
ENDBRANCH   5  20
TORSDOF 6
ENDMDL
MODEL 5
REMARK VINA RESULT:      -7.5      2.477      9.148
REMARK  Name = 
REMARK  6 active torsions:
REMARK  status: ('A' for Active; 'I' for Inactive)
REMARK    1  A    between atoms: C_2  and  C_20
REMARK    2  A    between atoms: N_3  and  C_4
REMARK    3  A    between atoms: C_8  and  O_9
REMARK    4  A    between atoms: O_9  and  C_10
REMARK    5  A    between atoms: C_10  and  C_11
REMARK    6  A    between atoms: C_24  and  N_25
REMARK                            x       y       z     vdW  Elec       q    Type
REMARK                         _______ _______ _______ _____ _____    ______ ____
ROOT
ATOM      1  C   UNL     1       3.690   5.268  17.564  0.00  0.00    +0.000 A 
ATOM      2  C   UNL     1       3.418   4.159  18.368  0.00  0.00    +0.000 A 
ATOM      3  C   UNL     1       2.790   4.306  19.595  0.00  0.00    +0.000 A 
ATOM      4  C   UNL     1       2.413   5.573  20.033  0.00  0.00    +0.000 A 
ATOM      5  C   UNL     1       2.684   6.695  19.252  0.00  0.00    +0.000 A 
ATOM      6  C   UNL     1       3.331   6.545  18.022  0.00  0.00    +0.000 A 
ENDROOT
BRANCH   1   9
ATOM      7  O   UNL     1       6.444   4.505  17.032  0.00  0.00    +0.000 OA
ATOM      8  C   UNL     1       5.639   4.776  16.144  0.00  0.00    +0.000 C 
ATOM      9  N   UNL     1       4.313   5.132  16.309  0.00  0.00    +0.000 N 
ATOM     10  H   UNL     1       3.712   5.158  15.490  0.00  0.00    +0.000 HD
BRANCH   8  11
ATOM     11  C   UNL     1       6.140   4.652  14.765  0.00  0.00    +0.000 A 
ATOM     12  C   UNL     1       7.339   5.246  14.360  0.00  0.00    +0.000 A 
ATOM     13  C   UNL     1       7.828   5.001  13.077  0.00  0.00    +0.000 A 
ATOM     14  C   UNL     1       7.121   4.172  12.202  0.00  0.00    +0.000 A 
ATOM     15  C   UNL     1       5.917   3.585  12.613  0.00  0.00    +0.000 A 
ATOM     16  C   UNL     1       5.424   3.815  13.896  0.00  0.00    +0.000 A 
BRANCH  15  17
ATOM     17  N   UNL     1       5.178   2.699  11.709  0.00  0.00    +0.000 N 
ATOM     18  O   UNL     1       4.069   3.083  11.311  0.00  0.00    +0.000 OA
ATOM     19  O   UNL     1       5.699   1.618  11.400  0.00  0.00    +0.000 OA
ENDBRANCH  15  17
ENDBRANCH   8  11
ENDBRANCH   1   9
BRANCH   5  20
ATOM     20  O   UNL     1       2.251   7.885  19.780  0.00  0.00    +0.000 OA
BRANCH  20  21
ATOM     21  C   UNL     1       1.327   7.769  20.855  0.00  0.00    +0.000 C 
BRANCH  21  22
ATOM     22  C   UNL     1       1.107   9.098  21.587  0.00  0.00    +0.000 C 
ATOM     23  O   UNL     1       1.701   9.320  22.653  0.00  0.00    +0.000 OA
ATOM     24  N   UNL     1       0.293  10.029  20.989  0.00  0.00    +0.000 N 
ATOM     25  C   UNL     1      -0.474   9.856  19.749  0.00  0.00    +0.000 C 
ATOM     26  C   UNL     1      -0.192  11.008  18.776  0.00  0.00    +0.000 C 
ATOM     27  O   UNL     1      -0.401  12.284  19.402  0.00  0.00    +0.000 OA
ATOM     28  C   UNL     1       0.429  12.430  20.569  0.00  0.00    +0.000 C 
ATOM     29  C   UNL     1       0.117  11.345  21.602  0.00  0.00    +0.000 C 
ENDBRANCH  21  22
ENDBRANCH  20  21
ENDBRANCH   5  20
TORSDOF 6
ENDMDL
MODEL 6
REMARK VINA RESULT:      -7.4      1.333      2.393
REMARK  Name = 
REMARK  6 active torsions:
REMARK  status: ('A' for Active; 'I' for Inactive)
REMARK    1  A    between atoms: C_2  and  C_20
REMARK    2  A    between atoms: N_3  and  C_4
REMARK    3  A    between atoms: C_8  and  O_9
REMARK    4  A    between atoms: O_9  and  C_10
REMARK    5  A    between atoms: C_10  and  C_11
REMARK    6  A    between atoms: C_24  and  N_25
REMARK                            x       y       z     vdW  Elec       q    Type
REMARK                         _______ _______ _______ _____ _____    ______ ____
ROOT
ATOM      1  C   UNL     1       2.309   5.573  19.707  0.00  0.00    +0.000 A 
ATOM      2  C   UNL     1       2.558   4.592  20.670  0.00  0.00    +0.000 A 
ATOM      3  C   UNL     1       3.163   3.394  20.325  0.00  0.00    +0.000 A 
ATOM      4  C   UNL     1       3.539   3.162  19.005  0.00  0.00    +0.000 A 
ATOM      5  C   UNL     1       3.291   4.122  18.026  0.00  0.00    +0.000 A 
ATOM      6  C   UNL     1       2.668   5.324  18.373  0.00  0.00    +0.000 A 
ENDROOT
BRANCH   1   9
ATOM      7  O   UNL     1       2.637   8.129  18.362  0.00  0.00    +0.000 OA
ATOM      8  C   UNL     1       1.933   7.980  19.358  0.00  0.00    +0.000 C 
ATOM      9  N   UNL     1       1.711   6.802  20.047  0.00  0.00    +0.000 N 
ATOM     10  H   UNL     1       0.973   6.779  20.744  0.00  0.00    +0.000 HD
BRANCH   8  11
ATOM     11  C   UNL     1       1.216   9.180  19.821  0.00  0.00    +0.000 A 
ATOM     12  C   UNL     1       0.803  10.179  18.935  0.00  0.00    +0.000 A 
ATOM     13  C   UNL     1       0.025  11.237  19.406  0.00  0.00    +0.000 A 
ATOM     14  C   UNL     1      -0.333  11.299  20.755  0.00  0.00    +0.000 A 
ATOM     15  C   UNL     1       0.089  10.296  21.639  0.00  0.00    +0.000 A 
ATOM     16  C   UNL     1       0.858   9.230  21.177  0.00  0.00    +0.000 A 
BRANCH  15  17
ATOM     17  N   UNL     1      -0.298  10.342  23.051  0.00  0.00    +0.000 N 
ATOM     18  O   UNL     1      -1.232  11.095  23.364  0.00  0.00    +0.000 OA
ATOM     19  O   UNL     1       0.332   9.635  23.850  0.00  0.00    +0.000 OA
ENDBRANCH  15  17
ENDBRANCH   8  11
ENDBRANCH   1   9
BRANCH   5  20
ATOM     20  O   UNL     1       3.720   3.788  16.767  0.00  0.00    +0.000 OA
BRANCH  20  21
ATOM     21  C   UNL     1       5.132   3.718  16.608  0.00  0.00    +0.000 C 
BRANCH  21  22
ATOM     22  C   UNL     1       5.742   5.052  16.164  0.00  0.00    +0.000 C 
ATOM     23  O   UNL     1       5.207   5.702  15.252  0.00  0.00    +0.000 OA
ATOM     24  N   UNL     1       6.840   5.512  16.849  0.00  0.00    +0.000 N 
ATOM     25  C   UNL     1       7.562   4.811  17.919  0.00  0.00    +0.000 C 
ATOM     26  C   UNL     1       7.714   5.718  19.148  0.00  0.00    +0.000 C 
ATOM     27  O   UNL     1       8.301   6.981  18.796  0.00  0.00    +0.000 OA
ATOM     28  C   UNL     1       7.515   7.657  17.798  0.00  0.00    +0.000 C 
ATOM     29  C   UNL     1       7.410   6.818  16.522  0.00  0.00    +0.000 C 
ENDBRANCH  21  22
ENDBRANCH  20  21
ENDBRANCH   5  20
TORSDOF 6
ENDMDL
MODEL 7
REMARK VINA RESULT:      -7.4      5.180      7.868
REMARK  Name = 
REMARK  6 active torsions:
REMARK  status: ('A' for Active; 'I' for Inactive)
REMARK    1  A    between atoms: C_2  and  C_20
REMARK    2  A    between atoms: N_3  and  C_4
REMARK    3  A    between atoms: C_8  and  O_9
REMARK    4  A    between atoms: O_9  and  C_10
REMARK    5  A    between atoms: C_10  and  C_11
REMARK    6  A    between atoms: C_24  and  N_25
REMARK                            x       y       z     vdW  Elec       q    Type
REMARK                         _______ _______ _______ _____ _____    ______ ____
ROOT
ATOM      1  C   UNL     1       7.831   8.173  17.829  0.00  0.00    +0.000 A 
ATOM      2  C   UNL     1       8.361   7.208  18.689  0.00  0.00    +0.000 A 
ATOM      3  C   UNL     1       7.731   5.986  18.861  0.00  0.00    +0.000 A 
ATOM      4  C   UNL     1       6.560   5.705  18.163  0.00  0.00    +0.000 A 
ATOM      5  C   UNL     1       6.007   6.656  17.307  0.00  0.00    +0.000 A 
ATOM      6  C   UNL     1       6.636   7.894  17.147  0.00  0.00    +0.000 A 
ENDROOT
BRANCH   1   9
ATOM      7  O   UNL     1       8.983   9.909  19.856  0.00  0.00    +0.000 OA
ATOM      8  C   UNL     1       8.979  10.185  18.658  0.00  0.00    +0.000 C 
ATOM      9  N   UNL     1       8.468   9.413  17.632  0.00  0.00    +0.000 N 
ATOM     10  H   UNL     1       8.685   9.674  16.674  0.00  0.00    +0.000 HD
BRANCH   8  11
ATOM     11  C   UNL     1       9.639  11.449  18.290  0.00  0.00    +0.000 A 
ATOM     12  C   UNL     1      10.959  11.484  17.831  0.00  0.00    +0.000 A 
ATOM     13  C   UNL     1      11.499  12.691  17.384  0.00  0.00    +0.000 A 
ATOM     14  C   UNL     1      10.728  13.855  17.402  0.00  0.00    +0.000 A 
ATOM     15  C   UNL     1       9.407  13.813  17.870  0.00  0.00    +0.000 A 
ATOM     16  C   UNL     1       8.854  12.611  18.309  0.00  0.00    +0.000 A 
BRANCH  15  17
ATOM     17  N   UNL     1       8.583  15.025  17.874  0.00  0.00    +0.000 N 
ATOM     18  O   UNL     1       7.377  14.896  18.128  0.00  0.00    +0.000 OA
ATOM     19  O   UNL     1       9.136  16.104  17.619  0.00  0.00    +0.000 OA
ENDBRANCH  15  17
ENDBRANCH   8  11
ENDBRANCH   1   9
BRANCH   5  20
ATOM     20  O   UNL     1       4.864   6.259  16.663  0.00  0.00    +0.000 OA
BRANCH  20  21
ATOM     21  C   UNL     1       4.190   5.153  17.251  0.00  0.00    +0.000 C 
BRANCH  21  22
ATOM     22  C   UNL     1       3.144   5.582  18.284  0.00  0.00    +0.000 C 
ATOM     23  O   UNL     1       2.522   6.644  18.128  0.00  0.00    +0.000 OA
ATOM     24  N   UNL     1       2.890   4.727  19.329  0.00  0.00    +0.000 N 
ATOM     25  C   UNL     1       3.586   3.466  19.620  0.00  0.00    +0.000 C 
ATOM     26  C   UNL     1       2.577   2.325  19.805  0.00  0.00    +0.000 C 
ATOM     27  O   UNL     1       1.579   2.664  20.781  0.00  0.00    +0.000 OA
ATOM     28  C   UNL     1       0.878   3.865  20.410  0.00  0.00    +0.000 C 
ATOM     29  C   UNL     1       1.842   5.048  20.297  0.00  0.00    +0.000 C 
ENDBRANCH  21  22
ENDBRANCH  20  21
ENDBRANCH   5  20
TORSDOF 6
ENDMDL
MODEL 8
REMARK VINA RESULT:      -7.4      3.073      8.778
REMARK  Name = 
REMARK  6 active torsions:
REMARK  status: ('A' for Active; 'I' for Inactive)
REMARK    1  A    between atoms: C_2  and  C_20
REMARK    2  A    between atoms: N_3  and  C_4
REMARK    3  A    between atoms: C_8  and  O_9
REMARK    4  A    between atoms: O_9  and  C_10
REMARK    5  A    between atoms: C_10  and  C_11
REMARK    6  A    between atoms: C_24  and  N_25
REMARK                            x       y       z     vdW  Elec       q    Type
REMARK                         _______ _______ _______ _____ _____    ______ ____
ROOT
ATOM      1  C   UNL     1       1.140   8.847  20.664  0.00  0.00    +0.000 A 
ATOM      2  C   UNL     1       0.647   8.566  21.940  0.00  0.00    +0.000 A 
ATOM      3  C   UNL     1      -0.070   9.515  22.651  0.00  0.00    +0.000 A 
ATOM      4  C   UNL     1      -0.315  10.764  22.087  0.00  0.00    +0.000 A 
ATOM      5  C   UNL     1       0.175  11.070  20.820  0.00  0.00    +0.000 A 
ATOM      6  C   UNL     1       0.911  10.117  20.110  0.00  0.00    +0.000 A 
ENDROOT
BRANCH   1   9
ATOM      7  O   UNL     1       1.917   8.992  17.866  0.00  0.00    +0.000 OA
ATOM      8  C   UNL     1       2.173   8.030  18.585  0.00  0.00    +0.000 C 
ATOM      9  N   UNL     1       1.856   7.887  19.923  0.00  0.00    +0.000 N 
ATOM     10  H   UNL     1       2.277   7.123  20.444  0.00  0.00    +0.000 HD
BRANCH   8  11
ATOM     11  C   UNL     1       2.947   6.947  17.955  0.00  0.00    +0.000 A 
ATOM     12  C   UNL     1       4.157   7.193  17.299  0.00  0.00    +0.000 A 
ATOM     13  C   UNL     1       4.910   6.119  16.821  0.00  0.00    +0.000 A 
ATOM     14  C   UNL     1       4.453   4.810  16.992  0.00  0.00    +0.000 A 
ATOM     15  C   UNL     1       3.236   4.573  17.646  0.00  0.00    +0.000 A 
ATOM     16  C   UNL     1       2.482   5.636  18.135  0.00  0.00    +0.000 A 
BRANCH  15  17
ATOM     17  N   UNL     1       2.759   3.202  17.847  0.00  0.00    +0.000 N 
ATOM     18  O   UNL     1       3.586   2.356  18.219  0.00  0.00    +0.000 OA
ATOM     19  O   UNL     1       1.563   2.965  17.627  0.00  0.00    +0.000 OA
ENDBRANCH  15  17
ENDBRANCH   8  11
ENDBRANCH   1   9
BRANCH   5  20
ATOM     20  O   UNL     1      -0.145  12.324  20.363  0.00  0.00    +0.000 OA
BRANCH  20  21
ATOM     21  C   UNL     1      -0.755  12.363  19.079  0.00  0.00    +0.000 C 
BRANCH  21  22
ATOM     22  C   UNL     1      -2.271  12.147  19.142  0.00  0.00    +0.000 C 
ATOM     23  O   UNL     1      -2.943  12.735  20.003  0.00  0.00    +0.000 OA
ATOM     24  N   UNL     1      -2.842  11.343  18.186  0.00  0.00    +0.000 N 
ATOM     25  C   UNL     1      -2.137  10.582  17.145  0.00  0.00    +0.000 C 
ATOM     26  C   UNL     1      -2.736  10.878  15.764  0.00  0.00    +0.000 C 
ATOM     27  O   UNL     1      -4.158  10.673  15.756  0.00  0.00    +0.000 OA
ATOM     28  C   UNL     1      -4.805  11.496  16.743  0.00  0.00    +0.000 C 
ATOM     29  C   UNL     1      -4.294  11.171  18.148  0.00  0.00    +0.000 C 
ENDBRANCH  21  22
ENDBRANCH  20  21
ENDBRANCH   5  20
TORSDOF 6
ENDMDL
MODEL 9
REMARK VINA RESULT:      -7.4      1.468      2.280
REMARK  Name = 
REMARK  6 active torsions:
REMARK  status: ('A' for Active; 'I' for Inactive)
REMARK    1  A    between atoms: C_2  and  C_20
REMARK    2  A    between atoms: N_3  and  C_4
REMARK    3  A    between atoms: C_8  and  O_9
REMARK    4  A    between atoms: O_9  and  C_10
REMARK    5  A    between atoms: C_10  and  C_11
REMARK    6  A    between atoms: C_24  and  N_25
REMARK                            x       y       z     vdW  Elec       q    Type
REMARK                         _______ _______ _______ _____ _____    ______ ____
ROOT
ATOM      1  C   UNL     1       2.027   5.430  20.384  0.00  0.00    +0.000 A 
ATOM      2  C   UNL     1       1.134   4.378  20.600  0.00  0.00    +0.000 A 
ATOM      3  C   UNL     1       1.528   3.062  20.413  0.00  0.00    +0.000 A 
ATOM      4  C   UNL     1       2.831   2.778  20.014  0.00  0.00    +0.000 A 
ATOM      5  C   UNL     1       3.735   3.812  19.783  0.00  0.00    +0.000 A 
ATOM      6  C   UNL     1       3.332   5.139  19.958  0.00  0.00    +0.000 A 
ENDROOT
BRANCH   1   9
ATOM      7  O   UNL     1       2.073   7.593  18.442  0.00  0.00    +0.000 OA
ATOM      8  C   UNL     1       1.713   7.744  19.607  0.00  0.00    +0.000 C 
ATOM      9  N   UNL     1       1.646   6.771  20.587  0.00  0.00    +0.000 N 
ATOM     10  H   UNL     1       1.167   6.988  21.455  0.00  0.00    +0.000 HD
BRANCH   8  11
ATOM     11  C   UNL     1       1.256   9.098  19.965  0.00  0.00    +0.000 A 
ATOM     12  C   UNL     1       1.279  10.150  19.046  0.00  0.00    +0.000 A 
ATOM     13  C   UNL     1       0.728  11.382  19.398  0.00  0.00    +0.000 A 
ATOM     14  C   UNL     1       0.162  11.563  20.663  0.00  0.00    +0.000 A 
ATOM     15  C   UNL     1       0.148  10.504  21.581  0.00  0.00    +0.000 A 
ATOM     16  C   UNL     1       0.687   9.266  21.236  0.00  0.00    +0.000 A 
BRANCH  15  17
ATOM     17  N   UNL     1      -0.460  10.678  22.903  0.00  0.00    +0.000 N 
ATOM     18  O   UNL     1      -1.343  11.541  23.017  0.00  0.00    +0.000 OA
ATOM     19  O   UNL     1      -0.055   9.961  23.829  0.00  0.00    +0.000 OA
ENDBRANCH  15  17
ENDBRANCH   8  11
ENDBRANCH   1   9
BRANCH   5  20
ATOM     20  O   UNL     1       4.992   3.409  19.411  0.00  0.00    +0.000 OA
BRANCH  20  21
ATOM     21  C   UNL     1       5.137   3.069  18.037  0.00  0.00    +0.000 C 
BRANCH  21  22
ATOM     22  C   UNL     1       5.288   4.302  17.139  0.00  0.00    +0.000 C 
ATOM     23  O   UNL     1       4.376   4.613  16.359  0.00  0.00    +0.000 OA
ATOM     24  N   UNL     1       6.425   5.060  17.282  0.00  0.00    +0.000 N 
ATOM     25  C   UNL     1       7.571   4.766  18.152  0.00  0.00    +0.000 C 
ATOM     26  C   UNL     1       7.905   5.980  19.031  0.00  0.00    +0.000 C 
ATOM     27  O   UNL     1       8.079   7.166  18.240  0.00  0.00    +0.000 OA
ATOM     28  C   UNL     1       6.900   7.448  17.464  0.00  0.00    +0.000 C 
ATOM     29  C   UNL     1       6.581   6.293  16.512  0.00  0.00    +0.000 C 
ENDBRANCH  21  22
ENDBRANCH  20  21
ENDBRANCH   5  20
TORSDOF 6
ENDMDL
