MODEL 1
REMARK VINA RESULT:      -7.4      0.000      0.000
REMARK  Name = 
REMARK  10 active torsions:
REMARK  status: ('A' for Active; 'I' for Inactive)
REMARK    1  A    between atoms: C_1  and  O_2
REMARK    2  A    between atoms: O_2  and  C_3
REMARK    3  A    between atoms: C_6  and  C_7
REMARK    4  A    between atoms: C_9  and  C_10
REMARK    5  A    between atoms: C_10  and  S_11
REMARK    6  A    between atoms: S_11  and  C_12
REMARK    7  A    between atoms: C_17  and  N_18
REMARK    8  A    between atoms: C_23  and  O_24
REMARK    9  A    between atoms: O_24  and  C_25
REMARK   10  A    between atoms: C_25  and  C_26
REMARK                            x       y       z     vdW  Elec       q    Type
REMARK                         _______ _______ _______ _____ _____    ______ ____
ROOT
ATOM      1  C   UNL     1       3.251   6.175  18.113  0.00  0.00    +0.000 A 
ATOM      2  N   UNL     1       3.851   6.054  16.943  0.00  0.00    +0.000 NA
ATOM      3  C   UNL     1       4.462   4.806  16.816  0.00  0.00    +0.000 A 
ATOM      4  C   UNL     1       4.322   3.996  17.927  0.00  0.00    +0.000 A 
ATOM      5  S   UNL     1       3.378   4.770  19.112  0.00  0.00    +0.000 S 
ENDROOT
BRANCH   1   9
ATOM      6  C   UNL     1       1.133   9.684  19.515  0.00  0.00    +0.000 A 
ATOM      7  C   UNL     1       1.613   9.612  18.206  0.00  0.00    +0.000 A 
ATOM      8  C   UNL     1       2.329   8.499  17.757  0.00  0.00    +0.000 A 
ATOM      9  C   UNL     1       2.557   7.396  18.587  0.00  0.00    +0.000 A 
ATOM     10  C   UNL     1       2.063   7.467  19.900  0.00  0.00    +0.000 A 
ATOM     11  C   UNL     1       1.352   8.591  20.375  0.00  0.00    +0.000 A 
BRANCH   6  13
ATOM     12  C   UNL     1      -0.772  11.168  19.392  0.00  0.00    +0.000 C 
ATOM     13  O   UNL     1       0.451  10.767  19.992  0.00  0.00    +0.000 OA
ENDBRANCH   6  13
BRANCH  11  14
ATOM     14  O   UNL     1       0.952   8.447  21.686  0.00  0.00    +0.000 OA
BRANCH  14  15
ATOM     15  C   UNL     1      -0.445   8.449  21.977  0.00  0.00    +0.000 C 
BRANCH  15  16
ATOM     16  C   UNL     1      -0.739   9.411  23.114  0.00  0.00    +0.000 C 
ATOM     17  F   UNL     1       0.422  10.004  23.510  0.00  0.00    +0.000 F 
ENDBRANCH  15  16
ENDBRANCH  14  15
ENDBRANCH  11  14
ENDBRANCH   1   9
BRANCH   3  18
ATOM     18  C   UNL     1       5.226   4.508  15.559  0.00  0.00    +0.000 C 
BRANCH  18  19
ATOM     19  S   UNL     1       6.928   3.950  15.885  0.00  0.00    +0.000 S 
BRANCH  19  20
ATOM     20  C   UNL     1       7.392   5.165  17.092  0.00  0.00    +0.000 A 
ATOM     21  N   UNL     1       7.381   6.443  16.695  0.00  0.00    +0.000 NA
ATOM     22  C   UNL     1       7.712   7.354  17.606  0.00  0.00    +0.000 A 
ATOM     23  N   UNL     1       7.745   8.685  17.192  0.00  0.00    +0.000 N 
ATOM     24  C   UNL     1       8.085   7.018  18.889  0.00  0.00    +0.000 A 
ATOM     25  C   UNL     1       8.076   5.677  19.199  0.00  0.00    +0.000 A 
ATOM     26  N   UNL     1       7.727   4.738  18.318  0.00  0.00    +0.000 NA
ATOM     27  H   UNL     1       7.384   8.720  16.238  0.00  0.00    +0.000 HD
ATOM     28  H   UNL     1       7.229   9.296  17.814  0.00  0.00    +0.000 HD
BRANCH  25  29
ATOM     29  N   UNL     1       8.405   5.246  20.481  0.00  0.00    +0.000 N 
ATOM     30  H   UNL     1       7.591   4.947  21.005  0.00  0.00    +0.000 HD
ATOM     31  H   UNL     1       8.901   5.998  20.948  0.00  0.00    +0.000 HD
ENDBRANCH  25  29
ENDBRANCH  19  20
ENDBRANCH  18  19
ENDBRANCH   3  18
TORSDOF 9
ENDMDL
MODEL 2
REMARK VINA RESULT:      -7.4      2.393      3.457
REMARK  Name = 
REMARK  10 active torsions:
REMARK  status: ('A' for Active; 'I' for Inactive)
REMARK    1  A    between atoms: C_1  and  O_2
REMARK    2  A    between atoms: O_2  and  C_3
REMARK    3  A    between atoms: C_6  and  C_7
REMARK    4  A    between atoms: C_9  and  C_10
REMARK    5  A    between atoms: C_10  and  S_11
REMARK    6  A    between atoms: S_11  and  C_12
REMARK    7  A    between atoms: C_17  and  N_18
REMARK    8  A    between atoms: C_23  and  O_24
REMARK    9  A    between atoms: O_24  and  C_25
REMARK   10  A    between atoms: C_25  and  C_26
REMARK                            x       y       z     vdW  Elec       q    Type
REMARK                         _______ _______ _______ _____ _____    ______ ____
ROOT
ATOM      1  C   UNL     1       2.683   5.594  18.096  0.00  0.00    +0.000 A 
ATOM      2  N   UNL     1       3.832   5.300  17.515  0.00  0.00    +0.000 NA
ATOM      3  C   UNL     1       3.944   3.929  17.281  0.00  0.00    +0.000 A 
ATOM      4  C   UNL     1       2.857   3.194  17.716  0.00  0.00    +0.000 A 
ATOM      5  S   UNL     1       1.666   4.222  18.367  0.00  0.00    +0.000 S 
ENDROOT
BRANCH   1   9
ATOM      6  C   UNL     1       1.394   9.521  19.394  0.00  0.00    +0.000 A 
ATOM      7  C   UNL     1       1.739   9.283  18.061  0.00  0.00    +0.000 A 
ATOM      8  C   UNL     1       2.190   8.028  17.642  0.00  0.00    +0.000 A 
ATOM      9  C   UNL     1       2.275   6.950  18.530  0.00  0.00    +0.000 A 
ATOM     10  C   UNL     1       1.918   7.190  19.868  0.00  0.00    +0.000 A 
ATOM     11  C   UNL     1       1.476   8.456  20.311  0.00  0.00    +0.000 A 
BRANCH   6  13
ATOM     12  C   UNL     1      -0.132  11.388  19.227  0.00  0.00    +0.000 C 
ATOM     13  O   UNL     1       0.973  10.740  19.840  0.00  0.00    +0.000 OA
ENDBRANCH   6  13
BRANCH  11  14
ATOM     14  O   UNL     1       1.170   8.467  21.655  0.00  0.00    +0.000 OA
BRANCH  14  15
ATOM     15  C   UNL     1      -0.172   8.757  22.046  0.00  0.00    +0.000 C 
BRANCH  15  16
ATOM     16  C   UNL     1      -0.175   9.686  23.246  0.00  0.00    +0.000 C 
ATOM     17  F   UNL     1      -1.417  10.227  23.392  0.00  0.00    +0.000 F 
ENDBRANCH  15  16
ENDBRANCH  14  15
ENDBRANCH  11  14
ENDBRANCH   1   9
BRANCH   3  18
ATOM     18  C   UNL     1       5.207   3.410  16.659  0.00  0.00    +0.000 C 
BRANCH  18  19
ATOM     19  S   UNL     1       6.504   4.682  16.536  0.00  0.00    +0.000 S 
BRANCH  19  20
ATOM     20  C   UNL     1       6.811   4.597  14.791  0.00  0.00    +0.000 A 
ATOM     21  N   UNL     1       6.158   3.648  14.110  0.00  0.00    +0.000 NA
ATOM     22  C   UNL     1       6.377   3.597  12.798  0.00  0.00    +0.000 A 
ATOM     23  N   UNL     1       5.735   2.585  12.086  0.00  0.00    +0.000 N 
ATOM     24  C   UNL     1       7.251   4.447  12.159  0.00  0.00    +0.000 A 
ATOM     25  C   UNL     1       7.883   5.383  12.946  0.00  0.00    +0.000 A 
ATOM     26  N   UNL     1       7.671   5.478  14.259  0.00  0.00    +0.000 NA
ATOM     27  H   UNL     1       5.099   2.112  12.727  0.00  0.00    +0.000 HD
ATOM     28  H   UNL     1       5.254   2.935  11.265  0.00  0.00    +0.000 HD
BRANCH  25  29
ATOM     29  N   UNL     1       8.758   6.307  12.381  0.00  0.00    +0.000 N 
ATOM     30  H   UNL     1       8.290   7.165  12.115  0.00  0.00    +0.000 HD
ATOM     31  H   UNL     1       9.217   5.864  11.591  0.00  0.00    +0.000 HD
ENDBRANCH  25  29
ENDBRANCH  19  20
ENDBRANCH  18  19
ENDBRANCH   3  18
TORSDOF 9
ENDMDL
MODEL 3
REMARK VINA RESULT:      -7.3      0.832      1.820
REMARK  Name = 
REMARK  10 active torsions:
REMARK  status: ('A' for Active; 'I' for Inactive)
REMARK    1  A    between atoms: C_1  and  O_2
REMARK    2  A    between atoms: O_2  and  C_3
REMARK    3  A    between atoms: C_6  and  C_7
REMARK    4  A    between atoms: C_9  and  C_10
REMARK    5  A    between atoms: C_10  and  S_11
REMARK    6  A    between atoms: S_11  and  C_12
REMARK    7  A    between atoms: C_17  and  N_18
REMARK    8  A    between atoms: C_23  and  O_24
REMARK    9  A    between atoms: O_24  and  C_25
REMARK   10  A    between atoms: C_25  and  C_26
REMARK                            x       y       z     vdW  Elec       q    Type
REMARK                         _______ _______ _______ _____ _____    ______ ____
ROOT
ATOM      1  C   UNL     1       2.617   5.761  18.021  0.00  0.00    +0.000 A 
ATOM      2  N   UNL     1       3.851   5.381  17.742  0.00  0.00    +0.000 NA
ATOM      3  C   UNL     1       3.900   4.027  17.410  0.00  0.00    +0.000 A 
ATOM      4  C   UNL     1       2.674   3.391  17.464  0.00  0.00    +0.000 A 
ATOM      5  S   UNL     1       1.447   4.497  17.872  0.00  0.00    +0.000 S 
ENDROOT
BRANCH   1   9
ATOM      6  C   UNL     1       1.382   9.698  19.342  0.00  0.00    +0.000 A 
ATOM      7  C   UNL     1       1.739   9.467  18.011  0.00  0.00    +0.000 A 
ATOM      8  C   UNL     1       2.173   8.208  17.585  0.00  0.00    +0.000 A 
ATOM      9  C   UNL     1       2.228   7.120  18.463  0.00  0.00    +0.000 A 
ATOM     10  C   UNL     1       1.859   7.353  19.799  0.00  0.00    +0.000 A 
ATOM     11  C   UNL     1       1.434   8.623  20.250  0.00  0.00    +0.000 A 
BRANCH   6  13
ATOM     12  C   UNL     1       0.476  11.893  18.890  0.00  0.00    +0.000 C 
ATOM     13  O   UNL     1       0.977  10.920  19.795  0.00  0.00    +0.000 OA
ENDBRANCH   6  13
BRANCH  11  14
ATOM     14  O   UNL     1       1.112   8.626  21.589  0.00  0.00    +0.000 OA
BRANCH  14  15
ATOM     15  C   UNL     1      -0.259   8.479  21.962  0.00  0.00    +0.000 C 
BRANCH  15  16
ATOM     16  C   UNL     1      -0.665   9.599  22.902  0.00  0.00    +0.000 C 
ATOM     17  F   UNL     1       0.190  10.648  22.746  0.00  0.00    +0.000 F 
ENDBRANCH  15  16
ENDBRANCH  14  15
ENDBRANCH  11  14
ENDBRANCH   1   9
BRANCH   3  18
ATOM     18  C   UNL     1       5.235   3.415  17.100  0.00  0.00    +0.000 C 
BRANCH  18  19
ATOM     19  S   UNL     1       6.212   4.412  15.933  0.00  0.00    +0.000 S 
BRANCH  19  20
ATOM     20  C   UNL     1       7.000   5.502  17.090  0.00  0.00    +0.000 A 
ATOM     21  N   UNL     1       7.398   4.964  18.248  0.00  0.00    +0.000 NA
ATOM     22  C   UNL     1       8.004   5.779  19.108  0.00  0.00    +0.000 A 
ATOM     23  N   UNL     1       8.386   5.239  20.335  0.00  0.00    +0.000 N 
ATOM     24  C   UNL     1       8.192   7.119  18.852  0.00  0.00    +0.000 A 
ATOM     25  C   UNL     1       7.738   7.582  17.638  0.00  0.00    +0.000 A 
ATOM     26  N   UNL     1       7.147   6.789  16.743  0.00  0.00    +0.000 NA
ATOM     27  H   UNL     1       8.211   4.235  20.298  0.00  0.00    +0.000 HD
ATOM     28  H   UNL     1       9.350   5.447  20.567  0.00  0.00    +0.000 HD
BRANCH  25  29
ATOM     29  N   UNL     1       7.915   8.915  17.278  0.00  0.00    +0.000 N 
ATOM     30  H   UNL     1       8.659   9.033  16.601  0.00  0.00    +0.000 HD
ATOM     31  H   UNL     1       8.084   9.449  18.124  0.00  0.00    +0.000 HD
ENDBRANCH  25  29
ENDBRANCH  19  20
ENDBRANCH  18  19
ENDBRANCH   3  18
TORSDOF 9
ENDMDL
MODEL 4
REMARK VINA RESULT:      -7.2      2.490      4.151
REMARK  Name = 
REMARK  10 active torsions:
REMARK  status: ('A' for Active; 'I' for Inactive)
REMARK    1  A    between atoms: C_1  and  O_2
REMARK    2  A    between atoms: O_2  and  C_3
REMARK    3  A    between atoms: C_6  and  C_7
REMARK    4  A    between atoms: C_9  and  C_10
REMARK    5  A    between atoms: C_10  and  S_11
REMARK    6  A    between atoms: S_11  and  C_12
REMARK    7  A    between atoms: C_17  and  N_18
REMARK    8  A    between atoms: C_23  and  O_24
REMARK    9  A    between atoms: O_24  and  C_25
REMARK   10  A    between atoms: C_25  and  C_26
REMARK                            x       y       z     vdW  Elec       q    Type
REMARK                         _______ _______ _______ _____ _____    ______ ____
ROOT
ATOM      1  C   UNL     1       1.522   8.163  20.036  0.00  0.00    +0.000 A 
ATOM      2  N   UNL     1       1.926   6.996  20.504  0.00  0.00    +0.000 NA
ATOM      3  C   UNL     1       2.674   6.301  19.553  0.00  0.00    +0.000 A 
ATOM      4  C   UNL     1       2.808   6.967  18.349  0.00  0.00    +0.000 A 
ATOM      5  S   UNL     1       2.048   8.488  18.421  0.00  0.00    +0.000 S 
ENDROOT
BRANCH   1   9
ATOM      6  C   UNL     1      -0.930  11.041  22.150  0.00  0.00    +0.000 A 
ATOM      7  C   UNL     1      -0.225  10.054  22.842  0.00  0.00    +0.000 A 
ATOM      8  C   UNL     1       0.539   9.100  22.165  0.00  0.00    +0.000 A 
ATOM      9  C   UNL     1       0.662   9.119  20.771  0.00  0.00    +0.000 A 
ATOM     10  C   UNL     1      -0.041  10.120  20.079  0.00  0.00    +0.000 A 
ATOM     11  C   UNL     1      -0.830  11.082  20.746  0.00  0.00    +0.000 A 
BRANCH   6  13
ATOM     12  C   UNL     1      -1.169  13.244  23.117  0.00  0.00    +0.000 C 
ATOM     13  O   UNL     1      -1.704  11.973  22.780  0.00  0.00    +0.000 OA
ENDBRANCH   6  13
BRANCH  11  14
ATOM     14  O   UNL     1      -1.422  11.973  19.878  0.00  0.00    +0.000 OA
BRANCH  14  15
ATOM     15  C   UNL     1      -1.188  11.819  18.478  0.00  0.00    +0.000 C 
BRANCH  15  16
ATOM     16  C   UNL     1      -2.499  11.566  17.756  0.00  0.00    +0.000 C 
ATOM     17  F   UNL     1      -2.259  11.450  16.420  0.00  0.00    +0.000 F 
ENDBRANCH  15  16
ENDBRANCH  14  15
ENDBRANCH  11  14
ENDBRANCH   1   9
BRANCH   3  18
ATOM     18  C   UNL     1       3.184   4.934  19.903  0.00  0.00    +0.000 C 
BRANCH  18  19
ATOM     19  S   UNL     1       3.619   3.948  18.436  0.00  0.00    +0.000 S 
BRANCH  19  20
ATOM     20  C   UNL     1       5.250   4.584  18.148  0.00  0.00    +0.000 A 
ATOM     21  N   UNL     1       6.011   4.801  19.227  0.00  0.00    +0.000 NA
ATOM     22  C   UNL     1       7.240   5.262  19.008  0.00  0.00    +0.000 A 
ATOM     23  N   UNL     1       8.027   5.532  20.127  0.00  0.00    +0.000 N 
ATOM     24  C   UNL     1       7.714   5.539  17.745  0.00  0.00    +0.000 A 
ATOM     25  C   UNL     1       6.853   5.294  16.700  0.00  0.00    +0.000 A 
ATOM     26  N   UNL     1       5.623   4.810  16.879  0.00  0.00    +0.000 NA
ATOM     27  H   UNL     1       7.517   5.206  20.948  0.00  0.00    +0.000 HD
ATOM     28  H   UNL     1       8.948   5.113  20.063  0.00  0.00    +0.000 HD
BRANCH  25  29
ATOM     29  N   UNL     1       7.257   5.511  15.385  0.00  0.00    +0.000 N 
ATOM     30  H   UNL     1       6.713   6.236  14.932  0.00  0.00    +0.000 HD
ATOM     31  H   UNL     1       7.200   4.628  14.888  0.00  0.00    +0.000 HD
ENDBRANCH  25  29
ENDBRANCH  19  20
ENDBRANCH  18  19
ENDBRANCH   3  18
TORSDOF 9
ENDMDL
MODEL 5
REMARK VINA RESULT:      -7.2      2.373      3.824
REMARK  Name = 
REMARK  10 active torsions:
REMARK  status: ('A' for Active; 'I' for Inactive)
REMARK    1  A    between atoms: C_1  and  O_2
REMARK    2  A    between atoms: O_2  and  C_3
REMARK    3  A    between atoms: C_6  and  C_7
REMARK    4  A    between atoms: C_9  and  C_10
REMARK    5  A    between atoms: C_10  and  S_11
REMARK    6  A    between atoms: S_11  and  C_12
REMARK    7  A    between atoms: C_17  and  N_18
REMARK    8  A    between atoms: C_23  and  O_24
REMARK    9  A    between atoms: O_24  and  C_25
REMARK   10  A    between atoms: C_25  and  C_26
REMARK                            x       y       z     vdW  Elec       q    Type
REMARK                         _______ _______ _______ _____ _____    ______ ____
ROOT
ATOM      1  C   UNL     1       1.548   8.133  19.985  0.00  0.00    +0.000 A 
ATOM      2  N   UNL     1       1.931   6.971  20.484  0.00  0.00    +0.000 NA
ATOM      3  C   UNL     1       2.699   6.255  19.566  0.00  0.00    +0.000 A 
ATOM      4  C   UNL     1       2.871   6.899  18.355  0.00  0.00    +0.000 A 
ATOM      5  S   UNL     1       2.122   8.427  18.381  0.00  0.00    +0.000 S 
ENDROOT
BRANCH   1   9
ATOM      6  C   UNL     1      -0.935  11.063  21.989  0.00  0.00    +0.000 A 
ATOM      7  C   UNL     1      -0.327  10.028  22.705  0.00  0.00    +0.000 A 
ATOM      8  C   UNL     1       0.446   9.058  22.060  0.00  0.00    +0.000 A 
ATOM      9  C   UNL     1       0.676   9.107  20.680  0.00  0.00    +0.000 A 
ATOM     10  C   UNL     1       0.071  10.156  19.966  0.00  0.00    +0.000 A 
ATOM     11  C   UNL     1      -0.726  11.135  20.599  0.00  0.00    +0.000 A 
BRANCH   6  13
ATOM     12  C   UNL     1      -1.135  13.205  23.091  0.00  0.00    +0.000 C 
ATOM     13  O   UNL     1      -1.715  12.011  22.585  0.00  0.00    +0.000 OA
ENDBRANCH   6  13
BRANCH  11  14
ATOM     14  O   UNL     1      -1.211  12.073  19.714  0.00  0.00    +0.000 OA
BRANCH  14  15
ATOM     15  C   UNL     1      -2.473  11.834  19.091  0.00  0.00    +0.000 C 
BRANCH  15  16
ATOM     16  C   UNL     1      -2.276  11.515  17.621  0.00  0.00    +0.000 C 
ATOM     17  F   UNL     1      -2.477  10.183  17.420  0.00  0.00    +0.000 F 
ENDBRANCH  15  16
ENDBRANCH  14  15
ENDBRANCH  11  14
ENDBRANCH   1   9
BRANCH   3  18
ATOM     18  C   UNL     1       3.189   4.891  19.953  0.00  0.00    +0.000 C 
BRANCH  18  19
ATOM     19  S   UNL     1       3.701   3.894  18.518  0.00  0.00    +0.000 S 
BRANCH  19  20
ATOM     20  C   UNL     1       5.311   4.589  18.256  0.00  0.00    +0.000 A 
ATOM     21  N   UNL     1       5.647   4.871  16.992  0.00  0.00    +0.000 NA
ATOM     22  C   UNL     1       6.849   5.409  16.800  0.00  0.00    +0.000 A 
ATOM     23  N   UNL     1       7.227   5.668  15.483  0.00  0.00    +0.000 N 
ATOM     24  C   UNL     1       7.732   5.641  17.832  0.00  0.00    +0.000 A 
ATOM     25  C   UNL     1       7.299   5.307  19.095  0.00  0.00    +0.000 A 
ATOM     26  N   UNL     1       6.093   4.788  19.328  0.00  0.00    +0.000 NA
ATOM     27  H   UNL     1       6.419   5.482  14.888  0.00  0.00    +0.000 HD
ATOM     28  H   UNL     1       7.578   6.611  15.359  0.00  0.00    +0.000 HD
BRANCH  25  29
ATOM     29  N   UNL     1       8.109   5.538  20.203  0.00  0.00    +0.000 N 
ATOM     30  H   UNL     1       9.094   5.448  19.984  0.00  0.00    +0.000 HD
ATOM     31  H   UNL     1       7.824   4.899  20.939  0.00  0.00    +0.000 HD
ENDBRANCH  25  29
ENDBRANCH  19  20
ENDBRANCH  18  19
ENDBRANCH   3  18
TORSDOF 9
ENDMDL
MODEL 6
REMARK VINA RESULT:      -7.2      1.048      1.096
REMARK  Name = 
REMARK  10 active torsions:
REMARK  status: ('A' for Active; 'I' for Inactive)
REMARK    1  A    between atoms: C_1  and  O_2
REMARK    2  A    between atoms: O_2  and  C_3
REMARK    3  A    between atoms: C_6  and  C_7
REMARK    4  A    between atoms: C_9  and  C_10
REMARK    5  A    between atoms: C_10  and  S_11
REMARK    6  A    between atoms: S_11  and  C_12
REMARK    7  A    between atoms: C_17  and  N_18
REMARK    8  A    between atoms: C_23  and  O_24
REMARK    9  A    between atoms: O_24  and  C_25
REMARK   10  A    between atoms: C_25  and  C_26
REMARK                            x       y       z     vdW  Elec       q    Type
REMARK                         _______ _______ _______ _____ _____    ______ ____
ROOT
ATOM      1  C   UNL     1       2.871   6.356  18.689  0.00  0.00    +0.000 A 
ATOM      2  N   UNL     1       3.589   5.941  17.660  0.00  0.00    +0.000 NA
ATOM      3  C   UNL     1       4.094   4.659  17.881  0.00  0.00    +0.000 A 
ATOM      4  C   UNL     1       3.753   4.126  19.110  0.00  0.00    +0.000 A 
ATOM      5  S   UNL     1       2.753   5.201  19.969  0.00  0.00    +0.000 S 
ENDROOT
BRANCH   1   9
ATOM      6  C   UNL     1       0.933  10.218  19.000  0.00  0.00    +0.000 A 
ATOM      7  C   UNL     1       1.785   9.927  17.933  0.00  0.00    +0.000 A 
ATOM      8  C   UNL     1       2.443   8.697  17.844  0.00  0.00    +0.000 A 
ATOM      9  C   UNL     1       2.242   7.693  18.798  0.00  0.00    +0.000 A 
ATOM     10  C   UNL     1       1.375   7.984  19.865  0.00  0.00    +0.000 A 
ATOM     11  C   UNL     1       0.716   9.228  19.978  0.00  0.00    +0.000 A 
BRANCH   6  13
ATOM     12  C   UNL     1      -1.036  11.579  18.659  0.00  0.00    +0.000 C 
ATOM     13  O   UNL     1       0.294  11.417  19.129  0.00  0.00    +0.000 OA
ENDBRANCH   6  13
BRANCH  11  14
ATOM     14  O   UNL     1      -0.092   9.297  21.093  0.00  0.00    +0.000 OA
BRANCH  14  15
ATOM     15  C   UNL     1       0.349  10.073  22.207  0.00  0.00    +0.000 C 
BRANCH  15  16
ATOM     16  C   UNL     1      -0.703  11.104  22.573  0.00  0.00    +0.000 C 
ATOM     17  F   UNL     1      -1.526  10.585  23.527  0.00  0.00    +0.000 F 
ENDBRANCH  15  16
ENDBRANCH  14  15
ENDBRANCH  11  14
ENDBRANCH   1   9
BRANCH   3  18
ATOM     18  C   UNL     1       4.967   4.043  16.828  0.00  0.00    +0.000 C 
BRANCH  18  19
ATOM     19  S   UNL     1       5.785   5.285  15.778  0.00  0.00    +0.000 S 
BRANCH  19  20
ATOM     20  C   UNL     1       6.786   6.075  17.011  0.00  0.00    +0.000 A 
ATOM     21  N   UNL     1       7.047   7.376  16.833  0.00  0.00    +0.000 NA
ATOM     22  C   UNL     1       7.783   7.971  17.768  0.00  0.00    +0.000 A 
ATOM     23  N   UNL     1       8.096   9.315  17.571  0.00  0.00    +0.000 N 
ATOM     24  C   UNL     1       8.290   7.293  18.855  0.00  0.00    +0.000 A 
ATOM     25  C   UNL     1       7.977   5.956  18.945  0.00  0.00    +0.000 A 
ATOM     26  N   UNL     1       7.222   5.332  18.039  0.00  0.00    +0.000 NA
ATOM     27  H   UNL     1       7.582   9.634  16.750  0.00  0.00    +0.000 HD
ATOM     28  H   UNL     1       7.897   9.882  18.386  0.00  0.00    +0.000 HD
BRANCH  25  29
ATOM     29  N   UNL     1       8.416   5.199  20.027  0.00  0.00    +0.000 N 
ATOM     30  H   UNL     1       8.025   5.520  20.904  0.00  0.00    +0.000 HD
ATOM     31  H   UNL     1       9.431   5.219  20.034  0.00  0.00    +0.000 HD
ENDBRANCH  25  29
ENDBRANCH  19  20
ENDBRANCH  18  19
ENDBRANCH   3  18
TORSDOF 9
ENDMDL
MODEL 7
REMARK VINA RESULT:      -7.2      2.496      4.149
REMARK  Name = 
REMARK  10 active torsions:
REMARK  status: ('A' for Active; 'I' for Inactive)
REMARK    1  A    between atoms: C_1  and  O_2
REMARK    2  A    between atoms: O_2  and  C_3
REMARK    3  A    between atoms: C_6  and  C_7
REMARK    4  A    between atoms: C_9  and  C_10
REMARK    5  A    between atoms: C_10  and  S_11
REMARK    6  A    between atoms: S_11  and  C_12
REMARK    7  A    between atoms: C_17  and  N_18
REMARK    8  A    between atoms: C_23  and  O_24
REMARK    9  A    between atoms: O_24  and  C_25
REMARK   10  A    between atoms: C_25  and  C_26
REMARK                            x       y       z     vdW  Elec       q    Type
REMARK                         _______ _______ _______ _____ _____    ______ ____
ROOT
ATOM      1  C   UNL     1       1.432   8.713  19.480  0.00  0.00    +0.000 A 
ATOM      2  N   UNL     1       1.888   7.643  20.108  0.00  0.00    +0.000 NA
ATOM      3  C   UNL     1       2.649   6.844  19.254  0.00  0.00    +0.000 A 
ATOM      4  C   UNL     1       2.739   7.328  17.963  0.00  0.00    +0.000 A 
ATOM      5  S   UNL     1       1.922   8.814  17.825  0.00  0.00    +0.000 S 
ENDROOT
BRANCH   1   9
ATOM      6  C   UNL     1      -1.109  11.779  21.185  0.00  0.00    +0.000 A 
ATOM      7  C   UNL     1      -0.248  11.031  21.992  0.00  0.00    +0.000 A 
ATOM      8  C   UNL     1       0.548  10.016  21.454  0.00  0.00    +0.000 A 
ATOM      9  C   UNL     1       0.546   9.735  20.083  0.00  0.00    +0.000 A 
ATOM     10  C   UNL     1      -0.314  10.497  19.274  0.00  0.00    +0.000 A 
ATOM     11  C   UNL     1      -1.137  11.516  19.802  0.00  0.00    +0.000 A 
BRANCH   6  13
ATOM     12  C   UNL     1      -2.968  12.442  22.581  0.00  0.00    +0.000 C 
ATOM     13  O   UNL     1      -1.916  12.761  21.682  0.00  0.00    +0.000 OA
ENDBRANCH   6  13
BRANCH  11  14
ATOM     14  O   UNL     1      -1.891  12.141  18.833  0.00  0.00    +0.000 OA
BRANCH  14  15
ATOM     15  C   UNL     1      -2.169  11.434  17.624  0.00  0.00    +0.000 C 
BRANCH  15  16
ATOM     16  C   UNL     1      -3.571  10.855  17.671  0.00  0.00    +0.000 C 
ATOM     17  F   UNL     1      -3.495   9.507  17.847  0.00  0.00    +0.000 F 
ENDBRANCH  15  16
ENDBRANCH  14  15
ENDBRANCH  11  14
ENDBRANCH   1   9
BRANCH   3  18
ATOM     18  C   UNL     1       3.217   5.563  19.792  0.00  0.00    +0.000 C 
BRANCH  18  19
ATOM     19  S   UNL     1       4.099   4.598  18.525  0.00  0.00    +0.000 S 
BRANCH  19  20
ATOM     20  C   UNL     1       5.691   5.371  18.646  0.00  0.00    +0.000 A 
ATOM     21  N   UNL     1       6.477   4.978  19.655  0.00  0.00    +0.000 NA
ATOM     22  C   UNL     1       7.677   5.547  19.734  0.00  0.00    +0.000 A 
ATOM     23  N   UNL     1       8.487   5.176  20.806  0.00  0.00    +0.000 N 
ATOM     24  C   UNL     1       8.097   6.517  18.851  0.00  0.00    +0.000 A 
ATOM     25  C   UNL     1       7.214   6.862  17.853  0.00  0.00    +0.000 A 
ATOM     26  N   UNL     1       6.013   6.297  17.730  0.00  0.00    +0.000 NA
ATOM     27  H   UNL     1       8.019   4.416  21.298  0.00  0.00    +0.000 HD
ATOM     28  H   UNL     1       9.423   4.918  20.513  0.00  0.00    +0.000 HD
BRANCH  25  29
ATOM     29  N   UNL     1       7.565   7.808  16.894  0.00  0.00    +0.000 N 
ATOM     30  H   UNL     1       7.093   8.692  17.037  0.00  0.00    +0.000 HD
ATOM     31  H   UNL     1       7.368   7.416  15.979  0.00  0.00    +0.000 HD
ENDBRANCH  25  29
ENDBRANCH  19  20
ENDBRANCH  18  19
ENDBRANCH   3  18
TORSDOF 9
ENDMDL
MODEL 8
REMARK VINA RESULT:      -7.2      1.523      2.893
REMARK  Name = 
REMARK  10 active torsions:
REMARK  status: ('A' for Active; 'I' for Inactive)
REMARK    1  A    between atoms: C_1  and  O_2
REMARK    2  A    between atoms: O_2  and  C_3
REMARK    3  A    between atoms: C_6  and  C_7
REMARK    4  A    between atoms: C_9  and  C_10
REMARK    5  A    between atoms: C_10  and  S_11
REMARK    6  A    between atoms: S_11  and  C_12
REMARK    7  A    between atoms: C_17  and  N_18
REMARK    8  A    between atoms: C_23  and  O_24
REMARK    9  A    between atoms: O_24  and  C_25
REMARK   10  A    between atoms: C_25  and  C_26
REMARK                            x       y       z     vdW  Elec       q    Type
REMARK                         _______ _______ _______ _____ _____    ______ ____
ROOT
ATOM      1  C   UNL     1       2.850   6.188  18.809  0.00  0.00    +0.000 A 
ATOM      2  N   UNL     1       3.353   6.153  17.588  0.00  0.00    +0.000 NA
ATOM      3  C   UNL     1       3.980   4.933  17.335  0.00  0.00    +0.000 A 
ATOM      4  C   UNL     1       3.954   4.056  18.403  0.00  0.00    +0.000 A 
ATOM      5  S   UNL     1       3.094   4.731  19.706  0.00  0.00    +0.000 S 
ENDROOT
BRANCH   1   9
ATOM      6  C   UNL     1       0.950   9.669  20.553  0.00  0.00    +0.000 A 
ATOM      7  C   UNL     1       1.184   8.522  21.315  0.00  0.00    +0.000 A 
ATOM      8  C   UNL     1       1.763   7.382  20.751  0.00  0.00    +0.000 A 
ATOM      9  C   UNL     1       2.170   7.358  19.412  0.00  0.00    +0.000 A 
ATOM     10  C   UNL     1       1.943   8.517  18.651  0.00  0.00    +0.000 A 
ATOM     11  C   UNL     1       1.344   9.672  19.201  0.00  0.00    +0.000 A 
BRANCH   6  13
ATOM     12  C   UNL     1      -1.006  11.065  20.818  0.00  0.00    +0.000 C 
ATOM     13  O   UNL     1       0.365  10.790  21.068  0.00  0.00    +0.000 OA
ENDBRANCH   6  13
BRANCH  11  14
ATOM     14  O   UNL     1       1.225  10.693  18.284  0.00  0.00    +0.000 OA
BRANCH  14  15
ATOM     15  C   UNL     1       2.352  11.538  18.054  0.00  0.00    +0.000 C 
BRANCH  15  16
ATOM     16  C   UNL     1       2.114  12.903  18.676  0.00  0.00    +0.000 C 
ATOM     17  F   UNL     1       0.774  13.115  18.792  0.00  0.00    +0.000 F 
ENDBRANCH  15  16
ENDBRANCH  14  15
ENDBRANCH  11  14
ENDBRANCH   1   9
BRANCH   3  18
ATOM     18  C   UNL     1       4.643   4.732  16.003  0.00  0.00    +0.000 C 
BRANCH  18  19
ATOM     19  S   UNL     1       6.307   4.008  16.148  0.00  0.00    +0.000 S 
BRANCH  19  20
ATOM     20  C   UNL     1       7.040   5.209  17.227  0.00  0.00    +0.000 A 
ATOM     21  N   UNL     1       7.491   4.765  18.405  0.00  0.00    +0.000 NA
ATOM     22  C   UNL     1       8.057   5.665  19.206  0.00  0.00    +0.000 A 
ATOM     23  N   UNL     1       8.492   5.221  20.454  0.00  0.00    +0.000 N 
ATOM     24  C   UNL     1       8.153   6.997  18.872  0.00  0.00    +0.000 A 
ATOM     25  C   UNL     1       7.651   7.360  17.644  0.00  0.00    +0.000 A 
ATOM     26  N   UNL     1       7.099   6.481  16.805  0.00  0.00    +0.000 NA
ATOM     27  H   UNL     1       8.382   4.207  20.477  0.00  0.00    +0.000 HD
ATOM     28  H   UNL     1       9.444   5.503  20.655  0.00  0.00    +0.000 HD
BRANCH  25  29
ATOM     29  N   UNL     1       7.736   8.678  17.206  0.00  0.00    +0.000 N 
ATOM     30  H   UNL     1       7.716   9.339  17.973  0.00  0.00    +0.000 HD
ATOM     31  H   UNL     1       6.982   8.840  16.546  0.00  0.00    +0.000 HD
ENDBRANCH  25  29
ENDBRANCH  19  20
ENDBRANCH  18  19
ENDBRANCH   3  18
TORSDOF 9
ENDMDL
MODEL 9
REMARK VINA RESULT:      -7.1      2.574      4.289
REMARK  Name = 
REMARK  10 active torsions:
REMARK  status: ('A' for Active; 'I' for Inactive)
REMARK    1  A    between atoms: C_1  and  O_2
REMARK    2  A    between atoms: O_2  and  C_3
REMARK    3  A    between atoms: C_6  and  C_7
REMARK    4  A    between atoms: C_9  and  C_10
REMARK    5  A    between atoms: C_10  and  S_11
REMARK    6  A    between atoms: S_11  and  C_12
REMARK    7  A    between atoms: C_17  and  N_18
REMARK    8  A    between atoms: C_23  and  O_24
REMARK    9  A    between atoms: O_24  and  C_25
REMARK   10  A    between atoms: C_25  and  C_26
REMARK                            x       y       z     vdW  Elec       q    Type
REMARK                         _______ _______ _______ _____ _____    ______ ____
ROOT
ATOM      1  C   UNL     1       1.504   8.528  19.964  0.00  0.00    +0.000 A 
ATOM      2  N   UNL     1       1.959   7.339  20.317  0.00  0.00    +0.000 NA
ATOM      3  C   UNL     1       2.623   6.718  19.258  0.00  0.00    +0.000 A 
ATOM      4  C   UNL     1       2.640   7.461  18.093  0.00  0.00    +0.000 A 
ATOM      5  S   UNL     1       1.878   8.963  18.333  0.00  0.00    +0.000 S 
ENDROOT
BRANCH   1   9
ATOM      6  C   UNL     1      -0.747  11.219  22.505  0.00  0.00    +0.000 A 
ATOM      7  C   UNL     1      -0.330   9.971  22.973  0.00  0.00    +0.000 A 
ATOM      8  C   UNL     1       0.365   9.083  22.148  0.00  0.00    +0.000 A 
ATOM      9  C   UNL     1       0.707   9.423  20.835  0.00  0.00    +0.000 A 
ATOM     10  C   UNL     1       0.295  10.684  20.370  0.00  0.00    +0.000 A 
ATOM     11  C   UNL     1      -0.423  11.587  21.185  0.00  0.00    +0.000 A 
BRANCH   6  13
ATOM     12  C   UNL     1      -2.868  12.085  23.278  0.00  0.00    +0.000 C 
ATOM     13  O   UNL     1      -1.448  12.100  23.277  0.00  0.00    +0.000 OA
ENDBRANCH   6  13
BRANCH  11  14
ATOM     14  O   UNL     1      -0.717  12.765  20.534  0.00  0.00    +0.000 OA
BRANCH  14  15
ATOM     15  C   UNL     1      -0.581  12.812  19.114  0.00  0.00    +0.000 C 
BRANCH  15  16
ATOM     16  C   UNL     1       0.237  14.025  18.709  0.00  0.00    +0.000 C 
ATOM     17  F   UNL     1      -0.557  15.131  18.739  0.00  0.00    +0.000 F 
ENDBRANCH  15  16
ENDBRANCH  14  15
ENDBRANCH  11  14
ENDBRANCH   1   9
BRANCH   3  18
ATOM     18  C   UNL     1       3.174   5.339  19.472  0.00  0.00    +0.000 C 
BRANCH  18  19
ATOM     19  S   UNL     1       3.000   4.277  18.003  0.00  0.00    +0.000 S 
BRANCH  19  20
ATOM     20  C   UNL     1       4.677   4.323  17.427  0.00  0.00    +0.000 A 
ATOM     21  N   UNL     1       4.879   4.020  16.139  0.00  0.00    +0.000 NA
ATOM     22  C   UNL     1       6.136   4.072  15.704  0.00  0.00    +0.000 A 
ATOM     23  N   UNL     1       6.364   3.718  14.375  0.00  0.00    +0.000 N 
ATOM     24  C   UNL     1       7.194   4.386  16.529  0.00  0.00    +0.000 A 
ATOM     25  C   UNL     1       6.886   4.671  17.839  0.00  0.00    +0.000 A 
ATOM     26  N   UNL     1       5.636   4.652  18.305  0.00  0.00    +0.000 NA
ATOM     27  H   UNL     1       5.456   3.579  13.933  0.00  0.00    +0.000 HD
ATOM     28  H   UNL     1       6.924   4.404  13.882  0.00  0.00    +0.000 HD
BRANCH  25  29
ATOM     29  N   UNL     1       7.885   5.033  18.738  0.00  0.00    +0.000 N 
ATOM     30  H   UNL     1       8.774   5.192  18.279  0.00  0.00    +0.000 HD
ATOM     31  H   UNL     1       7.948   4.309  19.447  0.00  0.00    +0.000 HD
ENDBRANCH  25  29
ENDBRANCH  19  20
ENDBRANCH  18  19
ENDBRANCH   3  18
TORSDOF 9
ENDMDL
