MODEL 1
REMARK VINA RESULT:      -8.9      0.000      0.000
REMARK  Name = 
REMARK  7 active torsions:
REMARK  status: ('A' for Active; 'I' for Inactive)
REMARK    1  A    between atoms: C_2  and  C_4
REMARK    2  A    between atoms: C_8  and  N_9
REMARK    3  A    between atoms: N_9  and  C_10
REMARK    4  A    between atoms: C_10  and  C_11
REMARK    5  A    between atoms: C_14  and  S_15
REMARK    6  A    between atoms: S_15  and  C_16
REMARK    7  A    between atoms: C_24  and  N_25
REMARK                            x       y       z     vdW  Elec       q    Type
REMARK                         _______ _______ _______ _____ _____    ______ ____
ROOT
ATOM      1  C   UNL     1       2.388   6.486  19.387  0.00  0.00    +0.000 A 
ATOM      2  C   UNL     1       2.491   7.187  18.179  0.00  0.00    +0.000 A 
ATOM      3  C   UNL     1       2.062   8.518  18.083  0.00  0.00    +0.000 A 
ATOM      4  C   UNL     1       1.494   9.179  19.183  0.00  0.00    +0.000 A 
ATOM      5  C   UNL     1       1.364   8.451  20.375  0.00  0.00    +0.000 A 
ATOM      6  C   UNL     1       1.801   7.121  20.487  0.00  0.00    +0.000 A 
ENDROOT
BRANCH   5   7
ATOM      7  N   UNL     1       0.753   9.038  21.552  0.00  0.00    +0.000 N 
ATOM      8  O   UNL     1       1.496   9.660  22.324  0.00  0.00    +0.000 OA
ATOM      9  O   UNL     1      -0.475   8.930  21.662  0.00  0.00    +0.000 OA
ENDBRANCH   5   7
BRANCH   1  10
ATOM     10  C   UNL     1       2.893   5.067  19.507  0.00  0.00    +0.000 C 
BRANCH  10  11
ATOM     11  N   UNL     1       3.302   4.579  18.200  0.00  0.00    +0.000 N 
ATOM     12  H   UNL     1       2.687   4.864  17.441  0.00  0.00    +0.000 HD
BRANCH  11  17
ATOM     13  C   UNL     1       6.465   4.696  16.204  0.00  0.00    +0.000 A 
ATOM     14  C   UNL     1       7.397   4.915  17.219  0.00  0.00    +0.000 A 
ATOM     15  C   UNL     1       6.964   5.000  18.541  0.00  0.00    +0.000 A 
ATOM     16  C   UNL     1       5.604   4.854  18.840  0.00  0.00    +0.000 A 
ATOM     17  C   UNL     1       4.651   4.625  17.835  0.00  0.00    +0.000 A 
ATOM     18  C   UNL     1       5.101   4.585  16.511  0.00  0.00    +0.000 A 
BRANCH  13  20
ATOM     19  N   UNL     1       6.268   3.608  14.042  0.00  0.00    +0.000 N 
ATOM     20  C   UNL     1       6.873   4.586  14.779  0.00  0.00    +0.000 C 
ATOM     21  O   UNL     1       7.666   5.368  14.272  0.00  0.00    +0.000 OA
ATOM     22  H   UNL     1       6.459   3.612  13.047  0.00  0.00    +0.000 HD
ATOM     23  H   UNL     1       5.428   3.143  14.355  0.00  0.00    +0.000 HD
ENDBRANCH  13  20
ENDBRANCH  11  17
ENDBRANCH  10  11
ENDBRANCH   1  10
BRANCH   4  24
ATOM     24  S   UNL     1       1.100  10.910  19.001  0.00  0.00    +0.000 S 
BRANCH  24  25
ATOM     25  C   UNL     1      -0.662  10.967  18.706  0.00  0.00    +0.000 A 
ATOM     26  C   UNL     1      -1.167  10.162  17.672  0.00  0.00    +0.000 A 
ATOM     27  C   UNL     1      -2.530  10.169  17.354  0.00  0.00    +0.000 A 
ATOM     28  C   UNL     1      -3.410  10.979  18.071  0.00  0.00    +0.000 A 
ATOM     29 CL   UNL     1      -5.079  10.946  17.631  0.00  0.00    +0.000 Cl
ATOM     30  C   UNL     1      -2.921  11.780  19.107  0.00  0.00    +0.000 A 
ATOM     31 CL   UNL     1      -3.948  12.802  20.049  0.00  0.00    +0.000 Cl
ATOM     32  C   UNL     1      -1.553  11.776  19.417  0.00  0.00    +0.000 A 
ENDBRANCH  24  25
ENDBRANCH   4  24
TORSDOF 7
ENDMDL
MODEL 2
REMARK VINA RESULT:      -8.8      1.426      1.964
REMARK  Name = 
REMARK  7 active torsions:
REMARK  status: ('A' for Active; 'I' for Inactive)
REMARK    1  A    between atoms: C_2  and  C_4
REMARK    2  A    between atoms: C_8  and  N_9
REMARK    3  A    between atoms: N_9  and  C_10
REMARK    4  A    between atoms: C_10  and  C_11
REMARK    5  A    between atoms: C_14  and  S_15
REMARK    6  A    between atoms: S_15  and  C_16
REMARK    7  A    between atoms: C_24  and  N_25
REMARK                            x       y       z     vdW  Elec       q    Type
REMARK                         _______ _______ _______ _____ _____    ______ ____
ROOT
ATOM      1  C   UNL     1       2.261   6.684  19.447  0.00  0.00    +0.000 A 
ATOM      2  C   UNL     1       2.299   7.451  18.276  0.00  0.00    +0.000 A 
ATOM      3  C   UNL     1       1.841   8.776  18.272  0.00  0.00    +0.000 A 
ATOM      4  C   UNL     1       1.308   9.364  19.429  0.00  0.00    +0.000 A 
ATOM      5  C   UNL     1       1.244   8.570  20.584  0.00  0.00    +0.000 A 
ATOM      6  C   UNL     1       1.711   7.245  20.604  0.00  0.00    +0.000 A 
ENDROOT
BRANCH   5   7
ATOM      7  N   UNL     1       0.674   9.080  21.815  0.00  0.00    +0.000 N 
ATOM      8  O   UNL     1       1.432   9.696  22.578  0.00  0.00    +0.000 OA
ATOM      9  O   UNL     1      -0.542   8.918  21.982  0.00  0.00    +0.000 OA
ENDBRANCH   5   7
BRANCH   1  10
ATOM     10  C   UNL     1       2.798   5.272  19.468  0.00  0.00    +0.000 C 
BRANCH  10  11
ATOM     11  N   UNL     1       3.175   4.870  18.122  0.00  0.00    +0.000 N 
ATOM     12  H   UNL     1       2.562   5.231  17.396  0.00  0.00    +0.000 HD
BRANCH  11  17
ATOM     13  C   UNL     1       6.878   5.409  18.117  0.00  0.00    +0.000 A 
ATOM     14  C   UNL     1       7.233   4.718  16.957  0.00  0.00    +0.000 A 
ATOM     15  C   UNL     1       6.241   4.107  16.193  0.00  0.00    +0.000 A 
ATOM     16  C   UNL     1       4.900   4.200  16.586  0.00  0.00    +0.000 A 
ATOM     17  C   UNL     1       4.521   4.896  17.745  0.00  0.00    +0.000 A 
ATOM     18  C   UNL     1       5.536   5.466  18.520  0.00  0.00    +0.000 A 
BRANCH  13  20
ATOM     19  N   UNL     1       8.383   5.376  20.023  0.00  0.00    +0.000 N 
ATOM     20  C   UNL     1       7.893   6.087  18.963  0.00  0.00    +0.000 C 
ATOM     21  O   UNL     1       8.318   7.203  18.695  0.00  0.00    +0.000 OA
ATOM     22  H   UNL     1       9.157   5.794  20.525  0.00  0.00    +0.000 HD
ATOM     23  H   UNL     1       8.258   4.378  20.101  0.00  0.00    +0.000 HD
ENDBRANCH  13  20
ENDBRANCH  11  17
ENDBRANCH  10  11
ENDBRANCH   1  10
BRANCH   4  24
ATOM     24  S   UNL     1       0.874  11.094  19.359  0.00  0.00    +0.000 S 
BRANCH  24  25
ATOM     25  C   UNL     1      -0.869  11.130  18.965  0.00  0.00    +0.000 A 
ATOM     26  C   UNL     1      -1.315  10.275  17.944  0.00  0.00    +0.000 A 
ATOM     27  C   UNL     1      -2.658  10.261  17.552  0.00  0.00    +0.000 A 
ATOM     28  C   UNL     1      -3.578  11.101  18.181  0.00  0.00    +0.000 A 
ATOM     29 CL   UNL     1      -5.220  11.040  17.652  0.00  0.00    +0.000 Cl
ATOM     30  C   UNL     1      -3.148  11.952  19.203  0.00  0.00    +0.000 A 
ATOM     31 CL   UNL     1      -4.226  13.013  20.038  0.00  0.00    +0.000 Cl
ATOM     32  C   UNL     1      -1.799  11.968  19.588  0.00  0.00    +0.000 A 
ENDBRANCH  24  25
ENDBRANCH   4  24
TORSDOF 7
ENDMDL
MODEL 3
REMARK VINA RESULT:      -8.7      1.688      2.456
REMARK  Name = 
REMARK  7 active torsions:
REMARK  status: ('A' for Active; 'I' for Inactive)
REMARK    1  A    between atoms: C_2  and  C_4
REMARK    2  A    between atoms: C_8  and  N_9
REMARK    3  A    between atoms: N_9  and  C_10
REMARK    4  A    between atoms: C_10  and  C_11
REMARK    5  A    between atoms: C_14  and  S_15
REMARK    6  A    between atoms: S_15  and  C_16
REMARK    7  A    between atoms: C_24  and  N_25
REMARK                            x       y       z     vdW  Elec       q    Type
REMARK                         _______ _______ _______ _____ _____    ______ ____
ROOT
ATOM      1  C   UNL     1       2.216   6.393  19.490  0.00  0.00    +0.000 A 
ATOM      2  C   UNL     1       2.305   7.152  18.316  0.00  0.00    +0.000 A 
ATOM      3  C   UNL     1       1.924   8.501  18.303  0.00  0.00    +0.000 A 
ATOM      4  C   UNL     1       1.419   9.124  19.454  0.00  0.00    +0.000 A 
ATOM      5  C   UNL     1       1.301   8.340  20.612  0.00  0.00    +0.000 A 
ATOM      6  C   UNL     1       1.691   6.991  20.640  0.00  0.00    +0.000 A 
ENDROOT
BRANCH   5   7
ATOM      7  N   UNL     1       0.754   8.888  21.837  0.00  0.00    +0.000 N 
ATOM      8  O   UNL     1       1.552   9.394  22.638  0.00  0.00    +0.000 OA
ATOM      9  O   UNL     1      -0.478   8.868  21.962  0.00  0.00    +0.000 OA
ENDBRANCH   5   7
BRANCH   1  10
ATOM     10  C   UNL     1       2.671   4.953  19.520  0.00  0.00    +0.000 C 
BRANCH  10  11
ATOM     11  N   UNL     1       3.114   4.550  18.195  0.00  0.00    +0.000 N 
ATOM     12  H   UNL     1       2.491   4.838  17.445  0.00  0.00    +0.000 HD
BRANCH  11  17
ATOM     13  C   UNL     1       6.794   5.211  18.333  0.00  0.00    +0.000 A 
ATOM     14  C   UNL     1       7.186   4.724  17.085  0.00  0.00    +0.000 A 
ATOM     15  C   UNL     1       6.225   4.206  16.219  0.00  0.00    +0.000 A 
ATOM     16  C   UNL     1       4.878   4.189  16.601  0.00  0.00    +0.000 A 
ATOM     17  C   UNL     1       4.461   4.682  17.848  0.00  0.00    +0.000 A 
ATOM     18  C   UNL     1       5.447   5.158  18.719  0.00  0.00    +0.000 A 
BRANCH  13  20
ATOM     19  N   UNL     1       8.390   6.946  18.917  0.00  0.00    +0.000 N 
ATOM     20  C   UNL     1       7.775   5.784  19.291  0.00  0.00    +0.000 C 
ATOM     21  O   UNL     1       7.981   5.278  20.386  0.00  0.00    +0.000 OA
ATOM     22  H   UNL     1       8.967   7.394  19.619  0.00  0.00    +0.000 HD
ATOM     23  H   UNL     1       8.041   7.518  18.163  0.00  0.00    +0.000 HD
ENDBRANCH  13  20
ENDBRANCH  11  17
ENDBRANCH  10  11
ENDBRANCH   1  10
BRANCH   4  24
ATOM     24  S   UNL     1       1.086  10.875  19.374  0.00  0.00    +0.000 S 
BRANCH  24  25
ATOM     25  C   UNL     1      -0.610  11.011  18.824  0.00  0.00    +0.000 A 
ATOM     26  C   UNL     1      -1.469  11.821  19.584  0.00  0.00    +0.000 A 
ATOM     27  C   UNL     1      -2.819  11.958  19.241  0.00  0.00    +0.000 A 
ATOM     28  C   UNL     1      -3.328  11.290  18.127  0.00  0.00    +0.000 A 
ATOM     29 CL   UNL     1      -5.002  11.498  17.757  0.00  0.00    +0.000 Cl
ATOM     30  C   UNL     1      -2.482  10.486  17.359  0.00  0.00    +0.000 A 
ATOM     31 CL   UNL     1      -3.033   9.636  15.959  0.00  0.00    +0.000 Cl
ATOM     32  C   UNL     1      -1.131  10.345  17.710  0.00  0.00    +0.000 A 
ENDBRANCH  24  25
ENDBRANCH   4  24
TORSDOF 7
ENDMDL
MODEL 4
REMARK VINA RESULT:      -8.5      2.844      3.621
REMARK  Name = 
REMARK  7 active torsions:
REMARK  status: ('A' for Active; 'I' for Inactive)
REMARK    1  A    between atoms: C_2  and  C_4
REMARK    2  A    between atoms: C_8  and  N_9
REMARK    3  A    between atoms: N_9  and  C_10
REMARK    4  A    between atoms: C_10  and  C_11
REMARK    5  A    between atoms: C_14  and  S_15
REMARK    6  A    between atoms: S_15  and  C_16
REMARK    7  A    between atoms: C_24  and  N_25
REMARK                            x       y       z     vdW  Elec       q    Type
REMARK                         _______ _______ _______ _____ _____    ______ ____
ROOT
ATOM      1  C   UNL     1       2.416   7.698  18.645  0.00  0.00    +0.000 A 
ATOM      2  C   UNL     1       2.180   8.731  17.729  0.00  0.00    +0.000 A 
ATOM      3  C   UNL     1       1.479   9.883  18.112  0.00  0.00    +0.000 A 
ATOM      4  C   UNL     1       0.972  10.026  19.413  0.00  0.00    +0.000 A 
ATOM      5  C   UNL     1       1.185   8.966  20.307  0.00  0.00    +0.000 A 
ATOM      6  C   UNL     1       1.897   7.813  19.939  0.00  0.00    +0.000 A 
ENDROOT
BRANCH   5   7
ATOM      7  N   UNL     1       0.665   9.009  21.660  0.00  0.00    +0.000 N 
ATOM      8  O   UNL     1       1.390   9.509  22.531  0.00  0.00    +0.000 OA
ATOM      9  O   UNL     1      -0.491   8.600  21.831  0.00  0.00    +0.000 OA
ENDBRANCH   5   7
BRANCH   1  10
ATOM     10  C   UNL     1       3.212   6.477  18.250  0.00  0.00    +0.000 C 
BRANCH  10  11
ATOM     11  N   UNL     1       2.331   5.324  18.157  0.00  0.00    +0.000 N 
ATOM     12  H   UNL     1       2.254   4.937  17.220  0.00  0.00    +0.000 HD
BRANCH  11  17
ATOM     13  C   UNL     1       3.482   2.506  20.333  0.00  0.00    +0.000 A 
ATOM     14  C   UNL     1       2.463   2.489  21.286  0.00  0.00    +0.000 A 
ATOM     15  C   UNL     1       1.409   3.394  21.178  0.00  0.00    +0.000 A 
ATOM     16  C   UNL     1       1.375   4.303  20.113  0.00  0.00    +0.000 A 
ATOM     17  C   UNL     1       2.386   4.331  19.139  0.00  0.00    +0.000 A 
ATOM     18  C   UNL     1       3.456   3.443  19.289  0.00  0.00    +0.000 A 
BRANCH  13  20
ATOM     19  N   UNL     1       4.757   0.690  19.345  0.00  0.00    +0.000 N 
ATOM     20  C   UNL     1       4.624   1.557  20.393  0.00  0.00    +0.000 C 
ATOM     21  O   UNL     1       5.441   1.585  21.304  0.00  0.00    +0.000 OA
ATOM     22  H   UNL     1       5.599   0.128  19.331  0.00  0.00    +0.000 HD
ATOM     23  H   UNL     1       4.273   0.830  18.470  0.00  0.00    +0.000 HD
ENDBRANCH  13  20
ENDBRANCH  11  17
ENDBRANCH  10  11
ENDBRANCH   1  10
BRANCH   4  24
ATOM     24  S   UNL     1       0.210  11.581  19.842  0.00  0.00    +0.000 S 
BRANCH  24  25
ATOM     25  C   UNL     1      -1.413  11.537  19.095  0.00  0.00    +0.000 A 
ATOM     26  C   UNL     1      -2.451  12.198  19.771  0.00  0.00    +0.000 A 
ATOM     27  C   UNL     1      -3.758  12.187  19.271  0.00  0.00    +0.000 A 
ATOM     28  C   UNL     1      -4.044  11.519  18.081  0.00  0.00    +0.000 A 
ATOM     29 CL   UNL     1      -5.676  11.540  17.516  0.00  0.00    +0.000 Cl
ATOM     30  C   UNL     1      -3.019  10.863  17.395  0.00  0.00    +0.000 A 
ATOM     31 CL   UNL     1      -3.292  10.022  15.909  0.00  0.00    +0.000 Cl
ATOM     32  C   UNL     1      -1.712  10.869  17.903  0.00  0.00    +0.000 A 
ENDBRANCH  24  25
ENDBRANCH   4  24
TORSDOF 7
ENDMDL
MODEL 5
REMARK VINA RESULT:      -8.4      2.836      3.462
REMARK  Name = 
REMARK  7 active torsions:
REMARK  status: ('A' for Active; 'I' for Inactive)
REMARK    1  A    between atoms: C_2  and  C_4
REMARK    2  A    between atoms: C_8  and  N_9
REMARK    3  A    between atoms: N_9  and  C_10
REMARK    4  A    between atoms: C_10  and  C_11
REMARK    5  A    between atoms: C_14  and  S_15
REMARK    6  A    between atoms: S_15  and  C_16
REMARK    7  A    between atoms: C_24  and  N_25
REMARK                            x       y       z     vdW  Elec       q    Type
REMARK                         _______ _______ _______ _____ _____    ______ ____
ROOT
ATOM      1  C   UNL     1       2.335   7.747  18.697  0.00  0.00    +0.000 A 
ATOM      2  C   UNL     1       2.129   8.780  17.773  0.00  0.00    +0.000 A 
ATOM      3  C   UNL     1       1.463   9.955  18.148  0.00  0.00    +0.000 A 
ATOM      4  C   UNL     1       0.961  10.122  19.448  0.00  0.00    +0.000 A 
ATOM      5  C   UNL     1       1.143   9.064  20.350  0.00  0.00    +0.000 A 
ATOM      6  C   UNL     1       1.820   7.886  19.990  0.00  0.00    +0.000 A 
ENDROOT
BRANCH   5   7
ATOM      7  N   UNL     1       0.625   9.131  21.702  0.00  0.00    +0.000 N 
ATOM      8  O   UNL     1      -0.500   8.650  21.902  0.00  0.00    +0.000 OA
ATOM      9  O   UNL     1       1.371   9.605  22.569  0.00  0.00    +0.000 OA
ENDBRANCH   5   7
BRANCH   1  10
ATOM     10  C   UNL     1       3.094   6.500  18.310  0.00  0.00    +0.000 C 
BRANCH  10  11
ATOM     11  N   UNL     1       2.184   5.367  18.257  0.00  0.00    +0.000 N 
ATOM     12  H   UNL     1       2.043   4.994  17.321  0.00  0.00    +0.000 HD
BRANCH  11  17
ATOM     13  C   UNL     1       3.421   2.524  20.351  0.00  0.00    +0.000 A 
ATOM     14  C   UNL     1       2.434   2.486  21.337  0.00  0.00    +0.000 A 
ATOM     15  C   UNL     1       1.372   3.387  21.277  0.00  0.00    +0.000 A 
ATOM     16  C   UNL     1       1.298   4.311  20.227  0.00  0.00    +0.000 A 
ATOM     17  C   UNL     1       2.276   4.360  19.222  0.00  0.00    +0.000 A 
ATOM     18  C   UNL     1       3.356   3.476  19.323  0.00  0.00    +0.000 A 
BRANCH  13  20
ATOM     19  N   UNL     1       4.689   0.751  19.280  0.00  0.00    +0.000 N 
ATOM     20  C   UNL     1       4.569   1.580  20.360  0.00  0.00    +0.000 C 
ATOM     21  O   UNL     1       5.402   1.583  21.257  0.00  0.00    +0.000 OA
ATOM     22  H   UNL     1       5.535   0.195  19.234  0.00  0.00    +0.000 HD
ATOM     23  H   UNL     1       4.189   0.917  18.420  0.00  0.00    +0.000 HD
ENDBRANCH  13  20
ENDBRANCH  11  17
ENDBRANCH  10  11
ENDBRANCH   1  10
BRANCH   4  24
ATOM     24  S   UNL     1       0.246  11.703  19.867  0.00  0.00    +0.000 S 
BRANCH  24  25
ATOM     25  C   UNL     1      -1.451  11.617  19.313  0.00  0.00    +0.000 A 
ATOM     26  C   UNL     1      -1.722  10.818  18.191  0.00  0.00    +0.000 A 
ATOM     27  C   UNL     1      -3.019  10.719  17.674  0.00  0.00    +0.000 A 
ATOM     28  C   UNL     1      -4.066  11.415  18.277  0.00  0.00    +0.000 A 
ATOM     29 CL   UNL     1      -5.643  11.254  17.592  0.00  0.00    +0.000 Cl
ATOM     30  C   UNL     1      -3.811  12.209  19.399  0.00  0.00    +0.000 A 
ATOM     31 CL   UNL     1      -5.056  13.092  20.209  0.00  0.00    +0.000 Cl
ATOM     32  C   UNL     1      -2.509  12.312  19.909  0.00  0.00    +0.000 A 
ENDBRANCH  24  25
ENDBRANCH   4  24
TORSDOF 7
ENDMDL
MODEL 6
REMARK VINA RESULT:      -8.4      1.009      1.691
REMARK  Name = 
REMARK  7 active torsions:
REMARK  status: ('A' for Active; 'I' for Inactive)
REMARK    1  A    between atoms: C_2  and  C_4
REMARK    2  A    between atoms: C_8  and  N_9
REMARK    3  A    between atoms: N_9  and  C_10
REMARK    4  A    between atoms: C_10  and  C_11
REMARK    5  A    between atoms: C_14  and  S_15
REMARK    6  A    between atoms: S_15  and  C_16
REMARK    7  A    between atoms: C_24  and  N_25
REMARK                            x       y       z     vdW  Elec       q    Type
REMARK                         _______ _______ _______ _____ _____    ______ ____
ROOT
ATOM      1  C   UNL     1       2.342   6.271  19.022  0.00  0.00    +0.000 A 
ATOM      2  C   UNL     1       2.456   7.107  17.904  0.00  0.00    +0.000 A 
ATOM      3  C   UNL     1       2.075   8.455  17.974  0.00  0.00    +0.000 A 
ATOM      4  C   UNL     1       1.546   8.999  19.154  0.00  0.00    +0.000 A 
ATOM      5  C   UNL     1       1.404   8.140  20.254  0.00  0.00    +0.000 A 
ATOM      6  C   UNL     1       1.793   6.791  20.200  0.00  0.00    +0.000 A 
ENDROOT
BRANCH   5   7
ATOM      7  N   UNL     1       0.831   8.604  21.501  0.00  0.00    +0.000 N 
ATOM      8  O   UNL     1      -0.399   8.520  21.626  0.00  0.00    +0.000 OA
ATOM      9  O   UNL     1       1.619   8.990  22.374  0.00  0.00    +0.000 OA
ENDBRANCH   5   7
BRANCH   1  10
ATOM     10  C   UNL     1       2.796   4.832  18.965  0.00  0.00    +0.000 C 
BRANCH  10  11
ATOM     11  N   UNL     1       4.128   4.713  19.535  0.00  0.00    +0.000 N 
ATOM     12  H   UNL     1       4.257   3.890  20.118  0.00  0.00    +0.000 HD
BRANCH  11  17
ATOM     13  C   UNL     1       6.402   5.174  16.600  0.00  0.00    +0.000 A 
ATOM     14  C   UNL     1       7.512   5.743  17.226  0.00  0.00    +0.000 A 
ATOM     15  C   UNL     1       7.493   5.944  18.605  0.00  0.00    +0.000 A 
ATOM     16  C   UNL     1       6.369   5.565  19.350  0.00  0.00    +0.000 A 
ATOM     17  C   UNL     1       5.246   4.983  18.741  0.00  0.00    +0.000 A 
ATOM     18  C   UNL     1       5.269   4.829  17.351  0.00  0.00    +0.000 A 
BRANCH  13  20
ATOM     19  N   UNL     1       7.473   5.321  14.425  0.00  0.00    +0.000 N 
ATOM     20  C   UNL     1       6.373   4.927  15.135  0.00  0.00    +0.000 C 
ATOM     21  O   UNL     1       5.440   4.348  14.595  0.00  0.00    +0.000 OA
ATOM     22  H   UNL     1       7.500   5.046  13.450  0.00  0.00    +0.000 HD
ATOM     23  H   UNL     1       8.349   5.541  14.874  0.00  0.00    +0.000 HD
ENDBRANCH  13  20
ENDBRANCH  11  17
ENDBRANCH  10  11
ENDBRANCH   1  10
BRANCH   4  24
ATOM     24  S   UNL     1       1.214  10.753  19.185  0.00  0.00    +0.000 S 
BRANCH  24  25
ATOM     25  C   UNL     1      -0.496  10.921  18.692  0.00  0.00    +0.000 A 
ATOM     26  C   UNL     1      -1.308  11.766  19.466  0.00  0.00    +0.000 A 
ATOM     27  C   UNL     1      -2.665  11.931  19.168  0.00  0.00    +0.000 A 
ATOM     28  C   UNL     1      -3.230  11.255  18.086  0.00  0.00    +0.000 A 
ATOM     29 CL   UNL     1      -4.910  11.498  17.770  0.00  0.00    +0.000 Cl
ATOM     30  C   UNL     1      -2.431  10.417  17.304  0.00  0.00    +0.000 A 
ATOM     31 CL   UNL     1      -3.052   9.555  15.941  0.00  0.00    +0.000 Cl
ATOM     32  C   UNL     1      -1.073  10.248  17.610  0.00  0.00    +0.000 A 
ENDBRANCH  24  25
ENDBRANCH   4  24
TORSDOF 7
ENDMDL
MODEL 7
REMARK VINA RESULT:      -8.3      1.287      1.784
REMARK  Name = 
REMARK  7 active torsions:
REMARK  status: ('A' for Active; 'I' for Inactive)
REMARK    1  A    between atoms: C_2  and  C_4
REMARK    2  A    between atoms: C_8  and  N_9
REMARK    3  A    between atoms: N_9  and  C_10
REMARK    4  A    between atoms: C_10  and  C_11
REMARK    5  A    between atoms: C_14  and  S_15
REMARK    6  A    between atoms: S_15  and  C_16
REMARK    7  A    between atoms: C_24  and  N_25
REMARK                            x       y       z     vdW  Elec       q    Type
REMARK                         _______ _______ _______ _____ _____    ______ ____
ROOT
ATOM      1  C   UNL     1       2.270   7.877  18.703  0.00  0.00    +0.000 A 
ATOM      2  C   UNL     1       2.009   8.947  17.838  0.00  0.00    +0.000 A 
ATOM      3  C   UNL     1       1.294  10.069  18.279  0.00  0.00    +0.000 A 
ATOM      4  C   UNL     1       0.798  10.144  19.590  0.00  0.00    +0.000 A 
ATOM      5  C   UNL     1       1.036   9.049  20.433  0.00  0.00    +0.000 A 
ATOM      6  C   UNL     1       1.761   7.924  20.006  0.00  0.00    +0.000 A 
ENDROOT
BRANCH   5   7
ATOM      7  N   UNL     1       0.528   9.021  21.790  0.00  0.00    +0.000 N 
ATOM      8  O   UNL     1       1.230   9.542  22.669  0.00  0.00    +0.000 OA
ATOM      9  O   UNL     1      -0.599   8.537  21.960  0.00  0.00    +0.000 OA
ENDBRANCH   5   7
BRANCH   1  10
ATOM     10  C   UNL     1       3.081   6.688  18.245  0.00  0.00    +0.000 C 
BRANCH  10  11
ATOM     11  N   UNL     1       4.271   7.144  17.546  0.00  0.00    +0.000 N 
ATOM     12  H   UNL     1       4.653   8.016  17.905  0.00  0.00    +0.000 HD
BRANCH  11  17
ATOM     13  C   UNL     1       6.671   5.020  15.615  0.00  0.00    +0.000 A 
ATOM     14  C   UNL     1       7.436   4.492  16.656  0.00  0.00    +0.000 A 
ATOM     15  C   UNL     1       7.130   4.832  17.972  0.00  0.00    +0.000 A 
ATOM     16  C   UNL     1       6.056   5.690  18.240  0.00  0.00    +0.000 A 
ATOM     17  C   UNL     1       5.269   6.226  17.208  0.00  0.00    +0.000 A 
ATOM     18  C   UNL     1       5.619   5.905  15.892  0.00  0.00    +0.000 A 
BRANCH  13  20
ATOM     19  N   UNL     1       6.332   3.566  13.699  0.00  0.00    +0.000 N 
ATOM     20  C   UNL     1       6.946   4.682  14.194  0.00  0.00    +0.000 C 
ATOM     21  O   UNL     1       7.637   5.397  13.481  0.00  0.00    +0.000 OA
ATOM     22  H   UNL     1       6.426   3.406  12.704  0.00  0.00    +0.000 HD
ATOM     23  H   UNL     1       5.556   3.128  14.173  0.00  0.00    +0.000 HD
ENDBRANCH  13  20
ENDBRANCH  11  17
ENDBRANCH  10  11
ENDBRANCH   1  10
BRANCH   4  24
ATOM     24  S   UNL     1       0.017  11.667  20.097  0.00  0.00    +0.000 S 
BRANCH  24  25
ATOM     25  C   UNL     1      -1.597  11.651  19.328  0.00  0.00    +0.000 A 
ATOM     26  C   UNL     1      -2.642  12.293  20.012  0.00  0.00    +0.000 A 
ATOM     27  C   UNL     1      -3.942  12.302  19.496  0.00  0.00    +0.000 A 
ATOM     28  C   UNL     1      -4.215  11.673  18.281  0.00  0.00    +0.000 A 
ATOM     29 CL   UNL     1      -5.840  11.716  17.697  0.00  0.00    +0.000 Cl
ATOM     30  C   UNL     1      -3.183  11.036  17.587  0.00  0.00    +0.000 A 
ATOM     31 CL   UNL     1      -3.438  10.245  16.072  0.00  0.00    +0.000 Cl
ATOM     32  C   UNL     1      -1.883  11.023  18.112  0.00  0.00    +0.000 A 
ENDBRANCH  24  25
ENDBRANCH   4  24
TORSDOF 7
ENDMDL
MODEL 8
REMARK VINA RESULT:      -8.2      1.308      1.981
REMARK  Name = 
REMARK  7 active torsions:
REMARK  status: ('A' for Active; 'I' for Inactive)
REMARK    1  A    between atoms: C_2  and  C_4
REMARK    2  A    between atoms: C_8  and  N_9
REMARK    3  A    between atoms: N_9  and  C_10
REMARK    4  A    between atoms: C_10  and  C_11
REMARK    5  A    between atoms: C_14  and  S_15
REMARK    6  A    between atoms: S_15  and  C_16
REMARK    7  A    between atoms: C_24  and  N_25
REMARK                            x       y       z     vdW  Elec       q    Type
REMARK                         _______ _______ _______ _____ _____    ______ ____
ROOT
ATOM      1  C   UNL     1       2.116   6.714  19.966  0.00  0.00    +0.000 A 
ATOM      2  C   UNL     1       2.268   7.350  18.726  0.00  0.00    +0.000 A 
ATOM      3  C   UNL     1       1.847   8.674  18.544  0.00  0.00    +0.000 A 
ATOM      4  C   UNL     1       1.240   9.394  19.584  0.00  0.00    +0.000 A 
ATOM      5  C   UNL     1       1.063   8.731  20.808  0.00  0.00    +0.000 A 
ATOM      6  C   UNL     1       1.492   7.408  21.007  0.00  0.00    +0.000 A 
ENDROOT
BRANCH   5   7
ATOM      7  N   UNL     1       0.412   9.382  21.928  0.00  0.00    +0.000 N 
ATOM      8  O   UNL     1       1.140   9.926  22.769  0.00  0.00    +0.000 OA
ATOM      9  O   UNL     1      -0.826   9.401  21.925  0.00  0.00    +0.000 OA
ENDBRANCH   5   7
BRANCH   1  10
ATOM     10  C   UNL     1       2.612   5.303  20.180  0.00  0.00    +0.000 C 
BRANCH  10  11
ATOM     11  N   UNL     1       4.034   5.232  19.885  0.00  0.00    +0.000 N 
ATOM     12  H   UNL     1       4.583   4.772  20.606  0.00  0.00    +0.000 HD
BRANCH  11  17
ATOM     13  C   UNL     1       5.974   5.039  16.691  0.00  0.00    +0.000 A 
ATOM     14  C   UNL     1       5.320   3.980  16.060  0.00  0.00    +0.000 A 
ATOM     15  C   UNL     1       4.241   3.366  16.694  0.00  0.00    +0.000 A 
ATOM     16  C   UNL     1       3.817   3.822  17.948  0.00  0.00    +0.000 A 
ATOM     17  C   UNL     1       4.456   4.891  18.596  0.00  0.00    +0.000 A 
ATOM     18  C   UNL     1       5.563   5.465  17.962  0.00  0.00    +0.000 A 
BRANCH  13  20
ATOM     19  N   UNL     1       7.590   6.852  16.692  0.00  0.00    +0.000 N 
ATOM     20  C   UNL     1       7.123   5.736  16.057  0.00  0.00    +0.000 C 
ATOM     21  O   UNL     1       7.666   5.303  15.049  0.00  0.00    +0.000 OA
ATOM     22  H   UNL     1       8.443   7.255  16.324  0.00  0.00    +0.000 HD
ATOM     23  H   UNL     1       7.346   7.065  17.648  0.00  0.00    +0.000 HD
ENDBRANCH  13  20
ENDBRANCH  11  17
ENDBRANCH  10  11
ENDBRANCH   1  10
BRANCH   4  24
ATOM     24  S   UNL     1       0.860  11.113  19.295  0.00  0.00    +0.000 S 
BRANCH  24  25
ATOM     25  C   UNL     1      -0.822  11.132  18.689  0.00  0.00    +0.000 A 
ATOM     26  C   UNL     1      -1.762  11.872  19.423  0.00  0.00    +0.000 A 
ATOM     27  C   UNL     1      -3.106  11.916  19.035  0.00  0.00    +0.000 A 
ATOM     28  C   UNL     1      -3.528  11.221  17.902  0.00  0.00    +0.000 A 
ATOM     29 CL   UNL     1      -5.199  11.312  17.475  0.00  0.00    +0.000 Cl
ATOM     30  C   UNL     1      -2.601  10.485  17.159  0.00  0.00    +0.000 A 
ATOM     31 CL   UNL     1      -3.043   9.608  15.737  0.00  0.00    +0.000 Cl
ATOM     32  C   UNL     1      -1.257  10.439  17.555  0.00  0.00    +0.000 A 
ENDBRANCH  24  25
ENDBRANCH   4  24
TORSDOF 7
ENDMDL
MODEL 9
REMARK VINA RESULT:      -8.1      3.046      3.635
REMARK  Name = 
REMARK  7 active torsions:
REMARK  status: ('A' for Active; 'I' for Inactive)
REMARK    1  A    between atoms: C_2  and  C_4
REMARK    2  A    between atoms: C_8  and  N_9
REMARK    3  A    between atoms: N_9  and  C_10
REMARK    4  A    between atoms: C_10  and  C_11
REMARK    5  A    between atoms: C_14  and  S_15
REMARK    6  A    between atoms: S_15  and  C_16
REMARK    7  A    between atoms: C_24  and  N_25
REMARK                            x       y       z     vdW  Elec       q    Type
REMARK                         _______ _______ _______ _____ _____    ______ ____
ROOT
ATOM      1  C   UNL     1       2.422   7.229  19.289  0.00  0.00    +0.000 A 
ATOM      2  C   UNL     1       2.223   7.955  18.107  0.00  0.00    +0.000 A 
ATOM      3  C   UNL     1       1.483   9.145  18.113  0.00  0.00    +0.000 A 
ATOM      4  C   UNL     1       0.898   9.631  19.292  0.00  0.00    +0.000 A 
ATOM      5  C   UNL     1       1.076   8.874  20.459  0.00  0.00    +0.000 A 
ATOM      6  C   UNL     1       1.826   7.686  20.469  0.00  0.00    +0.000 A 
ENDROOT
BRANCH   5   7
ATOM      7  N   UNL     1       0.476   9.277  21.715  0.00  0.00    +0.000 N 
ATOM      8  O   UNL     1       1.080  10.129  22.384  0.00  0.00    +0.000 OA
ATOM      9  O   UNL     1      -0.627   8.790  21.996  0.00  0.00    +0.000 OA
ENDBRANCH   5   7
BRANCH   1  10
ATOM     10  C   UNL     1       3.259   5.971  19.296  0.00  0.00    +0.000 C 
BRANCH  10  11
ATOM     11  N   UNL     1       3.468   5.512  17.933  0.00  0.00    +0.000 N 
ATOM     12  H   UNL     1       2.951   6.041  17.235  0.00  0.00    +0.000 HD
BRANCH  11  17
ATOM     13  C   UNL     1       6.460   4.835  15.790  0.00  0.00    +0.000 A 
ATOM     14  C   UNL     1       7.446   4.697  16.768  0.00  0.00    +0.000 A 
ATOM     15  C   UNL     1       7.099   4.812  18.112  0.00  0.00    +0.000 A 
ATOM     16  C   UNL     1       5.767   5.052  18.471  0.00  0.00    +0.000 A 
ATOM     17  C   UNL     1       4.758   5.185  17.504  0.00  0.00    +0.000 A 
ATOM     18  C   UNL     1       5.135   5.109  16.159  0.00  0.00    +0.000 A 
BRANCH  13  20
ATOM     19  N   UNL     1       7.807   5.470  13.871  0.00  0.00    +0.000 N 
ATOM     20  C   UNL     1       6.773   4.711  14.342  0.00  0.00    +0.000 C 
ATOM     21  O   UNL     1       6.176   3.926  13.616  0.00  0.00    +0.000 OA
ATOM     22  H   UNL     1       8.093   5.295  12.916  0.00  0.00    +0.000 HD
ATOM     23  H   UNL     1       8.477   5.903  14.490  0.00  0.00    +0.000 HD
ENDBRANCH  13  20
ENDBRANCH  11  17
ENDBRANCH  10  11
ENDBRANCH   1  10
BRANCH   4  24
ATOM     24  S   UNL     1       0.088  11.220  19.225  0.00  0.00    +0.000 S 
BRANCH  24  25
ATOM     25  C   UNL     1       1.399  12.427  19.360  0.00  0.00    +0.000 A 
ATOM     26  C   UNL     1       2.172  12.667  18.212  0.00  0.00    +0.000 A 
ATOM     27  C   UNL     1       3.238  13.575  18.239  0.00  0.00    +0.000 A 
ATOM     28  C   UNL     1       3.542  14.260  19.415  0.00  0.00    +0.000 A 
ATOM     29 CL   UNL     1       4.869  15.365  19.386  0.00  0.00    +0.000 Cl
ATOM     30  C   UNL     1       2.776  14.035  20.562  0.00  0.00    +0.000 A 
ATOM     31 CL   UNL     1       3.081  14.853  22.054  0.00  0.00    +0.000 Cl
ATOM     32  C   UNL     1       1.714  13.119  20.533  0.00  0.00    +0.000 A 
ENDBRANCH  24  25
ENDBRANCH   4  24
TORSDOF 7
ENDMDL
