MODEL 1
REMARK VINA RESULT:      -7.7      0.000      0.000
REMARK  Name = 
REMARK  8 active torsions:
REMARK  status: ('A' for Active; 'I' for Inactive)
REMARK    1  A    between atoms: C_1  and  C_2
REMARK    2  A    between atoms: C_2  and  C_3
REMARK    3  A    between atoms: C_2  and  C_4
REMARK    4  A    between atoms: C_2  and  C_5
REMARK    5  A    between atoms: C_8  and  C_9
REMARK    6  A    between atoms: C_9  and  O_10
REMARK    7  A    between atoms: O_10  and  C_11
REMARK    8  A    between atoms: C_16  and  C_17
REMARK                            x       y       z     vdW  Elec       q    Type
REMARK                         _______ _______ _______ _____ _____    ______ ____
ROOT
ATOM      1  C   UNL     1       6.178   3.858  14.651  0.00  0.00    +0.000 A 
ATOM      2  C   UNL     1       5.920   3.442  13.335  0.00  0.00    +0.000 A 
ATOM      3  C   UNL     1       6.614   3.995  12.258  0.00  0.00    +0.000 A 
ATOM      4  C   UNL     1       7.570   4.976  12.480  0.00  0.00    +0.000 A 
ATOM      5  C   UNL     1       7.808   5.425  13.778  0.00  0.00    +0.000 A 
ATOM      6  C   UNL     1       7.108   4.896  14.879  0.00  0.00    +0.000 A 
ENDROOT
BRANCH   6   7
ATOM      7  C   UNL     1       7.383   5.483  16.197  0.00  0.00    +0.000 A 
ATOM      8  N   UNL     1       7.389   6.771  16.504  0.00  0.00    +0.000 NA
ATOM      9  N   UNL     1       7.616   6.901  17.855  0.00  0.00    +0.000 NA
ATOM     10  C   UNL     1       7.746   5.694  18.348  0.00  0.00    +0.000 A 
ATOM     11  N   UNL     1       7.626   4.779  17.350  0.00  0.00    +0.000 N 
ATOM     12  H   UNL     1       7.674   3.771  17.425  0.00  0.00    +0.000 HD
ENDBRANCH   6   7
BRANCH   1  13
ATOM     13  O   UNL     1       5.515   3.326  15.733  0.00  0.00    +0.000 OA
BRANCH  13  14
ATOM     14  C   UNL     1       4.350   4.048  16.163  0.00  0.00    +0.000 C 
BRANCH  14  18
ATOM     15  C   UNL     1       2.930   3.521  19.393  0.00  0.00    +0.000 A 
ATOM     16  C   UNL     1       4.272   3.467  19.702  0.00  0.00    +0.000 A 
ATOM     17  N   UNL     1       5.031   3.599  18.570  0.00  0.00    +0.000 NA
ATOM     18  C   UNL     1       4.139   3.757  17.609  0.00  0.00    +0.000 A 
ATOM     19  O   UNL     1       2.837   3.727  18.041  0.00  0.00    +0.000 OA
BRANCH  15  21
ATOM     20  C   UNL     1       0.580   2.701  19.371  0.00  0.00    +0.000 C 
ATOM     21  C   UNL     1       1.659   3.424  20.194  0.00  0.00    +0.000 C 
ATOM     22  C   UNL     1       1.157   4.838  20.546  0.00  0.00    +0.000 C 
ATOM     23  C   UNL     1       1.888   2.653  21.508  0.00  0.00    +0.000 C 
ENDBRANCH  15  21
ENDBRANCH  14  18
ENDBRANCH  13  14
ENDBRANCH   1  13
TORSDOF 5
ENDMDL
MODEL 2
REMARK VINA RESULT:      -7.3      3.434      5.567
REMARK  Name = 
REMARK  8 active torsions:
REMARK  status: ('A' for Active; 'I' for Inactive)
REMARK    1  A    between atoms: C_1  and  C_2
REMARK    2  A    between atoms: C_2  and  C_3
REMARK    3  A    between atoms: C_2  and  C_4
REMARK    4  A    between atoms: C_2  and  C_5
REMARK    5  A    between atoms: C_8  and  C_9
REMARK    6  A    between atoms: C_9  and  O_10
REMARK    7  A    between atoms: O_10  and  C_11
REMARK    8  A    between atoms: C_16  and  C_17
REMARK                            x       y       z     vdW  Elec       q    Type
REMARK                         _______ _______ _______ _____ _____    ______ ____
ROOT
ATOM      1  C   UNL     1       3.045   4.696  18.767  0.00  0.00    +0.000 A 
ATOM      2  C   UNL     1       1.718   4.239  18.771  0.00  0.00    +0.000 A 
ATOM      3  C   UNL     1       1.416   2.906  18.485  0.00  0.00    +0.000 A 
ATOM      4  C   UNL     1       2.436   2.014  18.185  0.00  0.00    +0.000 A 
ATOM      5  C   UNL     1       3.755   2.464  18.141  0.00  0.00    +0.000 A 
ATOM      6  C   UNL     1       4.082   3.808  18.407  0.00  0.00    +0.000 A 
ENDROOT
BRANCH   6   7
ATOM      7  C   UNL     1       5.492   4.197  18.268  0.00  0.00    +0.000 A 
ATOM      8  N   UNL     1       6.311   4.564  19.243  0.00  0.00    +0.000 NA
ATOM      9  N   UNL     1       7.562   4.773  18.709  0.00  0.00    +0.000 NA
ATOM     10  C   UNL     1       7.486   4.533  17.424  0.00  0.00    +0.000 A 
ATOM     11  N   UNL     1       6.211   4.187  17.100  0.00  0.00    +0.000 N 
ATOM     12  H   UNL     1       5.850   3.941  16.188  0.00  0.00    +0.000 HD
ENDBRANCH   6   7
BRANCH   1  13
ATOM     13  O   UNL     1       3.374   6.002  19.051  0.00  0.00    +0.000 OA
BRANCH  13  14
ATOM     14  C   UNL     1       3.213   6.931  17.969  0.00  0.00    +0.000 C 
BRANCH  14  18
ATOM     15  C   UNL     1       1.124   9.071  19.916  0.00  0.00    +0.000 A 
ATOM     16  C   UNL     1       1.048   9.700  18.691  0.00  0.00    +0.000 A 
ATOM     17  N   UNL     1       1.838   9.059  17.773  0.00  0.00    +0.000 NA
ATOM     18  C   UNL     1       2.350   8.048  18.449  0.00  0.00    +0.000 A 
ATOM     19  O   UNL     1       1.952   7.989  19.761  0.00  0.00    +0.000 OA
BRANCH  15  21
ATOM     20  C   UNL     1      -0.049  10.749  21.332  0.00  0.00    +0.000 C 
ATOM     21  C   UNL     1       0.508   9.317  21.267  0.00  0.00    +0.000 C 
ATOM     22  C   UNL     1       1.575   9.143  22.365  0.00  0.00    +0.000 C 
ATOM     23  C   UNL     1      -0.635   8.322  21.545  0.00  0.00    +0.000 C 
ENDBRANCH  15  21
ENDBRANCH  14  18
ENDBRANCH  13  14
ENDBRANCH   1  13
TORSDOF 5
ENDMDL
MODEL 3
REMARK VINA RESULT:      -7.3      3.776      5.880
REMARK  Name = 
REMARK  8 active torsions:
REMARK  status: ('A' for Active; 'I' for Inactive)
REMARK    1  A    between atoms: C_1  and  C_2
REMARK    2  A    between atoms: C_2  and  C_3
REMARK    3  A    between atoms: C_2  and  C_4
REMARK    4  A    between atoms: C_2  and  C_5
REMARK    5  A    between atoms: C_8  and  C_9
REMARK    6  A    between atoms: C_9  and  O_10
REMARK    7  A    between atoms: O_10  and  C_11
REMARK    8  A    between atoms: C_16  and  C_17
REMARK                            x       y       z     vdW  Elec       q    Type
REMARK                         _______ _______ _______ _____ _____    ______ ____
ROOT
ATOM      1  C   UNL     1       2.710   4.493  18.084  0.00  0.00    +0.000 A 
ATOM      2  C   UNL     1       1.426   3.935  18.182  0.00  0.00    +0.000 A 
ATOM      3  C   UNL     1       1.252   2.578  18.460  0.00  0.00    +0.000 A 
ATOM      4  C   UNL     1       2.359   1.760  18.638  0.00  0.00    +0.000 A 
ATOM      5  C   UNL     1       3.640   2.294  18.506  0.00  0.00    +0.000 A 
ATOM      6  C   UNL     1       3.841   3.656  18.207  0.00  0.00    +0.000 A 
ENDROOT
BRANCH   6   7
ATOM      7  C   UNL     1       5.227   4.106  18.021  0.00  0.00    +0.000 A 
ATOM      8  N   UNL     1       6.158   4.208  18.958  0.00  0.00    +0.000 NA
ATOM      9  N   UNL     1       7.339   4.592  18.365  0.00  0.00    +0.000 NA
ATOM     10  C   UNL     1       7.109   4.720  17.081  0.00  0.00    +0.000 A 
ATOM     11  N   UNL     1       5.803   4.444  16.823  0.00  0.00    +0.000 N 
ATOM     12  H   UNL     1       5.334   4.452  15.926  0.00  0.00    +0.000 HD
ENDBRANCH   6   7
BRANCH   1  13
ATOM     13  O   UNL     1       2.914   5.828  17.817  0.00  0.00    +0.000 OA
BRANCH  13  14
ATOM     14  C   UNL     1       3.072   6.673  18.967  0.00  0.00    +0.000 C 
BRANCH  14  18
ATOM     15  C   UNL     1       1.034   9.593  19.199  0.00  0.00    +0.000 A 
ATOM     16  C   UNL     1       1.410   9.659  17.874  0.00  0.00    +0.000 A 
ATOM     17  N   UNL     1       2.262   8.632  17.566  0.00  0.00    +0.000 NA
ATOM     18  C   UNL     1       2.362   7.955  18.694  0.00  0.00    +0.000 A 
ATOM     19  O   UNL     1       1.633   8.480  19.732  0.00  0.00    +0.000 OA
BRANCH  15  21
ATOM     20  C   UNL     1      -0.124   9.677  21.400  0.00  0.00    +0.000 C 
ATOM     21  C   UNL     1       0.152  10.428  20.087  0.00  0.00    +0.000 C 
ATOM     22  C   UNL     1      -1.188  10.705  19.378  0.00  0.00    +0.000 C 
ATOM     23  C   UNL     1       0.812  11.781  20.413  0.00  0.00    +0.000 C 
ENDBRANCH  15  21
ENDBRANCH  14  18
ENDBRANCH  13  14
ENDBRANCH   1  13
TORSDOF 5
ENDMDL
MODEL 4
REMARK VINA RESULT:      -7.2      3.825      5.784
REMARK  Name = 
REMARK  8 active torsions:
REMARK  status: ('A' for Active; 'I' for Inactive)
REMARK    1  A    between atoms: C_1  and  C_2
REMARK    2  A    between atoms: C_2  and  C_3
REMARK    3  A    between atoms: C_2  and  C_4
REMARK    4  A    between atoms: C_2  and  C_5
REMARK    5  A    between atoms: C_8  and  C_9
REMARK    6  A    between atoms: C_9  and  O_10
REMARK    7  A    between atoms: O_10  and  C_11
REMARK    8  A    between atoms: C_16  and  C_17
REMARK                            x       y       z     vdW  Elec       q    Type
REMARK                         _______ _______ _______ _____ _____    ______ ____
ROOT
ATOM      1  C   UNL     1       3.050   4.659  18.027  0.00  0.00    +0.000 A 
ATOM      2  C   UNL     1       1.723   4.227  18.178  0.00  0.00    +0.000 A 
ATOM      3  C   UNL     1       1.395   2.873  18.100  0.00  0.00    +0.000 A 
ATOM      4  C   UNL     1       2.387   1.932  17.864  0.00  0.00    +0.000 A 
ATOM      5  C   UNL     1       3.703   2.351  17.674  0.00  0.00    +0.000 A 
ATOM      6  C   UNL     1       4.057   3.713  17.730  0.00  0.00    +0.000 A 
ENDROOT
BRANCH   6   7
ATOM      7  C   UNL     1       5.457   4.057  17.450  0.00  0.00    +0.000 A 
ATOM      8  N   UNL     1       6.016   4.190  16.256  0.00  0.00    +0.000 NA
ATOM      9  N   UNL     1       7.321   4.592  16.424  0.00  0.00    +0.000 NA
ATOM     10  C   UNL     1       7.537   4.695  17.712  0.00  0.00    +0.000 A 
ATOM     11  N   UNL     1       6.409   4.356  18.392  0.00  0.00    +0.000 N 
ATOM     12  H   UNL     1       6.269   4.346  19.393  0.00  0.00    +0.000 HD
ENDBRANCH   6   7
BRANCH   1  13
ATOM     13  O   UNL     1       3.406   5.986  18.105  0.00  0.00    +0.000 OA
BRANCH  13  14
ATOM     14  C   UNL     1       3.000   6.667  19.302  0.00  0.00    +0.000 C 
BRANCH  14  18
ATOM     15  C   UNL     1       0.991   9.615  19.244  0.00  0.00    +0.000 A 
ATOM     16  C   UNL     1       1.342   9.529  17.914  0.00  0.00    +0.000 A 
ATOM     17  N   UNL     1       2.180   8.466  17.706  0.00  0.00    +0.000 NA
ATOM     18  C   UNL     1       2.296   7.918  18.901  0.00  0.00    +0.000 A 
ATOM     19  O   UNL     1       1.591   8.562  19.886  0.00  0.00    +0.000 OA
BRANCH  15  21
ATOM     20  C   UNL     1       0.912  11.844  20.349  0.00  0.00    +0.000 C 
ATOM     21  C   UNL     1       0.132  10.553  20.049  0.00  0.00    +0.000 C 
ATOM     22  C   UNL     1      -0.261   9.884  21.381  0.00  0.00    +0.000 C 
ATOM     23  C   UNL     1      -1.160  10.911  19.291  0.00  0.00    +0.000 C 
ENDBRANCH  15  21
ENDBRANCH  14  18
ENDBRANCH  13  14
ENDBRANCH   1  13
TORSDOF 5
ENDMDL
MODEL 5
REMARK VINA RESULT:      -7.2      3.918      5.795
REMARK  Name = 
REMARK  8 active torsions:
REMARK  status: ('A' for Active; 'I' for Inactive)
REMARK    1  A    between atoms: C_1  and  C_2
REMARK    2  A    between atoms: C_2  and  C_3
REMARK    3  A    between atoms: C_2  and  C_4
REMARK    4  A    between atoms: C_2  and  C_5
REMARK    5  A    between atoms: C_8  and  C_9
REMARK    6  A    between atoms: C_9  and  O_10
REMARK    7  A    between atoms: O_10  and  C_11
REMARK    8  A    between atoms: C_16  and  C_17
REMARK                            x       y       z     vdW  Elec       q    Type
REMARK                         _______ _______ _______ _____ _____    ______ ____
ROOT
ATOM      1  C   UNL     1       3.199   4.881  18.472  0.00  0.00    +0.000 A 
ATOM      2  C   UNL     1       1.854   4.486  18.549  0.00  0.00    +0.000 A 
ATOM      3  C   UNL     1       1.466   3.188  18.213  0.00  0.00    +0.000 A 
ATOM      4  C   UNL     1       2.415   2.269  17.789  0.00  0.00    +0.000 A 
ATOM      5  C   UNL     1       3.748   2.659  17.672  0.00  0.00    +0.000 A 
ATOM      6  C   UNL     1       4.162   3.968  17.988  0.00  0.00    +0.000 A 
ENDROOT
BRANCH   6   7
ATOM      7  C   UNL     1       5.575   4.299  17.767  0.00  0.00    +0.000 A 
ATOM      8  N   UNL     1       6.224   4.271  16.613  0.00  0.00    +0.000 NA
ATOM      9  N   UNL     1       7.508   4.722  16.818  0.00  0.00    +0.000 NA
ATOM     10  C   UNL     1       7.622   5.014  18.090  0.00  0.00    +0.000 A 
ATOM     11  N   UNL     1       6.448   4.751  18.725  0.00  0.00    +0.000 N 
ATOM     12  H   UNL     1       6.232   4.882  19.704  0.00  0.00    +0.000 HD
ENDBRANCH   6   7
BRANCH   1  13
ATOM     13  O   UNL     1       3.613   6.150  18.804  0.00  0.00    +0.000 OA
BRANCH  13  14
ATOM     14  C   UNL     1       2.995   7.216  18.067  0.00  0.00    +0.000 C 
BRANCH  14  18
ATOM     15  C   UNL     1       0.785   9.594  19.549  0.00  0.00    +0.000 A 
ATOM     16  C   UNL     1       1.093   8.823  20.650  0.00  0.00    +0.000 A 
ATOM     17  N   UNL     1       1.915   7.786  20.295  0.00  0.00    +0.000 NA
ATOM     18  C   UNL     1       2.108   7.966  19.002  0.00  0.00    +0.000 A 
ATOM     19  O   UNL     1       1.455   9.054  18.481  0.00  0.00    +0.000 OA
BRANCH  15  21
ATOM     20  C   UNL     1      -1.128  10.526  18.258  0.00  0.00    +0.000 C 
ATOM     21  C   UNL     1      -0.058  10.820  19.323  0.00  0.00    +0.000 C 
ATOM     22  C   UNL     1       0.831  11.980  18.834  0.00  0.00    +0.000 C 
ATOM     23  C   UNL     1      -0.754  11.263  20.624  0.00  0.00    +0.000 C 
ENDBRANCH  15  21
ENDBRANCH  14  18
ENDBRANCH  13  14
ENDBRANCH   1  13
TORSDOF 5
ENDMDL
MODEL 6
REMARK VINA RESULT:      -7.2      3.660      6.033
REMARK  Name = 
REMARK  8 active torsions:
REMARK  status: ('A' for Active; 'I' for Inactive)
REMARK    1  A    between atoms: C_1  and  C_2
REMARK    2  A    between atoms: C_2  and  C_3
REMARK    3  A    between atoms: C_2  and  C_4
REMARK    4  A    between atoms: C_2  and  C_5
REMARK    5  A    between atoms: C_8  and  C_9
REMARK    6  A    between atoms: C_9  and  O_10
REMARK    7  A    between atoms: O_10  and  C_11
REMARK    8  A    between atoms: C_16  and  C_17
REMARK                            x       y       z     vdW  Elec       q    Type
REMARK                         _______ _______ _______ _____ _____    ______ ____
ROOT
ATOM      1  C   UNL     1       3.168   5.035  19.441  0.00  0.00    +0.000 A 
ATOM      2  C   UNL     1       1.864   4.577  19.688  0.00  0.00    +0.000 A 
ATOM      3  C   UNL     1       1.591   3.213  19.800  0.00  0.00    +0.000 A 
ATOM      4  C   UNL     1       2.616   2.287  19.660  0.00  0.00    +0.000 A 
ATOM      5  C   UNL     1       3.908   2.727  19.376  0.00  0.00    +0.000 A 
ATOM      6  C   UNL     1       4.205   4.097  19.240  0.00  0.00    +0.000 A 
ENDROOT
BRANCH   6   7
ATOM      7  C   UNL     1       5.582   4.454  18.875  0.00  0.00    +0.000 A 
ATOM      8  N   UNL     1       6.483   5.033  19.655  0.00  0.00    +0.000 NA
ATOM      9  N   UNL     1       7.669   5.126  18.962  0.00  0.00    +0.000 NA
ATOM     10  C   UNL     1       7.472   4.606  17.776  0.00  0.00    +0.000 A 
ATOM     11  N   UNL     1       6.183   4.189  17.670  0.00  0.00    +0.000 N 
ATOM     12  H   UNL     1       5.739   3.744  16.877  0.00  0.00    +0.000 HD
ENDBRANCH   6   7
BRANCH   1  13
ATOM     13  O   UNL     1       3.469   6.373  19.333  0.00  0.00    +0.000 OA
BRANCH  13  14
ATOM     14  C   UNL     1       3.251   6.955  18.038  0.00  0.00    +0.000 C 
BRANCH  14  18
ATOM     15  C   UNL     1       1.066   9.476  19.304  0.00  0.00    +0.000 A 
ATOM     16  C   UNL     1       1.294   9.962  18.035  0.00  0.00    +0.000 A 
ATOM     17  N   UNL     1       2.173   9.154  17.362  0.00  0.00    +0.000 NA
ATOM     18  C   UNL     1       2.436   8.189  18.223  0.00  0.00    +0.000 A 
ATOM     19  O   UNL     1       1.789   8.317  19.426  0.00  0.00    +0.000 OA
BRANCH  15  21
ATOM     20  C   UNL     1       1.029  10.927  21.327  0.00  0.00    +0.000 C 
ATOM     21  C   UNL     1       0.231   9.928  20.472  0.00  0.00    +0.000 C 
ATOM     22  C   UNL     1      -0.147   8.714  21.343  0.00  0.00    +0.000 C 
ATOM     23  C   UNL     1      -1.070  10.603  19.997  0.00  0.00    +0.000 C 
ENDBRANCH  15  21
ENDBRANCH  14  18
ENDBRANCH  13  14
ENDBRANCH   1  13
TORSDOF 5
ENDMDL
MODEL 7
REMARK VINA RESULT:      -7.2      3.997      6.011
REMARK  Name = 
REMARK  8 active torsions:
REMARK  status: ('A' for Active; 'I' for Inactive)
REMARK    1  A    between atoms: C_1  and  C_2
REMARK    2  A    between atoms: C_2  and  C_3
REMARK    3  A    between atoms: C_2  and  C_4
REMARK    4  A    between atoms: C_2  and  C_5
REMARK    5  A    between atoms: C_8  and  C_9
REMARK    6  A    between atoms: C_9  and  O_10
REMARK    7  A    between atoms: O_10  and  C_11
REMARK    8  A    between atoms: C_16  and  C_17
REMARK                            x       y       z     vdW  Elec       q    Type
REMARK                         _______ _______ _______ _____ _____    ______ ____
ROOT
ATOM      1  C   UNL     1       2.980   4.647  18.587  0.00  0.00    +0.000 A 
ATOM      2  C   UNL     1       1.657   4.176  18.615  0.00  0.00    +0.000 A 
ATOM      3  C   UNL     1       1.369   2.831  18.383  0.00  0.00    +0.000 A 
ATOM      4  C   UNL     1       2.396   1.938  18.114  0.00  0.00    +0.000 A 
ATOM      5  C   UNL     1       3.710   2.400  18.046  0.00  0.00    +0.000 A 
ATOM      6  C   UNL     1       4.025   3.756  18.258  0.00  0.00    +0.000 A 
ENDROOT
BRANCH   6   7
ATOM      7  C   UNL     1       5.430   4.154  18.098  0.00  0.00    +0.000 A 
ATOM      8  N   UNL     1       6.281   4.460  19.066  0.00  0.00    +0.000 NA
ATOM      9  N   UNL     1       7.515   4.702  18.506  0.00  0.00    +0.000 NA
ATOM     10  C   UNL     1       7.396   4.543  17.211  0.00  0.00    +0.000 A 
ATOM     11  N   UNL     1       6.111   4.217  16.908  0.00  0.00    +0.000 N 
ATOM     12  H   UNL     1       5.720   4.028  15.995  0.00  0.00    +0.000 HD
ENDBRANCH   6   7
BRANCH   1  13
ATOM     13  O   UNL     1       3.296   5.966  18.818  0.00  0.00    +0.000 OA
BRANCH  13  14
ATOM     14  C   UNL     1       2.432   6.660  19.731  0.00  0.00    +0.000 C 
BRANCH  14  18
ATOM     15  C   UNL     1       1.089   9.901  19.079  0.00  0.00    +0.000 A 
ATOM     16  C   UNL     1       1.699   9.640  17.871  0.00  0.00    +0.000 A 
ATOM     17  N   UNL     1       2.342   8.431  17.910  0.00  0.00    +0.000 NA
ATOM     18  C   UNL     1       2.087   7.976  19.123  0.00  0.00    +0.000 A 
ATOM     19  O   UNL     1       1.320   8.819  19.889  0.00  0.00    +0.000 OA
BRANCH  15  21
ATOM     20  C   UNL     1      -0.781  11.468  18.584  0.00  0.00    +0.000 C 
ATOM     21  C   UNL     1       0.271  11.042  19.622  0.00  0.00    +0.000 C 
ATOM     22  C   UNL     1       1.189  12.242  19.927  0.00  0.00    +0.000 C 
ATOM     23  C   UNL     1      -0.446  10.641  20.926  0.00  0.00    +0.000 C 
ENDBRANCH  15  21
ENDBRANCH  14  18
ENDBRANCH  13  14
ENDBRANCH   1  13
TORSDOF 5
ENDMDL
MODEL 8
REMARK VINA RESULT:      -7.2      3.835      6.391
REMARK  Name = 
REMARK  8 active torsions:
REMARK  status: ('A' for Active; 'I' for Inactive)
REMARK    1  A    between atoms: C_1  and  C_2
REMARK    2  A    between atoms: C_2  and  C_3
REMARK    3  A    between atoms: C_2  and  C_4
REMARK    4  A    between atoms: C_2  and  C_5
REMARK    5  A    between atoms: C_8  and  C_9
REMARK    6  A    between atoms: C_9  and  O_10
REMARK    7  A    between atoms: O_10  and  C_11
REMARK    8  A    between atoms: C_16  and  C_17
REMARK                            x       y       z     vdW  Elec       q    Type
REMARK                         _______ _______ _______ _____ _____    ______ ____
ROOT
ATOM      1  C   UNL     1       2.833   5.100  19.879  0.00  0.00    +0.000 A 
ATOM      2  C   UNL     1       1.571   4.705  20.348  0.00  0.00    +0.000 A 
ATOM      3  C   UNL     1       1.303   3.369  20.652  0.00  0.00    +0.000 A 
ATOM      4  C   UNL     1       2.292   2.410  20.486  0.00  0.00    +0.000 A 
ATOM      5  C   UNL     1       3.538   2.783  19.984  0.00  0.00    +0.000 A 
ATOM      6  C   UNL     1       3.826   4.122  19.653  0.00  0.00    +0.000 A 
ENDROOT
BRANCH   6   7
ATOM      7  C   UNL     1       5.144   4.401  19.069  0.00  0.00    +0.000 A 
ATOM      8  N   UNL     1       6.162   5.005  19.665  0.00  0.00    +0.000 NA
ATOM      9  N   UNL     1       7.238   5.004  18.807  0.00  0.00    +0.000 NA
ATOM     10  C   UNL     1       6.860   4.404  17.705  0.00  0.00    +0.000 A 
ATOM     11  N   UNL     1       5.558   4.027  17.816  0.00  0.00    +0.000 N 
ATOM     12  H   UNL     1       4.995   3.539  17.131  0.00  0.00    +0.000 HD
ENDBRANCH   6   7
BRANCH   1  13
ATOM     13  O   UNL     1       3.129   6.410  19.577  0.00  0.00    +0.000 OA
BRANCH  13  14
ATOM     14  C   UNL     1       2.782   6.834  18.250  0.00  0.00    +0.000 C 
BRANCH  14  18
ATOM     15  C   UNL     1       1.055   9.781  19.283  0.00  0.00    +0.000 A 
ATOM     16  C   UNL     1       1.468  10.165  18.025  0.00  0.00    +0.000 A 
ATOM     17  N   UNL     1       2.216   9.176  17.443  0.00  0.00    +0.000 NA
ATOM     18  C   UNL     1       2.217   8.211  18.343  0.00  0.00    +0.000 A 
ATOM     19  O   UNL     1       1.521   8.508  19.487  0.00  0.00    +0.000 OA
BRANCH  15  21
ATOM     20  C   UNL     1      -1.122  10.866  19.810  0.00  0.00    +0.000 C 
ATOM     21  C   UNL     1       0.242  10.431  20.370  0.00  0.00    +0.000 C 
ATOM     22  C   UNL     1       0.984  11.673  20.902  0.00  0.00    +0.000 C 
ATOM     23  C   UNL     1       0.016   9.465  21.549  0.00  0.00    +0.000 C 
ENDBRANCH  15  21
ENDBRANCH  14  18
ENDBRANCH  13  14
ENDBRANCH   1  13
TORSDOF 5
ENDMDL
MODEL 9
REMARK VINA RESULT:      -7.1      3.809      5.555
REMARK  Name = 
REMARK  8 active torsions:
REMARK  status: ('A' for Active; 'I' for Inactive)
REMARK    1  A    between atoms: C_1  and  C_2
REMARK    2  A    between atoms: C_2  and  C_3
REMARK    3  A    between atoms: C_2  and  C_4
REMARK    4  A    between atoms: C_2  and  C_5
REMARK    5  A    between atoms: C_8  and  C_9
REMARK    6  A    between atoms: C_9  and  O_10
REMARK    7  A    between atoms: O_10  and  C_11
REMARK    8  A    between atoms: C_16  and  C_17
REMARK                            x       y       z     vdW  Elec       q    Type
REMARK                         _______ _______ _______ _____ _____    ______ ____
ROOT
ATOM      1  C   UNL     1       3.233   5.580  18.317  0.00  0.00    +0.000 A 
ATOM      2  C   UNL     1       2.010   5.018  17.920  0.00  0.00    +0.000 A 
ATOM      3  C   UNL     1       1.898   3.651  17.661  0.00  0.00    +0.000 A 
ATOM      4  C   UNL     1       3.008   2.829  17.789  0.00  0.00    +0.000 A 
ATOM      5  C   UNL     1       4.238   3.381  18.146  0.00  0.00    +0.000 A 
ATOM      6  C   UNL     1       4.380   4.760  18.394  0.00  0.00    +0.000 A 
ENDROOT
BRANCH   6   7
ATOM      7  C   UNL     1       5.730   5.254  18.697  0.00  0.00    +0.000 A 
ATOM      8  N   UNL     1       6.509   4.865  19.695  0.00  0.00    +0.000 NA
ATOM      9  N   UNL     1       7.719   5.511  19.585  0.00  0.00    +0.000 NA
ATOM     10  C   UNL     1       7.658   6.281  18.527  0.00  0.00    +0.000 A 
ATOM     11  N   UNL     1       6.432   6.167  17.951  0.00  0.00    +0.000 N 
ATOM     12  H   UNL     1       6.093   6.633  17.120  0.00  0.00    +0.000 HD
ENDBRANCH   6   7
BRANCH   1  13
ATOM     13  O   UNL     1       3.372   6.923  18.585  0.00  0.00    +0.000 OA
BRANCH  13  14
ATOM     14  C   UNL     1       2.780   7.812  17.626  0.00  0.00    +0.000 C 
BRANCH  14  18
ATOM     15  C   UNL     1       0.842   9.502  20.100  0.00  0.00    +0.000 A 
ATOM     16  C   UNL     1       0.617  10.317  19.010  0.00  0.00    +0.000 A 
ATOM     17  N   UNL     1       1.326   9.874  17.925  0.00  0.00    +0.000 NA
ATOM     18  C   UNL     1       1.938   8.792  18.369  0.00  0.00    +0.000 A 
ATOM     19  O   UNL     1       1.683   8.501  19.685  0.00  0.00    +0.000 OA
BRANCH  15  21
ATOM     20  C   UNL     1      -0.657   8.363  21.727  0.00  0.00    +0.000 C 
ATOM     21  C   UNL     1       0.365   9.494  21.527  0.00  0.00    +0.000 C 
ATOM     22  C   UNL     1      -0.308  10.841  21.858  0.00  0.00    +0.000 C 
ATOM     23  C   UNL     1       1.538   9.289  22.504  0.00  0.00    +0.000 C 
ENDBRANCH  15  21
ENDBRANCH  14  18
ENDBRANCH  13  14
ENDBRANCH   1  13
TORSDOF 5
ENDMDL
