MODEL 1
REMARK VINA RESULT:      -6.9      0.000      0.000
REMARK  Name = 
REMARK  3 active torsions:
REMARK  status: ('A' for Active; 'I' for Inactive)
REMARK    1  A    between atoms: C_1  and  S_2
REMARK    2  A    between atoms: S_2  and  C_4
REMARK    3  A    between atoms: N_14  and  C_15
REMARK                            x       y       z     vdW  Elec       q    Type
REMARK                         _______ _______ _______ _____ _____    ______ ____
ROOT
ATOM      1  C   UNL     1       5.971   4.546  18.339  0.00  0.00    +0.000 A 
ATOM      2  N   UNL     1       5.601   4.398  19.596  0.00  0.00    +0.000 NA
ATOM      3  C   UNL     1       4.342   3.867  19.560  0.00  0.00    +0.000 A 
ATOM      4  C   UNL     1       3.501   3.508  20.627  0.00  0.00    +0.000 A 
ATOM      5  C   UNL     1       2.234   2.981  20.344  0.00  0.00    +0.000 A 
ATOM      6 CL   UNL     1       1.235   2.553  21.689  0.00  0.00    +0.000 Cl
ATOM      7  C   UNL     1       1.809   2.816  19.022  0.00  0.00    +0.000 A 
ATOM      8 CL   UNL     1       0.253   2.176  18.623  0.00  0.00    +0.000 Cl
ATOM      9  C   UNL     1       2.641   3.175  17.951  0.00  0.00    +0.000 A 
ATOM     10  C   UNL     1       3.910   3.698  18.251  0.00  0.00    +0.000 A 
ATOM     11  N   UNL     1       4.962   4.161  17.476  0.00  0.00    +0.000 N 
ENDROOT
BRANCH  11  12
ATOM     12  C   UNL     1       4.970   4.275  16.030  0.00  0.00    +0.000 C 
ATOM     13  C   UNL     1       5.286   5.671  15.491  0.00  0.00    +0.000 C 
ATOM     14  C   UNL     1       5.669   5.424  14.039  0.00  0.00    +0.000 C 
ATOM     15  C   UNL     1       6.229   4.004  13.972  0.00  0.00    +0.000 C 
ATOM     16  C   UNL     1       5.971   3.355  15.327  0.00  0.00    +0.000 C 
ENDBRANCH  11  12
BRANCH   1  18
ATOM     17  C   UNL     1       7.941   5.996  19.483  0.00  0.00    +0.000 C 
ATOM     18  S   UNL     1       7.527   5.220  17.909  0.00  0.00    +0.000 S 
ATOM     19  O   UNL     1       8.510   4.021  17.659  0.00  0.00    +0.000 OA
ENDBRANCH   1  18
TORSDOF 2
ENDMDL
MODEL 2
REMARK VINA RESULT:      -6.9      2.049      3.766
REMARK  Name = 
REMARK  3 active torsions:
REMARK  status: ('A' for Active; 'I' for Inactive)
REMARK    1  A    between atoms: C_1  and  S_2
REMARK    2  A    between atoms: S_2  and  C_4
REMARK    3  A    between atoms: N_14  and  C_15
REMARK                            x       y       z     vdW  Elec       q    Type
REMARK                         _______ _______ _______ _____ _____    ______ ____
ROOT
ATOM      1  C   UNL     1       5.633   4.211  15.647  0.00  0.00    +0.000 A 
ATOM      2  N   UNL     1       4.525   3.496  15.679  0.00  0.00    +0.000 NA
ATOM      3  C   UNL     1       3.916   3.794  16.865  0.00  0.00    +0.000 A 
ATOM      4  C   UNL     1       2.702   3.311  17.383  0.00  0.00    +0.000 A 
ATOM      5  C   UNL     1       2.274   3.760  18.640  0.00  0.00    +0.000 A 
ATOM      6 CL   UNL     1       0.775   3.138  19.235  0.00  0.00    +0.000 Cl
ATOM      7  C   UNL     1       3.042   4.672  19.370  0.00  0.00    +0.000 A 
ATOM      8 CL   UNL     1       2.559   5.252  20.926  0.00  0.00    +0.000 Cl
ATOM      9  C   UNL     1       4.256   5.157  18.861  0.00  0.00    +0.000 A 
ATOM     10  C   UNL     1       4.669   4.700  17.598  0.00  0.00    +0.000 A 
ATOM     11  N   UNL     1       5.784   4.943  16.810  0.00  0.00    +0.000 N 
ENDROOT
BRANCH  11  12
ATOM     12  C   UNL     1       6.923   5.764  17.174  0.00  0.00    +0.000 C 
ATOM     13  C   UNL     1       6.666   7.272  17.161  0.00  0.00    +0.000 C 
ATOM     14  C   UNL     1       7.811   7.845  17.984  0.00  0.00    +0.000 C 
ATOM     15  C   UNL     1       8.231   6.752  18.965  0.00  0.00    +0.000 C 
ATOM     16  C   UNL     1       7.486   5.482  18.569  0.00  0.00    +0.000 C 
ENDBRANCH  11  12
BRANCH   1  18
ATOM     17  C   UNL     1       5.591   3.624  13.012  0.00  0.00    +0.000 C 
ATOM     18  S   UNL     1       6.747   4.127  14.301  0.00  0.00    +0.000 S 
ATOM     19  O   UNL     1       7.239   5.588  14.002  0.00  0.00    +0.000 OA
ENDBRANCH   1  18
TORSDOF 2
ENDMDL
MODEL 3
REMARK VINA RESULT:      -6.7      3.163      4.607
REMARK  Name = 
REMARK  3 active torsions:
REMARK  status: ('A' for Active; 'I' for Inactive)
REMARK    1  A    between atoms: C_1  and  S_2
REMARK    2  A    between atoms: S_2  and  C_4
REMARK    3  A    between atoms: N_14  and  C_15
REMARK                            x       y       z     vdW  Elec       q    Type
REMARK                         _______ _______ _______ _____ _____    ______ ____
ROOT
ATOM      1  C   UNL     1       5.318   5.427  16.583  0.00  0.00    +0.000 A 
ATOM      2  N   UNL     1       4.926   6.660  16.326  0.00  0.00    +0.000 NA
ATOM      3  C   UNL     1       4.007   6.973  17.288  0.00  0.00    +0.000 A 
ATOM      4  C   UNL     1       3.294   8.169  17.475  0.00  0.00    +0.000 A 
ATOM      5  C   UNL     1       2.390   8.260  18.542  0.00  0.00    +0.000 A 
ATOM      6 CL   UNL     1       1.535   9.751  18.732  0.00  0.00    +0.000 Cl
ATOM      7  C   UNL     1       2.196   7.178  19.406  0.00  0.00    +0.000 A 
ATOM      8 CL   UNL     1       1.088   7.239  20.732  0.00  0.00    +0.000 Cl
ATOM      9  C   UNL     1       2.902   5.980  19.224  0.00  0.00    +0.000 A 
ATOM     10  C   UNL     1       3.809   5.906  18.153  0.00  0.00    +0.000 A 
ATOM     11  N   UNL     1       4.644   4.909  17.673  0.00  0.00    +0.000 N 
ENDROOT
BRANCH  11  12
ATOM     12  C   UNL     1       4.738   3.555  18.186  0.00  0.00    +0.000 C 
ATOM     13  C   UNL     1       4.705   3.437  19.710  0.00  0.00    +0.000 C 
ATOM     14  C   UNL     1       4.366   1.973  19.956  0.00  0.00    +0.000 C 
ATOM     15  C   UNL     1       3.569   1.502  18.740  0.00  0.00    +0.000 C 
ATOM     16  C   UNL     1       3.631   2.616  17.702  0.00  0.00    +0.000 C 
ENDBRANCH  11  12
BRANCH   1  18
ATOM     17  C   UNL     1       5.445   4.262  14.150  0.00  0.00    +0.000 C 
ATOM     18  S   UNL     1       6.491   4.603  15.579  0.00  0.00    +0.000 S 
ATOM     19  O   UNL     1       7.585   5.653  15.170  0.00  0.00    +0.000 OA
ENDBRANCH   1  18
TORSDOF 2
ENDMDL
MODEL 4
REMARK VINA RESULT:      -6.6      4.168      5.717
REMARK  Name = 
REMARK  3 active torsions:
REMARK  status: ('A' for Active; 'I' for Inactive)
REMARK    1  A    between atoms: C_1  and  S_2
REMARK    2  A    between atoms: S_2  and  C_4
REMARK    3  A    between atoms: N_14  and  C_15
REMARK                            x       y       z     vdW  Elec       q    Type
REMARK                         _______ _______ _______ _____ _____    ______ ____
ROOT
ATOM      1  C   UNL     1       3.732   5.933  17.794  0.00  0.00    +0.000 A 
ATOM      2  N   UNL     1       3.584   7.157  17.324  0.00  0.00    +0.000 NA
ATOM      3  C   UNL     1       2.756   7.801  18.201  0.00  0.00    +0.000 A 
ATOM      4  C   UNL     1       2.292   9.126  18.168  0.00  0.00    +0.000 A 
ATOM      5  C   UNL     1       1.436   9.570  19.186  0.00  0.00    +0.000 A 
ATOM      6 CL   UNL     1       0.891  11.209  19.103  0.00  0.00    +0.000 Cl
ATOM      7  C   UNL     1       1.047   8.709  20.216  0.00  0.00    +0.000 A 
ATOM      8 CL   UNL     1      -0.011   9.208  21.490  0.00  0.00    +0.000 Cl
ATOM      9  C   UNL     1       1.504   7.384  20.254  0.00  0.00    +0.000 A 
ATOM     10  C   UNL     1       2.365   6.955  19.229  0.00  0.00    +0.000 A 
ATOM     11  N   UNL     1       2.984   5.748  18.942  0.00  0.00    +0.000 N 
ENDROOT
BRANCH  11  12
ATOM     12  C   UNL     1       2.820   4.509  19.678  0.00  0.00    +0.000 C 
ATOM     13  C   UNL     1       2.478   4.676  21.159  0.00  0.00    +0.000 C 
ATOM     14  C   UNL     1       1.931   3.314  21.564  0.00  0.00    +0.000 C 
ATOM     15  C   UNL     1       1.336   2.692  20.301  0.00  0.00    +0.000 C 
ATOM     16  C   UNL     1       1.727   3.588  19.131  0.00  0.00    +0.000 C 
ENDBRANCH  11  12
BRANCH   1  18
ATOM     17  C   UNL     1       5.394   5.788  15.670  0.00  0.00    +0.000 C 
ATOM     18  S   UNL     1       4.709   4.740  16.968  0.00  0.00    +0.000 S 
ATOM     19  O   UNL     1       5.865   4.316  17.943  0.00  0.00    +0.000 OA
ENDBRANCH   1  18
TORSDOF 2
ENDMDL
MODEL 5
REMARK VINA RESULT:      -6.5      1.774      3.532
REMARK  Name = 
REMARK  3 active torsions:
REMARK  status: ('A' for Active; 'I' for Inactive)
REMARK    1  A    between atoms: C_1  and  S_2
REMARK    2  A    between atoms: S_2  and  C_4
REMARK    3  A    between atoms: N_14  and  C_15
REMARK                            x       y       z     vdW  Elec       q    Type
REMARK                         _______ _______ _______ _____ _____    ______ ____
ROOT
ATOM      1  C   UNL     1       5.499   4.408  16.324  0.00  0.00    +0.000 A 
ATOM      2  N   UNL     1       4.579   3.484  16.130  0.00  0.00    +0.000 NA
ATOM      3  C   UNL     1       3.694   3.608  17.164  0.00  0.00    +0.000 A 
ATOM      4  C   UNL     1       2.526   2.871  17.423  0.00  0.00    +0.000 A 
ATOM      5  C   UNL     1       1.769   3.177  18.562  0.00  0.00    +0.000 A 
ATOM      6 CL   UNL     1       0.340   2.244  18.839  0.00  0.00    +0.000 Cl
ATOM      7  C   UNL     1       2.170   4.197  19.431  0.00  0.00    +0.000 A 
ATOM      8 CL   UNL     1       1.274   4.608  20.852  0.00  0.00    +0.000 Cl
ATOM      9  C   UNL     1       3.336   4.935  19.181  0.00  0.00    +0.000 A 
ATOM     10  C   UNL     1       4.082   4.619  18.032  0.00  0.00    +0.000 A 
ATOM     11  N   UNL     1       5.259   5.111  17.490  0.00  0.00    +0.000 N 
ENDROOT
BRANCH  11  12
ATOM     12  C   UNL     1       6.107   6.130  18.078  0.00  0.00    +0.000 C 
ATOM     13  C   UNL     1       7.523   5.672  18.429  0.00  0.00    +0.000 C 
ATOM     14  C   UNL     1       8.301   6.972  18.582  0.00  0.00    +0.000 C 
ATOM     15  C   UNL     1       7.605   8.002  17.694  0.00  0.00    +0.000 C 
ATOM     16  C   UNL     1       6.309   7.368  17.200  0.00  0.00    +0.000 C 
ENDBRANCH  11  12
BRANCH   1  18
ATOM     17  C   UNL     1       6.275   3.569  13.877  0.00  0.00    +0.000 C 
ATOM     18  S   UNL     1       6.856   4.602  15.237  0.00  0.00    +0.000 S 
ATOM     19  O   UNL     1       6.876   6.099  14.766  0.00  0.00    +0.000 OA
ENDBRANCH   1  18
TORSDOF 2
ENDMDL
MODEL 6
REMARK VINA RESULT:      -6.5      3.888      4.287
REMARK  Name = 
REMARK  3 active torsions:
REMARK  status: ('A' for Active; 'I' for Inactive)
REMARK    1  A    between atoms: C_1  and  S_2
REMARK    2  A    between atoms: S_2  and  C_4
REMARK    3  A    between atoms: N_14  and  C_15
REMARK                            x       y       z     vdW  Elec       q    Type
REMARK                         _______ _______ _______ _____ _____    ______ ____
ROOT
ATOM      1  C   UNL     1       3.680   4.372  19.087  0.00  0.00    +0.000 A 
ATOM      2  N   UNL     1       2.838   4.808  20.005  0.00  0.00    +0.000 NA
ATOM      3  C   UNL     1       2.529   6.092  19.654  0.00  0.00    +0.000 A 
ATOM      4  C   UNL     1       1.667   7.000  20.292  0.00  0.00    +0.000 A 
ATOM      5  C   UNL     1       1.508   8.282  19.746  0.00  0.00    +0.000 A 
ATOM      6 CL   UNL     1       0.436   9.364  20.565  0.00  0.00    +0.000 Cl
ATOM      7  C   UNL     1       2.196   8.654  18.588  0.00  0.00    +0.000 A 
ATOM      8 CL   UNL     1       2.037  10.224  17.880  0.00  0.00    +0.000 Cl
ATOM      9  C   UNL     1       3.061   7.754  17.947  0.00  0.00    +0.000 A 
ATOM     10  C   UNL     1       3.207   6.472  18.504  0.00  0.00    +0.000 A 
ATOM     11  N   UNL     1       3.961   5.360  18.163  0.00  0.00    +0.000 N 
ENDROOT
BRANCH  11  12
ATOM     12  C   UNL     1       4.916   5.280  17.073  0.00  0.00    +0.000 C 
ATOM     13  C   UNL     1       6.365   5.036  17.496  0.00  0.00    +0.000 C 
ATOM     14  C   UNL     1       7.042   4.554  16.221  0.00  0.00    +0.000 C 
ATOM     15  C   UNL     1       5.956   3.890  15.376  0.00  0.00    +0.000 C 
ATOM     16  C   UNL     1       4.621   4.176  16.054  0.00  0.00    +0.000 C 
ENDBRANCH  11  12
BRANCH   1  18
ATOM     17  C   UNL     1       3.921   2.338  20.847  0.00  0.00    +0.000 C 
ATOM     18  S   UNL     1       4.360   2.761  19.150  0.00  0.00    +0.000 S 
ATOM     19  O   UNL     1       3.531   1.858  18.169  0.00  0.00    +0.000 OA
ENDBRANCH   1  18
TORSDOF 2
ENDMDL
MODEL 7
REMARK VINA RESULT:      -6.5      4.363      5.865
REMARK  Name = 
REMARK  3 active torsions:
REMARK  status: ('A' for Active; 'I' for Inactive)
REMARK    1  A    between atoms: C_1  and  S_2
REMARK    2  A    between atoms: S_2  and  C_4
REMARK    3  A    between atoms: N_14  and  C_15
REMARK                            x       y       z     vdW  Elec       q    Type
REMARK                         _______ _______ _______ _____ _____    ______ ____
ROOT
ATOM      1  C   UNL     1       3.402   6.121  18.087  0.00  0.00    +0.000 A 
ATOM      2  N   UNL     1       3.212   7.382  17.747  0.00  0.00    +0.000 NA
ATOM      3  C   UNL     1       2.388   7.910  18.701  0.00  0.00    +0.000 A 
ATOM      4  C   UNL     1       1.889   9.219  18.813  0.00  0.00    +0.000 A 
ATOM      5  C   UNL     1       1.046   9.533  19.888  0.00  0.00    +0.000 A 
ATOM      6 CL   UNL     1       0.457  11.156  19.984  0.00  0.00    +0.000 Cl
ATOM      7  C   UNL     1       0.701   8.561  20.831  0.00  0.00    +0.000 A 
ATOM      8 CL   UNL     1      -0.340   8.898  22.170  0.00  0.00    +0.000 Cl
ATOM      9  C   UNL     1       1.193   7.251  20.725  0.00  0.00    +0.000 A 
ATOM     10  C   UNL     1       2.042   6.953  19.645  0.00  0.00    +0.000 A 
ATOM     11  N   UNL     1       2.684   5.800  19.223  0.00  0.00    +0.000 N 
ENDROOT
BRANCH  11  12
ATOM     12  C   UNL     1       2.569   4.488  19.832  0.00  0.00    +0.000 C 
ATOM     13  C   UNL     1       2.606   4.477  21.361  0.00  0.00    +0.000 C 
ATOM     14  C   UNL     1       2.029   3.118  21.731  0.00  0.00    +0.000 C 
ATOM     15  C   UNL     1       1.089   2.720  20.594  0.00  0.00    +0.000 C 
ATOM     16  C   UNL     1       1.286   3.735  19.472  0.00  0.00    +0.000 C 
ENDBRANCH  11  12
BRANCH   1  18
ATOM     17  C   UNL     1       5.683   4.696  18.332  0.00  0.00    +0.000 C 
ATOM     18  S   UNL     1       4.391   5.046  17.124  0.00  0.00    +0.000 S 
ATOM     19  O   UNL     1       3.560   3.737  16.873  0.00  0.00    +0.000 OA
ENDBRANCH   1  18
TORSDOF 2
ENDMDL
MODEL 8
REMARK VINA RESULT:      -6.4      4.485      6.188
REMARK  Name = 
REMARK  3 active torsions:
REMARK  status: ('A' for Active; 'I' for Inactive)
REMARK    1  A    between atoms: C_1  and  S_2
REMARK    2  A    between atoms: S_2  and  C_4
REMARK    3  A    between atoms: N_14  and  C_15
REMARK                            x       y       z     vdW  Elec       q    Type
REMARK                         _______ _______ _______ _____ _____    ______ ____
ROOT
ATOM      1  C   UNL     1       3.183   5.724  18.432  0.00  0.00    +0.000 A 
ATOM      2  N   UNL     1       3.108   6.820  17.702  0.00  0.00    +0.000 NA
ATOM      3  C   UNL     1       2.426   7.731  18.458  0.00  0.00    +0.000 A 
ATOM      4  C   UNL     1       2.086   9.059  18.149  0.00  0.00    +0.000 A 
ATOM      5  C   UNL     1       1.369   9.811  19.090  0.00  0.00    +0.000 A 
ATOM      6 CL   UNL     1       0.974  11.441  18.667  0.00  0.00    +0.000 Cl
ATOM      7  C   UNL     1       0.994   9.251  20.315  0.00  0.00    +0.000 A 
ATOM      8 CL   UNL     1       0.104  10.136  21.504  0.00  0.00    +0.000 Cl
ATOM      9  C   UNL     1       1.327   7.925  20.629  0.00  0.00    +0.000 A 
ATOM     10  C   UNL     1       2.050   7.185  19.677  0.00  0.00    +0.000 A 
ATOM     11  N   UNL     1       2.525   5.884  19.637  0.00  0.00    +0.000 N 
ENDROOT
BRANCH  11  12
ATOM     12  C   UNL     1       2.313   4.867  20.649  0.00  0.00    +0.000 C 
ATOM     13  C   UNL     1       1.020   4.064  20.500  0.00  0.00    +0.000 C 
ATOM     14  C   UNL     1       1.256   2.829  21.358  0.00  0.00    +0.000 C 
ATOM     15  C   UNL     1       2.766   2.597  21.382  0.00  0.00    +0.000 C 
ATOM     16  C   UNL     1       3.417   3.809  20.726  0.00  0.00    +0.000 C 
ENDBRANCH  11  12
BRANCH   1  18
ATOM     17  C   UNL     1       2.515   3.402  17.224  0.00  0.00    +0.000 C 
ATOM     18  S   UNL     1       3.967   4.275  17.842  0.00  0.00    +0.000 S 
ATOM     19  O   UNL     1       4.870   4.687  16.625  0.00  0.00    +0.000 OA
ENDBRANCH   1  18
TORSDOF 2
ENDMDL
MODEL 9
REMARK VINA RESULT:      -6.4      3.791      4.342
REMARK  Name = 
REMARK  3 active torsions:
REMARK  status: ('A' for Active; 'I' for Inactive)
REMARK    1  A    between atoms: C_1  and  S_2
REMARK    2  A    between atoms: S_2  and  C_4
REMARK    3  A    between atoms: N_14  and  C_15
REMARK                            x       y       z     vdW  Elec       q    Type
REMARK                         _______ _______ _______ _____ _____    ______ ____
ROOT
ATOM      1  C   UNL     1       3.187   3.808  19.945  0.00  0.00    +0.000 A 
ATOM      2  N   UNL     1       2.370   4.478  20.735  0.00  0.00    +0.000 NA
ATOM      3  C   UNL     1       2.250   5.724  20.185  0.00  0.00    +0.000 A 
ATOM      4  C   UNL     1       1.488   6.818  20.630  0.00  0.00    +0.000 A 
ATOM      5  C   UNL     1       1.525   8.012  19.898  0.00  0.00    +0.000 A 
ATOM      6 CL   UNL     1       0.570   9.330  20.483  0.00  0.00    +0.000 Cl
ATOM      7  C   UNL     1       2.308   8.118  18.745  0.00  0.00    +0.000 A 
ATOM      8 CL   UNL     1       2.391   9.572  17.812  0.00  0.00    +0.000 Cl
ATOM      9  C   UNL     1       3.074   7.031  18.296  0.00  0.00    +0.000 A 
ATOM     10  C   UNL     1       3.023   5.839  19.039  0.00  0.00    +0.000 A 
ATOM     11  N   UNL     1       3.639   4.604  18.909  0.00  0.00    +0.000 N 
ENDROOT
BRANCH  11  12
ATOM     12  C   UNL     1       4.622   4.243  17.905  0.00  0.00    +0.000 C 
ATOM     13  C   UNL     1       4.173   4.441  16.457  0.00  0.00    +0.000 C 
ATOM     14  C   UNL     1       5.474   4.434  15.667  0.00  0.00    +0.000 C 
ATOM     15  C   UNL     1       6.563   4.927  16.618  0.00  0.00    +0.000 C 
ATOM     16  C   UNL     1       5.942   5.011  18.008  0.00  0.00    +0.000 C 
ENDBRANCH  11  12
BRANCH   1  18
ATOM     17  C   UNL     1       3.270   1.428  18.673  0.00  0.00    +0.000 C 
ATOM     18  S   UNL     1       3.644   2.154  20.281  0.00  0.00    +0.000 S 
ATOM     19  O   UNL     1       5.198   2.127  20.502  0.00  0.00    +0.000 OA
ENDBRANCH   1  18
TORSDOF 2
ENDMDL
