MODEL 1
REMARK VINA RESULT:      -7.5      0.000      0.000
REMARK  Name = 
REMARK  8 active torsions:
REMARK  status: ('A' for Active; 'I' for Inactive)
REMARK    1  A    between atoms: C_6  and  C_7
REMARK    2  A    between atoms: C_6  and  C_8
REMARK    3  A    between atoms: C_8  and  O_9
REMARK    4  A    between atoms: C_10  and  O_11
REMARK    5  A    between atoms: C_14  and  C_15
REMARK    6  A    between atoms: C_16  and  C_17
REMARK    7  A    between atoms: C_18  and  C_19
REMARK    8  A    between atoms: C_19  and  O_21
REMARK                            x       y       z     vdW  Elec       q    Type
REMARK                         _______ _______ _______ _____ _____    ______ ____
ROOT
ATOM      1  C   UNL     1       5.286   7.738  17.404  0.00  0.00    +0.000 C 
ATOM      2  C   UNL     1       4.253   6.878  17.496  0.00  0.00    +0.000 C 
ATOM      3  C   UNL     1       3.059   7.211  18.363  0.00  0.00    +0.000 C 
ATOM      4  C   UNL     1       2.710   6.119  19.393  0.00  0.00    +0.000 C 
ATOM      5  C   UNL     1       2.661   4.706  18.777  0.00  0.00    +0.000 C 
ATOM      6  C   UNL     1       2.181   3.514  19.731  0.00  0.00    +0.000 C 
ATOM      7  C   UNL     1       0.945   3.930  20.564  0.00  0.00    +0.000 C 
ATOM      8  C   UNL     1       1.788   2.367  18.753  0.00  0.00    +0.000 C 
ATOM      9  C   UNL     1       2.971   1.906  17.902  0.00  0.00    +0.000 C 
ATOM     10  C   UNL     1       3.766   3.017  17.215  0.00  0.00    +0.000 C 
ATOM     11  C   UNL     1       3.958   4.384  17.953  0.00  0.00    +0.000 C 
ATOM     12  C   UNL     1       5.235   4.398  18.850  0.00  0.00    +0.000 C 
ATOM     13  C   UNL     1       4.189   5.500  16.835  0.00  0.00    +0.000 C 
ENDROOT
BRANCH   8  14
ATOM     14  O   UNL     1       1.229   1.248  19.439  0.00  0.00    +0.000 OA
ATOM     15  H   UNL     1       0.354   1.488  19.786  0.00  0.00    +0.000 HD
ENDBRANCH   8  14
BRANCH  13  16
ATOM     16  C   UNL     1       5.434   5.169  16.012  0.00  0.00    +0.000 C 
ATOM     17  C   UNL     1       5.560   5.150  14.673  0.00  0.00    +0.000 C 
BRANCH  17  18
ATOM     18  C   UNL     1       6.846   4.675  14.121  0.00  0.00    +0.000 C 
ATOM     19  O   UNL     1       7.894   5.284  14.218  0.00  0.00    +0.000 OA
BRANCH  18  20
ATOM     20  O   UNL     1       6.733   3.484  13.510  0.00  0.00    +0.000 OA
ATOM     21  H   UNL     1       7.146   3.433  12.631  0.00  0.00    +0.000 HD
ENDBRANCH  18  20
ENDBRANCH  17  18
ENDBRANCH  13  16
BRANCH   6  22
ATOM     22  C   UNL     1       3.192   2.936  20.756  0.00  0.00    +0.000 C 
BRANCH  22  23
ATOM     23  O   UNL     1       2.572   2.584  21.985  0.00  0.00    +0.000 OA
ATOM     24  H   UNL     1       3.161   1.944  22.423  0.00  0.00    +0.000 HD
ENDBRANCH  22  23
ENDBRANCH   6  22
TORSDOF 6
ENDMDL
MODEL 2
REMARK VINA RESULT:      -7.1      2.539      6.167
REMARK  Name = 
REMARK  8 active torsions:
REMARK  status: ('A' for Active; 'I' for Inactive)
REMARK    1  A    between atoms: C_6  and  C_7
REMARK    2  A    between atoms: C_6  and  C_8
REMARK    3  A    between atoms: C_8  and  O_9
REMARK    4  A    between atoms: C_10  and  O_11
REMARK    5  A    between atoms: C_14  and  C_15
REMARK    6  A    between atoms: C_16  and  C_17
REMARK    7  A    between atoms: C_18  and  C_19
REMARK    8  A    between atoms: C_19  and  O_21
REMARK                            x       y       z     vdW  Elec       q    Type
REMARK                         _______ _______ _______ _____ _____    ______ ____
ROOT
ATOM      1  C   UNL     1       1.240   3.939  20.415  0.00  0.00    +0.000 C 
ATOM      2  C   UNL     1       1.774   4.191  19.204  0.00  0.00    +0.000 C 
ATOM      3  C   UNL     1       2.038   3.059  18.237  0.00  0.00    +0.000 C 
ATOM      4  C   UNL     1       3.486   3.008  17.714  0.00  0.00    +0.000 C 
ATOM      5  C   UNL     1       3.997   4.379  17.226  0.00  0.00    +0.000 C 
ATOM      6  C   UNL     1       5.443   4.415  16.543  0.00  0.00    +0.000 C 
ATOM      7  C   UNL     1       5.622   3.237  15.554  0.00  0.00    +0.000 C 
ATOM      8  C   UNL     1       5.471   5.761  15.760  0.00  0.00    +0.000 C 
ATOM      9  C   UNL     1       5.305   6.967  16.684  0.00  0.00    +0.000 C 
ATOM     10  C   UNL     1       4.143   6.887  17.675  0.00  0.00    +0.000 C 
ATOM     11  C   UNL     1       3.768   5.502  18.300  0.00  0.00    +0.000 C 
ATOM     12  C   UNL     1       4.553   5.215  19.617  0.00  0.00    +0.000 C 
ATOM     13  C   UNL     1       2.226   5.566  18.707  0.00  0.00    +0.000 C 
ENDROOT
BRANCH   8  14
ATOM     14  O   UNL     1       6.666   5.909  14.994  0.00  0.00    +0.000 OA
ATOM     15  H   UNL     1       7.414   5.540  15.492  0.00  0.00    +0.000 HD
ENDBRANCH   8  14
BRANCH  13  16
ATOM     16  C   UNL     1       1.998   6.680  19.728  0.00  0.00    +0.000 C 
ATOM     17  C   UNL     1       1.389   7.864  19.539  0.00  0.00    +0.000 C 
BRANCH  17  18
ATOM     18  C   UNL     1       1.407   8.823  20.664  0.00  0.00    +0.000 C 
ATOM     19  O   UNL     1       1.049   9.982  20.575  0.00  0.00    +0.000 OA
BRANCH  18  20
ATOM     20  O   UNL     1       1.850   8.267  21.804  0.00  0.00    +0.000 OA
ATOM     21  H   UNL     1       2.804   8.361  21.962  0.00  0.00    +0.000 HD
ENDBRANCH  18  20
ENDBRANCH  17  18
ENDBRANCH  13  16
BRANCH   6  22
ATOM     22  C   UNL     1       6.694   4.374  17.460  0.00  0.00    +0.000 C 
BRANCH  22  23
ATOM     23  O   UNL     1       7.888   4.118  16.733  0.00  0.00    +0.000 OA
ATOM     24  H   UNL     1       8.527   3.743  17.365  0.00  0.00    +0.000 HD
ENDBRANCH  22  23
ENDBRANCH   6  22
TORSDOF 6
ENDMDL
MODEL 3
REMARK VINA RESULT:      -7.1      2.981      4.622
REMARK  Name = 
REMARK  8 active torsions:
REMARK  status: ('A' for Active; 'I' for Inactive)
REMARK    1  A    between atoms: C_6  and  C_7
REMARK    2  A    between atoms: C_6  and  C_8
REMARK    3  A    between atoms: C_8  and  O_9
REMARK    4  A    between atoms: C_10  and  O_11
REMARK    5  A    between atoms: C_14  and  C_15
REMARK    6  A    between atoms: C_16  and  C_17
REMARK    7  A    between atoms: C_18  and  C_19
REMARK    8  A    between atoms: C_19  and  O_21
REMARK                            x       y       z     vdW  Elec       q    Type
REMARK                         _______ _______ _______ _____ _____    ______ ____
ROOT
ATOM      1  C   UNL     1       4.772   6.894  16.207  0.00  0.00    +0.000 C 
ATOM      2  C   UNL     1       4.699   6.322  17.425  0.00  0.00    +0.000 C 
ATOM      3  C   UNL     1       5.697   5.259  17.829  0.00  0.00    +0.000 C 
ATOM      4  C   UNL     1       5.051   3.950  18.320  0.00  0.00    +0.000 C 
ATOM      5  C   UNL     1       3.933   4.183  19.356  0.00  0.00    +0.000 C 
ATOM      6  C   UNL     1       3.282   2.886  20.029  0.00  0.00    +0.000 C 
ATOM      7  C   UNL     1       4.371   1.861  20.430  0.00  0.00    +0.000 C 
ATOM      8  C   UNL     1       2.575   3.423  21.308  0.00  0.00    +0.000 C 
ATOM      9  C   UNL     1       1.482   4.438  20.978  0.00  0.00    +0.000 C 
ATOM     10  C   UNL     1       1.885   5.557  20.015  0.00  0.00    +0.000 C 
ATOM     11  C   UNL     1       2.883   5.238  18.853  0.00  0.00    +0.000 C 
ATOM     12  C   UNL     1       2.153   4.760  17.560  0.00  0.00    +0.000 C 
ATOM     13  C   UNL     1       3.617   6.603  18.470  0.00  0.00    +0.000 C 
ENDROOT
BRANCH   8  14
ATOM     14  O   UNL     1       2.024   2.369  22.097  0.00  0.00    +0.000 OA
ATOM     15  H   UNL     1       1.073   2.293  21.911  0.00  0.00    +0.000 HD
ENDBRANCH   8  14
BRANCH  13  16
ATOM     16  C   UNL     1       2.593   7.639  18.010  0.00  0.00    +0.000 C 
ATOM     17  C   UNL     1       2.494   8.928  18.384  0.00  0.00    +0.000 C 
BRANCH  17  18
ATOM     18  C   UNL     1       1.331   9.691  17.885  0.00  0.00    +0.000 C 
ATOM     19  O   UNL     1       0.253   9.193  17.621  0.00  0.00    +0.000 OA
BRANCH  18  20
ATOM     20  O   UNL     1       1.590  11.004  17.768  0.00  0.00    +0.000 OA
ATOM     21  H   UNL     1       2.201  11.238  17.049  0.00  0.00    +0.000 HD
ENDBRANCH  18  20
ENDBRANCH  17  18
ENDBRANCH  13  16
BRANCH   6  22
ATOM     22  C   UNL     1       2.238   2.077  19.215  0.00  0.00    +0.000 C 
BRANCH  22  23
ATOM     23  O   UNL     1       2.834   1.322  18.170  0.00  0.00    +0.000 OA
ATOM     24  H   UNL     1       3.740   1.663  18.059  0.00  0.00    +0.000 HD
ENDBRANCH  22  23
ENDBRANCH   6  22
TORSDOF 6
ENDMDL
MODEL 4
REMARK VINA RESULT:      -6.5      0.800      1.025
REMARK  Name = 
REMARK  8 active torsions:
REMARK  status: ('A' for Active; 'I' for Inactive)
REMARK    1  A    between atoms: C_6  and  C_7
REMARK    2  A    between atoms: C_6  and  C_8
REMARK    3  A    between atoms: C_8  and  O_9
REMARK    4  A    between atoms: C_10  and  O_11
REMARK    5  A    between atoms: C_14  and  C_15
REMARK    6  A    between atoms: C_16  and  C_17
REMARK    7  A    between atoms: C_18  and  C_19
REMARK    8  A    between atoms: C_19  and  O_21
REMARK                            x       y       z     vdW  Elec       q    Type
REMARK                         _______ _______ _______ _____ _____    ______ ____
ROOT
ATOM      1  C   UNL     1       5.925   7.028  17.090  0.00  0.00    +0.000 C 
ATOM      2  C   UNL     1       4.694   6.527  17.309  0.00  0.00    +0.000 C 
ATOM      3  C   UNL     1       3.767   7.190  18.303  0.00  0.00    +0.000 C 
ATOM      4  C   UNL     1       3.215   6.234  19.378  0.00  0.00    +0.000 C 
ATOM      5  C   UNL     1       2.662   4.921  18.787  0.00  0.00    +0.000 C 
ATOM      6  C   UNL     1       1.948   3.911  19.802  0.00  0.00    +0.000 C 
ATOM      7  C   UNL     1       1.003   4.667  20.767  0.00  0.00    +0.000 C 
ATOM      8  C   UNL     1       1.112   2.967  18.888  0.00  0.00    +0.000 C 
ATOM      9  C   UNL     1       1.991   2.185  17.912  0.00  0.00    +0.000 C 
ATOM     10  C   UNL     1       3.009   3.014  17.127  0.00  0.00    +0.000 C 
ATOM     11  C   UNL     1       3.696   4.235  17.823  0.00  0.00    +0.000 C 
ATOM     12  C   UNL     1       5.006   3.832  18.568  0.00  0.00    +0.000 C 
ATOM     13  C   UNL     1       4.133   5.253  16.674  0.00  0.00    +0.000 C 
ENDROOT
BRANCH   8  14
ATOM     14  O   UNL     1       0.315   2.057  19.645  0.00  0.00    +0.000 OA
ATOM     15  H   UNL     1      -0.328   2.558  20.175  0.00  0.00    +0.000 HD
ENDBRANCH   8  14
BRANCH  13  16
ATOM     16  C   UNL     1       5.114   4.576  15.718  0.00  0.00    +0.000 C 
ATOM     17  C   UNL     1       5.200   4.717  14.383  0.00  0.00    +0.000 C 
BRANCH  17  18
ATOM     18  C   UNL     1       6.162   3.850  13.670  0.00  0.00    +0.000 C 
ATOM     19  O   UNL     1       5.883   3.186  12.691  0.00  0.00    +0.000 OA
BRANCH  18  20
ATOM     20  O   UNL     1       7.389   3.888  14.217  0.00  0.00    +0.000 OA
ATOM     21  H   UNL     1       8.068   3.389  13.733  0.00  0.00    +0.000 HD
ENDBRANCH  18  20
ENDBRANCH  17  18
ENDBRANCH  13  16
BRANCH   6  22
ATOM     22  C   UNL     1       2.838   3.024  20.711  0.00  0.00    +0.000 C 
BRANCH  22  23
ATOM     23  O   UNL     1       2.228   2.751  21.964  0.00  0.00    +0.000 OA
ATOM     24  H   UNL     1       1.337   2.405  21.773  0.00  0.00    +0.000 HD
ENDBRANCH  22  23
ENDBRANCH   6  22
TORSDOF 6
ENDMDL
MODEL 5
REMARK VINA RESULT:      -6.3      2.529      4.222
REMARK  Name = 
REMARK  8 active torsions:
REMARK  status: ('A' for Active; 'I' for Inactive)
REMARK    1  A    between atoms: C_6  and  C_7
REMARK    2  A    between atoms: C_6  and  C_8
REMARK    3  A    between atoms: C_8  and  O_9
REMARK    4  A    between atoms: C_10  and  O_11
REMARK    5  A    between atoms: C_14  and  C_15
REMARK    6  A    between atoms: C_16  and  C_17
REMARK    7  A    between atoms: C_18  and  C_19
REMARK    8  A    between atoms: C_19  and  O_21
REMARK                            x       y       z     vdW  Elec       q    Type
REMARK                         _______ _______ _______ _____ _____    ______ ____
ROOT
ATOM      1  C   UNL     1       7.313   5.722  14.629  0.00  0.00    +0.000 C 
ATOM      2  C   UNL     1       6.823   4.982  15.643  0.00  0.00    +0.000 C 
ATOM      3  C   UNL     1       6.276   3.596  15.380  0.00  0.00    +0.000 C 
ATOM      4  C   UNL     1       4.844   3.379  15.904  0.00  0.00    +0.000 C 
ATOM      5  C   UNL     1       4.656   3.860  17.356  0.00  0.00    +0.000 C 
ATOM      6  C   UNL     1       3.241   3.565  18.043  0.00  0.00    +0.000 C 
ATOM      7  C   UNL     1       2.767   2.122  17.743  0.00  0.00    +0.000 C 
ATOM      8  C   UNL     1       3.509   3.717  19.569  0.00  0.00    +0.000 C 
ATOM      9  C   UNL     1       3.977   5.127  19.933  0.00  0.00    +0.000 C 
ATOM     10  C   UNL     1       5.113   5.689  19.077  0.00  0.00    +0.000 C 
ATOM     11  C   UNL     1       5.169   5.332  17.555  0.00  0.00    +0.000 C 
ATOM     12  C   UNL     1       4.372   6.347  16.678  0.00  0.00    +0.000 C 
ATOM     13  C   UNL     1       6.692   5.448  17.094  0.00  0.00    +0.000 C 
ENDROOT
BRANCH   8  14
ATOM     14  O   UNL     1       2.364   3.380  20.350  0.00  0.00    +0.000 OA
ATOM     15  H   UNL     1       1.699   4.084  20.265  0.00  0.00    +0.000 HD
ENDBRANCH   8  14
BRANCH  13  16
ATOM     16  C   UNL     1       7.201   6.872  17.316  0.00  0.00    +0.000 C 
ATOM     17  C   UNL     1       8.070   7.305  18.247  0.00  0.00    +0.000 C 
BRANCH  17  18
ATOM     18  C   UNL     1       8.304   8.762  18.330  0.00  0.00    +0.000 C 
ATOM     19  O   UNL     1       7.754   9.581  17.619  0.00  0.00    +0.000 OA
BRANCH  18  20
ATOM     20  O   UNL     1       9.186   9.086  19.291  0.00  0.00    +0.000 OA
ATOM     21  H   UNL     1      10.102   8.812  19.115  0.00  0.00    +0.000 HD
ENDBRANCH  18  20
ENDBRANCH  17  18
ENDBRANCH  13  16
BRANCH   6  22
ATOM     22  C   UNL     1       2.039   4.475  17.680  0.00  0.00    +0.000 C 
BRANCH  22  23
ATOM     23  O   UNL     1       0.803   3.777  17.712  0.00  0.00    +0.000 OA
ATOM     24  H   UNL     1       0.116   4.430  17.935  0.00  0.00    +0.000 HD
ENDBRANCH  22  23
ENDBRANCH   6  22
TORSDOF 6
ENDMDL
MODEL 6
REMARK VINA RESULT:      -6.1      1.648      2.127
REMARK  Name = 
REMARK  8 active torsions:
REMARK  status: ('A' for Active; 'I' for Inactive)
REMARK    1  A    between atoms: C_6  and  C_7
REMARK    2  A    between atoms: C_6  and  C_8
REMARK    3  A    between atoms: C_8  and  O_9
REMARK    4  A    between atoms: C_10  and  O_11
REMARK    5  A    between atoms: C_14  and  C_15
REMARK    6  A    between atoms: C_16  and  C_17
REMARK    7  A    between atoms: C_18  and  C_19
REMARK    8  A    between atoms: C_19  and  O_21
REMARK                            x       y       z     vdW  Elec       q    Type
REMARK                         _______ _______ _______ _____ _____    ______ ____
ROOT
ATOM      1  C   UNL     1       7.433   4.812  16.871  0.00  0.00    +0.000 C 
ATOM      2  C   UNL     1       6.210   5.117  17.347  0.00  0.00    +0.000 C 
ATOM      3  C   UNL     1       6.063   5.810  18.683  0.00  0.00    +0.000 C 
ATOM      4  C   UNL     1       5.124   5.083  19.665  0.00  0.00    +0.000 C 
ATOM      5  C   UNL     1       3.784   4.674  19.023  0.00  0.00    +0.000 C 
ATOM      6  C   UNL     1       2.683   4.027  19.987  0.00  0.00    +0.000 C 
ATOM      7  C   UNL     1       2.582   4.809  21.320  0.00  0.00    +0.000 C 
ATOM      8  C   UNL     1       1.346   4.165  19.200  0.00  0.00    +0.000 C 
ATOM      9  C   UNL     1       1.380   3.409  17.872  0.00  0.00    +0.000 C 
ATOM     10  C   UNL     1       2.607   3.663  16.996  0.00  0.00    +0.000 C 
ATOM     11  C   UNL     1       3.997   3.890  17.678  0.00  0.00    +0.000 C 
ATOM     12  C   UNL     1       4.772   2.554  17.901  0.00  0.00    +0.000 C 
ATOM     13  C   UNL     1       4.885   4.755  16.673  0.00  0.00    +0.000 C 
ENDROOT
BRANCH   8  14
ATOM     14  O   UNL     1       0.226   3.728  19.968  0.00  0.00    +0.000 OA
ATOM     15  H   UNL     1       0.315   4.054  20.880  0.00  0.00    +0.000 HD
ENDBRANCH   8  14
BRANCH  13  16
ATOM     16  C   UNL     1       5.065   4.006  15.354  0.00  0.00    +0.000 C 
ATOM     17  C   UNL     1       5.480   4.498  14.172  0.00  0.00    +0.000 C 
BRANCH  17  18
ATOM     18  C   UNL     1       5.451   3.585  13.010  0.00  0.00    +0.000 C 
ATOM     19  O   UNL     1       4.501   3.469  12.260  0.00  0.00    +0.000 OA
BRANCH  18  20
ATOM     20  O   UNL     1       6.600   2.905  12.864  0.00  0.00    +0.000 OA
ATOM     21  H   UNL     1       6.702   2.451  12.011  0.00  0.00    +0.000 HD
ENDBRANCH  18  20
ENDBRANCH  17  18
ENDBRANCH  13  16
BRANCH   6  22
ATOM     22  C   UNL     1       2.841   2.539  20.395  0.00  0.00    +0.000 C 
BRANCH  22  23
ATOM     23  O   UNL     1       2.927   2.371  21.803  0.00  0.00    +0.000 OA
ATOM     24  H   UNL     1       3.857   2.162  22.004  0.00  0.00    +0.000 HD
ENDBRANCH  22  23
ENDBRANCH   6  22
TORSDOF 6
ENDMDL
MODEL 7
REMARK VINA RESULT:      -6.0      3.105      5.864
REMARK  Name = 
REMARK  8 active torsions:
REMARK  status: ('A' for Active; 'I' for Inactive)
REMARK    1  A    between atoms: C_6  and  C_7
REMARK    2  A    between atoms: C_6  and  C_8
REMARK    3  A    between atoms: C_8  and  O_9
REMARK    4  A    between atoms: C_10  and  O_11
REMARK    5  A    between atoms: C_14  and  C_15
REMARK    6  A    between atoms: C_16  and  C_17
REMARK    7  A    between atoms: C_18  and  C_19
REMARK    8  A    between atoms: C_19  and  O_21
REMARK                            x       y       z     vdW  Elec       q    Type
REMARK                         _______ _______ _______ _____ _____    ______ ____
ROOT
ATOM      1  C   UNL     1       1.699   5.416  20.323  0.00  0.00    +0.000 C 
ATOM      2  C   UNL     1       2.165   5.190  19.079  0.00  0.00    +0.000 C 
ATOM      3  C   UNL     1       2.462   3.779  18.622  0.00  0.00    +0.000 C 
ATOM      4  C   UNL     1       3.888   3.587  18.070  0.00  0.00    +0.000 C 
ATOM      5  C   UNL     1       4.287   4.672  17.050  0.00  0.00    +0.000 C 
ATOM      6  C   UNL     1       5.699   4.497  16.318  0.00  0.00    +0.000 C 
ATOM      7  C   UNL     1       5.913   3.032  15.864  0.00  0.00    +0.000 C 
ATOM      8  C   UNL     1       5.607   5.421  15.067  0.00  0.00    +0.000 C 
ATOM      9  C   UNL     1       5.401   6.887  15.450  0.00  0.00    +0.000 C 
ATOM     10  C   UNL     1       4.288   7.157  16.464  0.00  0.00    +0.000 C 
ATOM     11  C   UNL     1       4.030   6.119  17.606  0.00  0.00    +0.000 C 
ATOM     12  C   UNL     1       4.886   6.413  18.877  0.00  0.00    +0.000 C 
ATOM     13  C   UNL     1       2.506   6.272  18.053  0.00  0.00    +0.000 C 
ENDROOT
BRANCH   8  14
ATOM     14  O   UNL     1       6.757   5.305  14.230  0.00  0.00    +0.000 OA
ATOM     15  H   UNL     1       7.444   4.799  14.697  0.00  0.00    +0.000 HD
ENDBRANCH   8  14
BRANCH  13  16
ATOM     16  C   UNL     1       2.248   7.688  18.564  0.00  0.00    +0.000 C 
ATOM     17  C   UNL     1       1.491   8.647  18.001  0.00  0.00    +0.000 C 
BRANCH  17  18
ATOM     18  C   UNL     1       1.504   9.982  18.636  0.00  0.00    +0.000 C 
ATOM     19  O   UNL     1       1.039  10.216  19.735  0.00  0.00    +0.000 OA
BRANCH  18  20
ATOM     20  O   UNL     1       2.103  10.908  17.870  0.00  0.00    +0.000 OA
ATOM     21  H   UNL     1       1.533  11.648  17.601  0.00  0.00    +0.000 HD
ENDBRANCH  18  20
ENDBRANCH  17  18
ENDBRANCH  13  16
BRANCH   6  22
ATOM     22  C   UNL     1       6.987   4.878  17.094  0.00  0.00    +0.000 C 
BRANCH  22  23
ATOM     23  O   UNL     1       7.240   4.001  18.183  0.00  0.00    +0.000 OA
ATOM     24  H   UNL     1       8.187   3.776  18.149  0.00  0.00    +0.000 HD
ENDBRANCH  22  23
ENDBRANCH   6  22
TORSDOF 6
ENDMDL
MODEL 8
REMARK VINA RESULT:      -5.9      2.884      5.908
REMARK  Name = 
REMARK  8 active torsions:
REMARK  status: ('A' for Active; 'I' for Inactive)
REMARK    1  A    between atoms: C_6  and  C_7
REMARK    2  A    between atoms: C_6  and  C_8
REMARK    3  A    between atoms: C_8  and  O_9
REMARK    4  A    between atoms: C_10  and  O_11
REMARK    5  A    between atoms: C_14  and  C_15
REMARK    6  A    between atoms: C_16  and  C_17
REMARK    7  A    between atoms: C_18  and  C_19
REMARK    8  A    between atoms: C_19  and  O_21
REMARK                            x       y       z     vdW  Elec       q    Type
REMARK                         _______ _______ _______ _____ _____    ______ ____
ROOT
ATOM      1  C   UNL     1       1.794   8.916  17.845  0.00  0.00    +0.000 C 
ATOM      2  C   UNL     1       2.691   7.992  18.240  0.00  0.00    +0.000 C 
ATOM      3  C   UNL     1       3.807   7.568  17.311  0.00  0.00    +0.000 C 
ATOM      4  C   UNL     1       3.891   6.046  17.088  0.00  0.00    +0.000 C 
ATOM      5  C   UNL     1       3.832   5.242  18.402  0.00  0.00    +0.000 C 
ATOM      6  C   UNL     1       4.040   3.659  18.296  0.00  0.00    +0.000 C 
ATOM      7  C   UNL     1       5.213   3.314  17.346  0.00  0.00    +0.000 C 
ATOM      8  C   UNL     1       4.396   3.215  19.745  0.00  0.00    +0.000 C 
ATOM      9  C   UNL     1       3.272   3.524  20.734  0.00  0.00    +0.000 C 
ATOM     10  C   UNL     1       2.711   4.945  20.676  0.00  0.00    +0.000 C 
ATOM     11  C   UNL     1       2.609   5.668  19.292  0.00  0.00    +0.000 C 
ATOM     12  C   UNL     1       1.249   5.394  18.579  0.00  0.00    +0.000 C 
ATOM     13  C   UNL     1       2.656   7.239  19.571  0.00  0.00    +0.000 C 
ENDROOT
BRANCH   8  14
ATOM     14  O   UNL     1       4.723   1.828  19.815  0.00  0.00    +0.000 OA
ATOM     15  H   UNL     1       4.780   1.558  20.747  0.00  0.00    +0.000 HD
ENDBRANCH   8  14
BRANCH  13  16
ATOM     16  C   UNL     1       1.484   7.649  20.463  0.00  0.00    +0.000 C 
ATOM     17  C   UNL     1       1.424   8.673  21.332  0.00  0.00    +0.000 C 
BRANCH  17  18
ATOM     18  C   UNL     1       0.211   8.781  22.170  0.00  0.00    +0.000 C 
ATOM     19  O   UNL     1      -0.833   8.205  21.931  0.00  0.00    +0.000 OA
BRANCH  18  20
ATOM     20  O   UNL     1       0.393   9.578  23.236  0.00  0.00    +0.000 OA
ATOM     21  H   UNL     1       0.042  10.479  23.139  0.00  0.00    +0.000 HD
ENDBRANCH  18  20
ENDBRANCH  17  18
ENDBRANCH  13  16
BRANCH   6  22
ATOM     22  C   UNL     1       2.851   2.788  17.812  0.00  0.00    +0.000 C 
BRANCH  22  23
ATOM     23  O   UNL     1       3.209   1.422  17.660  0.00  0.00    +0.000 OA
ATOM     24  H   UNL     1       3.870   1.382  16.946  0.00  0.00    +0.000 HD
ENDBRANCH  22  23
ENDBRANCH   6  22
TORSDOF 6
ENDMDL
MODEL 9
REMARK VINA RESULT:      -5.7      9.512     12.425
REMARK  Name = 
REMARK  8 active torsions:
REMARK  status: ('A' for Active; 'I' for Inactive)
REMARK    1  A    between atoms: C_6  and  C_7
REMARK    2  A    between atoms: C_6  and  C_8
REMARK    3  A    between atoms: C_8  and  O_9
REMARK    4  A    between atoms: C_10  and  O_11
REMARK    5  A    between atoms: C_14  and  C_15
REMARK    6  A    between atoms: C_16  and  C_17
REMARK    7  A    between atoms: C_18  and  C_19
REMARK    8  A    between atoms: C_19  and  O_21
REMARK                            x       y       z     vdW  Elec       q    Type
REMARK                         _______ _______ _______ _____ _____    ______ ____
ROOT
ATOM      1  C   UNL     1       8.481  15.840  23.494  0.00  0.00    +0.000 C 
ATOM      2  C   UNL     1       9.403  15.100  22.848  0.00  0.00    +0.000 C 
ATOM      3  C   UNL     1      10.629  15.759  22.254  0.00  0.00    +0.000 C 
ATOM      4  C   UNL     1      10.844  15.447  20.760  0.00  0.00    +0.000 C 
ATOM      5  C   UNL     1      10.723  13.945  20.436  0.00  0.00    +0.000 C 
ATOM      6  C   UNL     1      11.055  13.495  18.937  0.00  0.00    +0.000 C 
ATOM      7  C   UNL     1      12.333  14.197  18.416  0.00  0.00    +0.000 C 
ATOM      8  C   UNL     1      11.308  11.962  19.037  0.00  0.00    +0.000 C 
ATOM      9  C   UNL     1      10.078  11.208  19.543  0.00  0.00    +0.000 C 
ATOM     10  C   UNL     1       9.421  11.779  20.801  0.00  0.00    +0.000 C 
ATOM     11  C   UNL     1       9.396  13.330  21.010  0.00  0.00    +0.000 C 
ATOM     12  C   UNL     1       8.130  13.991  20.380  0.00  0.00    +0.000 C 
ATOM     13  C   UNL     1       9.301  13.598  22.580  0.00  0.00    +0.000 C 
ENDROOT
BRANCH   8  14
ATOM     14  O   UNL     1      11.727  11.406  17.792  0.00  0.00    +0.000 OA
ATOM     15  H   UNL     1      11.470  12.005  17.071  0.00  0.00    +0.000 HD
ENDBRANCH   8  14
BRANCH  13  16
ATOM     16  C   UNL     1       8.025  12.972  23.143  0.00  0.00    +0.000 C 
ATOM     17  C   UNL     1       7.915  12.050  24.116  0.00  0.00    +0.000 C 
BRANCH  17  18
ATOM     18  C   UNL     1       6.565  11.515  24.393  0.00  0.00    +0.000 C 
ATOM     19  O   UNL     1       6.262  10.932  25.416  0.00  0.00    +0.000 OA
BRANCH  18  20
ATOM     20  O   UNL     1       5.702  11.757  23.393  0.00  0.00    +0.000 OA
ATOM     21  H   UNL     1       5.270  10.969  23.024  0.00  0.00    +0.000 HD
ENDBRANCH  18  20
ENDBRANCH  17  18
ENDBRANCH  13  16
BRANCH   6  22
ATOM     22  C   UNL     1       9.983  13.728  17.841  0.00  0.00    +0.000 C 
BRANCH  22  23
ATOM     23  O   UNL     1      10.529  13.673  16.531  0.00  0.00    +0.000 OA
ATOM     24  H   UNL     1       9.847  14.018  15.927  0.00  0.00    +0.000 HD
ENDBRANCH  22  23
ENDBRANCH   6  22
TORSDOF 6
ENDMDL
