MODEL 1
REMARK VINA RESULT:      -7.4      0.000      0.000
REMARK  Name = 
REMARK  10 active torsions:
REMARK  status: ('A' for Active; 'I' for Inactive)
REMARK    1  A    between atoms: C_1  and  C_2
REMARK    2  A    between atoms: C_2  and  O_3
REMARK    3  A    between atoms: O_3  and  C_4
REMARK    4  A    between atoms: C_7  and  N_8
REMARK    5  A    between atoms: N_11  and  C_12
REMARK    6  A    between atoms: N_11  and  C_21
REMARK    7  A    between atoms: C_12  and  C_13
REMARK    8  A    between atoms: C_13  and  C_14
REMARK    9  A    between atoms: C_14  and  N_15
REMARK   10  A    between atoms: C_21  and  C_22
REMARK                            x       y       z     vdW  Elec       q    Type
REMARK                         _______ _______ _______ _____ _____    ______ ____
ROOT
ATOM      1  N   UNL     1       3.008   6.095  17.858  0.00  0.00    +0.000 N 
ATOM      2  C   UNL     1       4.347   5.806  17.683  0.00  0.00    +0.000 C 
ATOM      3  O   UNL     1       5.243   6.628  17.890  0.00  0.00    +0.000 OA
ATOM      4  N   UNL     1       4.705   4.515  17.279  0.00  0.00    +0.000 N 
ATOM      5  H   UNL     1       2.329   5.386  17.639  0.00  0.00    +0.000 HD
ENDROOT
BRANCH   1   9
ATOM      6  C   UNL     1       1.264   9.704  19.339  0.00  0.00    +0.000 A 
ATOM      7  C   UNL     1       1.477   8.630  20.192  0.00  0.00    +0.000 A 
ATOM      8  C   UNL     1       2.098   7.462  19.736  0.00  0.00    +0.000 A 
ATOM      9  C   UNL     1       2.492   7.315  18.398  0.00  0.00    +0.000 A 
ATOM     10  C   UNL     1       2.320   8.424  17.557  0.00  0.00    +0.000 A 
ATOM     11  C   UNL     1       1.706   9.609  18.020  0.00  0.00    +0.000 A 
BRANCH   6  12
ATOM     12  O   UNL     1       0.568  10.737  19.896  0.00  0.00    +0.000 OA
BRANCH  12  14
ATOM     13  C   UNL     1       1.040  13.006  19.365  0.00  0.00    +0.000 C 
ATOM     14  C   UNL     1       0.174  11.799  19.035  0.00  0.00    +0.000 C 
ENDBRANCH  12  14
ENDBRANCH   6  12
ENDBRANCH   1   9
BRANCH   4  15
ATOM     15  C   UNL     1       3.777   3.413  16.981  0.00  0.00    +0.000 C 
BRANCH  15  16
ATOM     16  C   UNL     1       3.809   2.175  17.903  0.00  0.00    +0.000 C 
BRANCH  16  17
ATOM     17  C   UNL     1       3.879   2.482  19.411  0.00  0.00    +0.000 C 
BRANCH  17  18
ATOM     18  N   UNL     1       2.677   2.015  20.132  0.00  0.00    +0.000 NA
ATOM     19  C   UNL     1       1.407   2.243  19.407  0.00  0.00    +0.000 C 
ATOM     20  C   UNL     1       0.962   3.716  19.368  0.00  0.00    +0.000 C 
ATOM     21  O   UNL     1       0.864   4.273  20.684  0.00  0.00    +0.000 OA
ATOM     22  C   UNL     1       2.104   4.137  21.390  0.00  0.00    +0.000 C 
ATOM     23  C   UNL     1       2.545   2.665  21.461  0.00  0.00    +0.000 C 
ENDBRANCH  17  18
ENDBRANCH  16  17
ENDBRANCH  15  16
ENDBRANCH   4  15
BRANCH   4  24
ATOM     24  C   UNL     1       6.136   4.354  16.950  0.00  0.00    +0.000 C 
BRANCH  24  25
ATOM     25  C   UNL     1       6.473   4.487  15.490  0.00  0.00    +0.000 A 
ATOM     26  C   UNL     1       5.869   3.686  14.518  0.00  0.00    +0.000 A 
ATOM     27  C   UNL     1       6.255   3.801  13.185  0.00  0.00    +0.000 A 
ATOM     28  C   UNL     1       7.240   4.719  12.864  0.00  0.00    +0.000 A 
ATOM     29  N   UNL     1       7.850   5.509  13.770  0.00  0.00    +0.000 NA
ATOM     30  C   UNL     1       7.454   5.377  15.058  0.00  0.00    +0.000 A 
ENDBRANCH  24  25
ENDBRANCH   4  24
TORSDOF 9
ENDMDL
MODEL 2
REMARK VINA RESULT:      -7.1      2.345      5.801
REMARK  Name = 
REMARK  10 active torsions:
REMARK  status: ('A' for Active; 'I' for Inactive)
REMARK    1  A    between atoms: C_1  and  C_2
REMARK    2  A    between atoms: C_2  and  O_3
REMARK    3  A    between atoms: O_3  and  C_4
REMARK    4  A    between atoms: C_7  and  N_8
REMARK    5  A    between atoms: N_11  and  C_12
REMARK    6  A    between atoms: N_11  and  C_21
REMARK    7  A    between atoms: C_12  and  C_13
REMARK    8  A    between atoms: C_13  and  C_14
REMARK    9  A    between atoms: C_14  and  N_15
REMARK   10  A    between atoms: C_21  and  C_22
REMARK                            x       y       z     vdW  Elec       q    Type
REMARK                         _______ _______ _______ _____ _____    ______ ____
ROOT
ATOM      1  N   UNL     1       1.306   9.125  19.308  0.00  0.00    +0.000 N 
ATOM      2  C   UNL     1       1.673   7.984  19.993  0.00  0.00    +0.000 C 
ATOM      3  O   UNL     1       1.353   7.773  21.165  0.00  0.00    +0.000 OA
ATOM      4  N   UNL     1       2.418   7.010  19.319  0.00  0.00    +0.000 N 
ATOM      5  H   UNL     1       1.630   9.245  18.364  0.00  0.00    +0.000 HD
ENDROOT
BRANCH   1   9
ATOM      6  C   UNL     1      -1.155  12.328  20.701  0.00  0.00    +0.000 A 
ATOM      7  C   UNL     1      -1.631  11.450  19.737  0.00  0.00    +0.000 A 
ATOM      8  C   UNL     1      -0.859  10.364  19.311  0.00  0.00    +0.000 A 
ATOM      9  C   UNL     1       0.433  10.141  19.808  0.00  0.00    +0.000 A 
ATOM     10  C   UNL     1       0.884  11.002  20.819  0.00  0.00    +0.000 A 
ATOM     11  C   UNL     1       0.101  12.092  21.260  0.00  0.00    +0.000 A 
BRANCH   6  12
ATOM     12  O   UNL     1      -1.975  13.390  20.951  0.00  0.00    +0.000 OA
BRANCH  12  14
ATOM     13  C   UNL     1      -3.242  12.670  22.830  0.00  0.00    +0.000 C 
ATOM     14  C   UNL     1      -2.248  13.699  22.313  0.00  0.00    +0.000 C 
ENDBRANCH  12  14
ENDBRANCH   6  12
ENDBRANCH   1   9
BRANCH   4  15
ATOM     15  C   UNL     1       2.892   7.091  17.928  0.00  0.00    +0.000 C 
BRANCH  15  16
ATOM     16  C   UNL     1       4.415   7.041  17.681  0.00  0.00    +0.000 C 
BRANCH  16  17
ATOM     17  C   UNL     1       4.852   6.235  16.443  0.00  0.00    +0.000 C 
BRANCH  17  18
ATOM     18  N   UNL     1       6.264   6.481  16.086  0.00  0.00    +0.000 NA
ATOM     19  C   UNL     1       6.868   5.429  15.238  0.00  0.00    +0.000 C 
ATOM     20  C   UNL     1       7.157   4.112  15.982  0.00  0.00    +0.000 C 
ATOM     21  O   UNL     1       7.982   4.327  17.133  0.00  0.00    +0.000 OA
ATOM     22  C   UNL     1       7.388   5.286  18.016  0.00  0.00    +0.000 C 
ATOM     23  C   UNL     1       7.121   6.617  17.292  0.00  0.00    +0.000 C 
ENDBRANCH  17  18
ENDBRANCH  16  17
ENDBRANCH  15  16
ENDBRANCH   4  15
BRANCH   4  24
ATOM     24  C   UNL     1       2.909   5.914  20.179  0.00  0.00    +0.000 C 
BRANCH  24  25
ATOM     25  C   UNL     1       2.460   4.536  19.774  0.00  0.00    +0.000 A 
ATOM     26  C   UNL     1       1.139   4.114  19.938  0.00  0.00    +0.000 A 
ATOM     27  C   UNL     1       0.780   2.810  19.606  0.00  0.00    +0.000 A 
ATOM     28  C   UNL     1       1.760   1.964  19.118  0.00  0.00    +0.000 A 
ATOM     29  N   UNL     1       3.047   2.329  18.946  0.00  0.00    +0.000 NA
ATOM     30  C   UNL     1       3.367   3.603  19.276  0.00  0.00    +0.000 A 
ENDBRANCH  24  25
ENDBRANCH   4  24
TORSDOF 9
ENDMDL
MODEL 3
REMARK VINA RESULT:      -7.1      2.253      5.641
REMARK  Name = 
REMARK  10 active torsions:
REMARK  status: ('A' for Active; 'I' for Inactive)
REMARK    1  A    between atoms: C_1  and  C_2
REMARK    2  A    between atoms: C_2  and  O_3
REMARK    3  A    between atoms: O_3  and  C_4
REMARK    4  A    between atoms: C_7  and  N_8
REMARK    5  A    between atoms: N_11  and  C_12
REMARK    6  A    between atoms: N_11  and  C_21
REMARK    7  A    between atoms: C_12  and  C_13
REMARK    8  A    between atoms: C_13  and  C_14
REMARK    9  A    between atoms: C_14  and  N_15
REMARK   10  A    between atoms: C_21  and  C_22
REMARK                            x       y       z     vdW  Elec       q    Type
REMARK                         _______ _______ _______ _____ _____    ______ ____
ROOT
ATOM      1  N   UNL     1       1.391   9.089  19.235  0.00  0.00    +0.000 N 
ATOM      2  C   UNL     1       1.692   7.970  19.986  0.00  0.00    +0.000 C 
ATOM      3  O   UNL     1       1.427   7.877  21.187  0.00  0.00    +0.000 OA
ATOM      4  N   UNL     1       2.299   6.882  19.351  0.00  0.00    +0.000 N 
ATOM      5  H   UNL     1       1.666   9.108  18.268  0.00  0.00    +0.000 HD
ENDROOT
BRANCH   1   9
ATOM      6  C   UNL     1      -0.963  12.311  20.761  0.00  0.00    +0.000 A 
ATOM      7  C   UNL     1       0.373  12.191  21.120  0.00  0.00    +0.000 A 
ATOM      8  C   UNL     1       1.172  11.175  20.585  0.00  0.00    +0.000 A 
ATOM      9  C   UNL     1       0.650  10.219  19.701  0.00  0.00    +0.000 A 
ATOM     10  C   UNL     1      -0.686  10.380  19.305  0.00  0.00    +0.000 A 
ATOM     11  C   UNL     1      -1.490  11.413  19.834  0.00  0.00    +0.000 A 
BRANCH   6  12
ATOM     12  O   UNL     1      -1.640  13.289  21.430  0.00  0.00    +0.000 OA
BRANCH  12  14
ATOM     13  C   UNL     1      -3.028  12.439  23.165  0.00  0.00    +0.000 C 
ATOM     14  C   UNL     1      -1.731  13.169  22.846  0.00  0.00    +0.000 C 
ENDBRANCH  12  14
ENDBRANCH   6  12
ENDBRANCH   1   9
BRANCH   4  15
ATOM     15  C   UNL     1       2.692   6.814  17.935  0.00  0.00    +0.000 C 
BRANCH  15  16
ATOM     16  C   UNL     1       3.951   7.593  17.497  0.00  0.00    +0.000 C 
BRANCH  16  17
ATOM     17  C   UNL     1       5.058   6.738  16.851  0.00  0.00    +0.000 C 
BRANCH  17  18
ATOM     18  N   UNL     1       5.181   5.410  17.485  0.00  0.00    +0.000 NA
ATOM     19  C   UNL     1       6.164   5.354  18.591  0.00  0.00    +0.000 C 
ATOM     20  C   UNL     1       7.631   5.405  18.130  0.00  0.00    +0.000 C 
ATOM     21  O   UNL     1       7.923   4.372  17.182  0.00  0.00    +0.000 OA
ATOM     22  C   UNL     1       7.037   4.444  16.058  0.00  0.00    +0.000 C 
ATOM     23  C   UNL     1       5.566   4.364  16.503  0.00  0.00    +0.000 C 
ENDBRANCH  17  18
ENDBRANCH  16  17
ENDBRANCH  15  16
ENDBRANCH   4  15
BRANCH   4  24
ATOM     24  C   UNL     1       2.739   5.809  20.266  0.00  0.00    +0.000 C 
BRANCH  24  25
ATOM     25  C   UNL     1       2.354   4.416  19.847  0.00  0.00    +0.000 A 
ATOM     26  C   UNL     1       1.018   4.015  19.759  0.00  0.00    +0.000 A 
ATOM     27  C   UNL     1       0.708   2.699  19.425  0.00  0.00    +0.000 A 
ATOM     28  C   UNL     1       1.751   1.820  19.188  0.00  0.00    +0.000 A 
ATOM     29  N   UNL     1       3.052   2.164  19.263  0.00  0.00    +0.000 NA
ATOM     30  C   UNL     1       3.324   3.450  19.589  0.00  0.00    +0.000 A 
ENDBRANCH  24  25
ENDBRANCH   4  24
TORSDOF 9
ENDMDL
MODEL 4
REMARK VINA RESULT:      -6.9      0.497      1.020
REMARK  Name = 
REMARK  10 active torsions:
REMARK  status: ('A' for Active; 'I' for Inactive)
REMARK    1  A    between atoms: C_1  and  C_2
REMARK    2  A    between atoms: C_2  and  O_3
REMARK    3  A    between atoms: O_3  and  C_4
REMARK    4  A    between atoms: C_7  and  N_8
REMARK    5  A    between atoms: N_11  and  C_12
REMARK    6  A    between atoms: N_11  and  C_21
REMARK    7  A    between atoms: C_12  and  C_13
REMARK    8  A    between atoms: C_13  and  C_14
REMARK    9  A    between atoms: C_14  and  N_15
REMARK   10  A    between atoms: C_21  and  C_22
REMARK                            x       y       z     vdW  Elec       q    Type
REMARK                         _______ _______ _______ _____ _____    ______ ____
ROOT
ATOM      1  N   UNL     1       2.620   6.155  17.886  0.00  0.00    +0.000 N 
ATOM      2  C   UNL     1       3.948   5.774  17.853  0.00  0.00    +0.000 C 
ATOM      3  O   UNL     1       4.866   6.509  18.222  0.00  0.00    +0.000 OA
ATOM      4  N   UNL     1       4.262   4.485  17.407  0.00  0.00    +0.000 N 
ATOM      5  H   UNL     1       1.927   5.515  17.540  0.00  0.00    +0.000 HD
ENDROOT
BRANCH   1   9
ATOM      6  C   UNL     1       1.369   9.834  19.662  0.00  0.00    +0.000 A 
ATOM      7  C   UNL     1       1.540   9.744  18.287  0.00  0.00    +0.000 A 
ATOM      8  C   UNL     1       1.895   8.533  17.685  0.00  0.00    +0.000 A 
ATOM      9  C   UNL     1       2.129   7.377  18.443  0.00  0.00    +0.000 A 
ATOM     10  C   UNL     1       1.903   7.464  19.825  0.00  0.00    +0.000 A 
ATOM     11  C   UNL     1       1.531   8.683  20.433  0.00  0.00    +0.000 A 
BRANCH   6  12
ATOM     12  O   UNL     1       1.115  11.095  20.118  0.00  0.00    +0.000 OA
BRANCH  12  14
ATOM     13  C   UNL     1       2.137  13.175  19.583  0.00  0.00    +0.000 C 
ATOM     14  C   UNL     1       1.100  12.146  19.158  0.00  0.00    +0.000 C 
ENDBRANCH  12  14
ENDBRANCH   6  12
ENDBRANCH   1   9
BRANCH   4  15
ATOM     15  C   UNL     1       3.304   3.478  16.926  0.00  0.00    +0.000 C 
BRANCH  15  16
ATOM     16  C   UNL     1       3.086   2.218  17.792  0.00  0.00    +0.000 C 
BRANCH  16  17
ATOM     17  C   UNL     1       3.581   2.330  19.247  0.00  0.00    +0.000 C 
BRANCH  17  18
ATOM     18  N   UNL     1       2.519   2.014  20.225  0.00  0.00    +0.000 NA
ATOM     19  C   UNL     1       1.146   2.257  19.729  0.00  0.00    +0.000 C 
ATOM     20  C   UNL     1       0.773   3.747  19.620  0.00  0.00    +0.000 C 
ATOM     21  O   UNL     1       0.956   4.429  20.866  0.00  0.00    +0.000 OA
ATOM     22  C   UNL     1       2.301   4.278  21.338  0.00  0.00    +0.000 C 
ATOM     23  C   UNL     1       2.677   2.793  21.479  0.00  0.00    +0.000 C 
ENDBRANCH  17  18
ENDBRANCH  16  17
ENDBRANCH  15  16
ENDBRANCH   4  15
BRANCH   4  24
ATOM     24  C   UNL     1       5.708   4.233  17.242  0.00  0.00    +0.000 C 
BRANCH  24  25
ATOM     25  C   UNL     1       6.238   4.453  15.851  0.00  0.00    +0.000 A 
ATOM     26  C   UNL     1       5.705   3.788  14.744  0.00  0.00    +0.000 A 
ATOM     27  C   UNL     1       6.265   3.976  13.483  0.00  0.00    +0.000 A 
ATOM     28  C   UNL     1       7.349   4.829  13.368  0.00  0.00    +0.000 A 
ATOM     29  N   UNL     1       7.896   5.489  14.409  0.00  0.00    +0.000 NA
ATOM     30  C   UNL     1       7.330   5.288  15.623  0.00  0.00    +0.000 A 
ENDBRANCH  24  25
ENDBRANCH   4  24
TORSDOF 9
ENDMDL
MODEL 5
REMARK VINA RESULT:      -6.9      2.224      5.800
REMARK  Name = 
REMARK  10 active torsions:
REMARK  status: ('A' for Active; 'I' for Inactive)
REMARK    1  A    between atoms: C_1  and  C_2
REMARK    2  A    between atoms: C_2  and  O_3
REMARK    3  A    between atoms: O_3  and  C_4
REMARK    4  A    between atoms: C_7  and  N_8
REMARK    5  A    between atoms: N_11  and  C_12
REMARK    6  A    between atoms: N_11  and  C_21
REMARK    7  A    between atoms: C_12  and  C_13
REMARK    8  A    between atoms: C_13  and  C_14
REMARK    9  A    between atoms: C_14  and  N_15
REMARK   10  A    between atoms: C_21  and  C_22
REMARK                            x       y       z     vdW  Elec       q    Type
REMARK                         _______ _______ _______ _____ _____    ______ ____
ROOT
ATOM      1  N   UNL     1       1.236   9.300  19.412  0.00  0.00    +0.000 N 
ATOM      2  C   UNL     1       1.638   8.104  19.975  0.00  0.00    +0.000 C 
ATOM      3  O   UNL     1       1.286   7.741  21.100  0.00  0.00    +0.000 OA
ATOM      4  N   UNL     1       2.457   7.254  19.225  0.00  0.00    +0.000 N 
ATOM      5  H   UNL     1       1.588   9.546  18.503  0.00  0.00    +0.000 HD
ENDROOT
BRANCH   1   9
ATOM      6  C   UNL     1      -1.414  12.185  21.115  0.00  0.00    +0.000 A 
ATOM      7  C   UNL     1      -1.693  11.627  19.875  0.00  0.00    +0.000 A 
ATOM      8  C   UNL     1      -0.866  10.640  19.329  0.00  0.00    +0.000 A 
ATOM      9  C   UNL     1       0.293  10.206  19.989  0.00  0.00    +0.000 A 
ATOM     10  C   UNL     1       0.538  10.738  21.264  0.00  0.00    +0.000 A 
ATOM     11  C   UNL     1      -0.304  11.724  21.823  0.00  0.00    +0.000 A 
BRANCH   6  12
ATOM     12  O   UNL     1      -2.253  13.199  21.479  0.00  0.00    +0.000 OA
BRANCH  12  14
ATOM     13  C   UNL     1      -1.159  15.309  21.393  0.00  0.00    +0.000 C 
ATOM     14  C   UNL     1      -2.185  14.405  20.726  0.00  0.00    +0.000 C 
ENDBRANCH  12  14
ENDBRANCH   6  12
ENDBRANCH   1   9
BRANCH   4  15
ATOM     15  C   UNL     1       2.977   7.522  17.875  0.00  0.00    +0.000 C 
BRANCH  15  16
ATOM     16  C   UNL     1       4.477   7.262  17.614  0.00  0.00    +0.000 C 
BRANCH  16  17
ATOM     17  C   UNL     1       4.783   6.319  16.435  0.00  0.00    +0.000 C 
BRANCH  17  18
ATOM     18  N   UNL     1       5.046   4.935  16.879  0.00  0.00    +0.000 NA
ATOM     19  C   UNL     1       5.955   4.833  18.043  0.00  0.00    +0.000 C 
ATOM     20  C   UNL     1       7.428   5.139  17.717  0.00  0.00    +0.000 C 
ATOM     21  O   UNL     1       7.918   4.309  16.658  0.00  0.00    +0.000 OA
ATOM     22  C   UNL     1       7.103   4.441  15.486  0.00  0.00    +0.000 C 
ATOM     23  C   UNL     1       5.632   4.110  15.792  0.00  0.00    +0.000 C 
ENDBRANCH  17  18
ENDBRANCH  16  17
ENDBRANCH  15  16
ENDBRANCH   4  15
BRANCH   4  24
ATOM     24  C   UNL     1       2.974   6.089  19.972  0.00  0.00    +0.000 C 
BRANCH  24  25
ATOM     25  C   UNL     1       2.239   4.799  19.729  0.00  0.00    +0.000 A 
ATOM     26  C   UNL     1       1.977   4.332  18.438  0.00  0.00    +0.000 A 
ATOM     27  C   UNL     1       1.241   3.164  18.258  0.00  0.00    +0.000 A 
ATOM     28  C   UNL     1       0.787   2.495  19.381  0.00  0.00    +0.000 A 
ATOM     29  N   UNL     1       1.016   2.910  20.643  0.00  0.00    +0.000 NA
ATOM     30  C   UNL     1       1.735   4.049  20.789  0.00  0.00    +0.000 A 
ENDBRANCH  24  25
ENDBRANCH   4  24
TORSDOF 9
ENDMDL
MODEL 6
REMARK VINA RESULT:      -6.9      2.386      5.425
REMARK  Name = 
REMARK  10 active torsions:
REMARK  status: ('A' for Active; 'I' for Inactive)
REMARK    1  A    between atoms: C_1  and  C_2
REMARK    2  A    between atoms: C_2  and  O_3
REMARK    3  A    between atoms: O_3  and  C_4
REMARK    4  A    between atoms: C_7  and  N_8
REMARK    5  A    between atoms: N_11  and  C_12
REMARK    6  A    between atoms: N_11  and  C_21
REMARK    7  A    between atoms: C_12  and  C_13
REMARK    8  A    between atoms: C_13  and  C_14
REMARK    9  A    between atoms: C_14  and  N_15
REMARK   10  A    between atoms: C_21  and  C_22
REMARK                            x       y       z     vdW  Elec       q    Type
REMARK                         _______ _______ _______ _____ _____    ______ ____
ROOT
ATOM      1  N   UNL     1       1.646   8.431  20.425  0.00  0.00    +0.000 N 
ATOM      2  C   UNL     1       1.352   7.097  20.629  0.00  0.00    +0.000 C 
ATOM      3  O   UNL     1       0.327   6.715  21.199  0.00  0.00    +0.000 OA
ATOM      4  N   UNL     1       2.243   6.134  20.142  0.00  0.00    +0.000 N 
ATOM      5  H   UNL     1       2.516   8.670  19.981  0.00  0.00    +0.000 HD
ENDROOT
BRANCH   1   9
ATOM      6  C   UNL     1      -1.141  11.560  21.259  0.00  0.00    +0.000 A 
ATOM      7  C   UNL     1      -0.528  10.874  22.300  0.00  0.00    +0.000 A 
ATOM      8  C   UNL     1       0.428   9.886  22.044  0.00  0.00    +0.000 A 
ATOM      9  C   UNL     1       0.776   9.522  20.735  0.00  0.00    +0.000 A 
ATOM     10  C   UNL     1       0.191  10.256  19.692  0.00  0.00    +0.000 A 
ATOM     11  C   UNL     1      -0.765  11.264  19.949  0.00  0.00    +0.000 A 
BRANCH   6  12
ATOM     12  O   UNL     1      -2.117  12.428  21.654  0.00  0.00    +0.000 OA
BRANCH  12  14
ATOM     13  C   UNL     1      -3.899  12.970  23.133  0.00  0.00    +0.000 C 
ATOM     14  C   UNL     1      -2.487  12.415  23.029  0.00  0.00    +0.000 C 
ENDBRANCH  12  14
ENDBRANCH   6  12
ENDBRANCH   1   9
BRANCH   4  15
ATOM     15  C   UNL     1       3.511   6.402  19.446  0.00  0.00    +0.000 C 
BRANCH  15  16
ATOM     16  C   UNL     1       3.454   6.697  17.932  0.00  0.00    +0.000 C 
BRANCH  16  17
ATOM     17  C   UNL     1       4.739   6.364  17.149  0.00  0.00    +0.000 C 
BRANCH  17  18
ATOM     18  N   UNL     1       5.037   4.917  17.154  0.00  0.00    +0.000 NA
ATOM     19  C   UNL     1       6.089   4.516  18.115  0.00  0.00    +0.000 C 
ATOM     20  C   UNL     1       7.511   4.932  17.698  0.00  0.00    +0.000 C 
ATOM     21  O   UNL     1       7.844   4.438  16.395  0.00  0.00    +0.000 OA
ATOM     22  C   UNL     1       6.885   4.872  15.423  0.00  0.00    +0.000 C 
ATOM     23  C   UNL     1       5.462   4.438  15.814  0.00  0.00    +0.000 C 
ENDBRANCH  17  18
ENDBRANCH  16  17
ENDBRANCH  15  16
ENDBRANCH   4  15
BRANCH   4  24
ATOM     24  C   UNL     1       1.935   4.751  20.560  0.00  0.00    +0.000 C 
BRANCH  24  25
ATOM     25  C   UNL     1       2.482   3.677  19.659  0.00  0.00    +0.000 A 
ATOM     26  C   UNL     1       1.921   3.407  18.408  0.00  0.00    +0.000 A 
ATOM     27  C   UNL     1       2.420   2.363  17.634  0.00  0.00    +0.000 A 
ATOM     28  C   UNL     1       3.472   1.618  18.137  0.00  0.00    +0.000 A 
ATOM     29  N   UNL     1       4.042   1.843  19.338  0.00  0.00    +0.000 NA
ATOM     30  C   UNL     1       3.536   2.864  20.070  0.00  0.00    +0.000 A 
ENDBRANCH  24  25
ENDBRANCH   4  24
TORSDOF 9
ENDMDL
MODEL 7
REMARK VINA RESULT:      -6.9      2.243      5.735
REMARK  Name = 
REMARK  10 active torsions:
REMARK  status: ('A' for Active; 'I' for Inactive)
REMARK    1  A    between atoms: C_1  and  C_2
REMARK    2  A    between atoms: C_2  and  O_3
REMARK    3  A    between atoms: O_3  and  C_4
REMARK    4  A    between atoms: C_7  and  N_8
REMARK    5  A    between atoms: N_11  and  C_12
REMARK    6  A    between atoms: N_11  and  C_21
REMARK    7  A    between atoms: C_12  and  C_13
REMARK    8  A    between atoms: C_13  and  C_14
REMARK    9  A    between atoms: C_14  and  N_15
REMARK   10  A    between atoms: C_21  and  C_22
REMARK                            x       y       z     vdW  Elec       q    Type
REMARK                         _______ _______ _______ _____ _____    ______ ____
ROOT
ATOM      1  N   UNL     1       1.525   9.033  19.828  0.00  0.00    +0.000 N 
ATOM      2  C   UNL     1       1.326   7.816  20.449  0.00  0.00    +0.000 C 
ATOM      3  O   UNL     1       0.411   7.613  21.250  0.00  0.00    +0.000 OA
ATOM      4  N   UNL     1       2.185   6.757  20.134  0.00  0.00    +0.000 N 
ATOM      5  H   UNL     1       2.312   9.136  19.210  0.00  0.00    +0.000 HD
ENDROOT
BRANCH   1   9
ATOM      6  C   UNL     1      -1.244  12.261  20.236  0.00  0.00    +0.000 A 
ATOM      7  C   UNL     1      -0.110  12.208  21.035  0.00  0.00    +0.000 A 
ATOM      8  C   UNL     1       0.834  11.189  20.875  0.00  0.00    +0.000 A 
ATOM      9  C   UNL     1       0.657  10.164  19.935  0.00  0.00    +0.000 A 
ATOM     10  C   UNL     1      -0.465  10.254  19.098  0.00  0.00    +0.000 A 
ATOM     11  C   UNL     1      -1.413  11.290  19.249  0.00  0.00    +0.000 A 
BRANCH   6  12
ATOM     12  O   UNL     1      -2.120  13.254  20.566  0.00  0.00    +0.000 OA
BRANCH  12  14
ATOM     13  C   UNL     1      -3.990  12.673  21.916  0.00  0.00    +0.000 C 
ATOM     14  C   UNL     1      -3.509  12.949  20.499  0.00  0.00    +0.000 C 
ENDBRANCH  12  14
ENDBRANCH   6  12
ENDBRANCH   1   9
BRANCH   4  15
ATOM     15  C   UNL     1       3.328   6.814  19.210  0.00  0.00    +0.000 C 
BRANCH  15  16
ATOM     16  C   UNL     1       3.105   6.349  17.755  0.00  0.00    +0.000 C 
BRANCH  16  17
ATOM     17  C   UNL     1       4.188   5.407  17.194  0.00  0.00    +0.000 C 
BRANCH  17  18
ATOM     18  N   UNL     1       5.215   6.134  16.420  0.00  0.00    +0.000 NA
ATOM     19  C   UNL     1       5.674   5.425  15.205  0.00  0.00    +0.000 C 
ATOM     20  C   UNL     1       6.574   4.209  15.491  0.00  0.00    +0.000 C 
ATOM     21  O   UNL     1       7.708   4.568  16.289  0.00  0.00    +0.000 OA
ATOM     22  C   UNL     1       7.296   5.190  17.513  0.00  0.00    +0.000 C 
ATOM     23  C   UNL     1       6.418   6.424  17.240  0.00  0.00    +0.000 C 
ENDBRANCH  17  18
ENDBRANCH  16  17
ENDBRANCH  15  16
ENDBRANCH   4  15
BRANCH   4  24
ATOM     24  C   UNL     1       2.003   5.554  20.973  0.00  0.00    +0.000 C 
BRANCH  24  25
ATOM     25  C   UNL     1       2.020   4.248  20.226  0.00  0.00    +0.000 A 
ATOM     26  C   UNL     1       0.883   3.750  19.586  0.00  0.00    +0.000 A 
ATOM     27  C   UNL     1       0.927   2.508  18.958  0.00  0.00    +0.000 A 
ATOM     28  C   UNL     1       2.115   1.798  18.991  0.00  0.00    +0.000 A 
ATOM     29  N   UNL     1       3.234   2.240  19.598  0.00  0.00    +0.000 NA
ATOM     30  C   UNL     1       3.163   3.451  20.200  0.00  0.00    +0.000 A 
ENDBRANCH  24  25
ENDBRANCH   4  24
TORSDOF 9
ENDMDL
MODEL 8
REMARK VINA RESULT:      -6.8      1.315      1.756
REMARK  Name = 
REMARK  10 active torsions:
REMARK  status: ('A' for Active; 'I' for Inactive)
REMARK    1  A    between atoms: C_1  and  C_2
REMARK    2  A    between atoms: C_2  and  O_3
REMARK    3  A    between atoms: O_3  and  C_4
REMARK    4  A    between atoms: C_7  and  N_8
REMARK    5  A    between atoms: N_11  and  C_12
REMARK    6  A    between atoms: N_11  and  C_21
REMARK    7  A    between atoms: C_12  and  C_13
REMARK    8  A    between atoms: C_13  and  C_14
REMARK    9  A    between atoms: C_14  and  N_15
REMARK   10  A    between atoms: C_21  and  C_22
REMARK                            x       y       z     vdW  Elec       q    Type
REMARK                         _______ _______ _______ _____ _____    ______ ____
ROOT
ATOM      1  N   UNL     1       3.085   6.209  17.681  0.00  0.00    +0.000 N 
ATOM      2  C   UNL     1       4.432   6.015  17.444  0.00  0.00    +0.000 C 
ATOM      3  O   UNL     1       5.289   6.860  17.712  0.00  0.00    +0.000 OA
ATOM      4  N   UNL     1       4.845   4.793  16.903  0.00  0.00    +0.000 N 
ATOM      5  H   UNL     1       2.439   5.489  17.407  0.00  0.00    +0.000 HD
ENDROOT
BRANCH   1   9
ATOM      6  C   UNL     1       1.194   9.543  19.569  0.00  0.00    +0.000 A 
ATOM      7  C   UNL     1       1.534   8.420  20.312  0.00  0.00    +0.000 A 
ATOM      8  C   UNL     1       2.204   7.344  19.720  0.00  0.00    +0.000 A 
ATOM      9  C   UNL     1       2.522   7.338  18.354  0.00  0.00    +0.000 A 
ATOM     10  C   UNL     1       2.221   8.498  17.625  0.00  0.00    +0.000 A 
ATOM     11  C   UNL     1       1.557   9.591  18.223  0.00  0.00    +0.000 A 
BRANCH   6  12
ATOM     12  O   UNL     1       0.464  10.471  20.253  0.00  0.00    +0.000 OA
BRANCH  12  14
ATOM     13  C   UNL     1      -0.565  11.395  22.188  0.00  0.00    +0.000 C 
ATOM     14  C   UNL     1       0.138  10.177  21.607  0.00  0.00    +0.000 C 
ENDBRANCH  12  14
ENDBRANCH   6  12
ENDBRANCH   1   9
BRANCH   4  15
ATOM     15  C   UNL     1       3.969   3.675  16.518  0.00  0.00    +0.000 C 
BRANCH  15  16
ATOM     16  C   UNL     1       3.656   2.604  17.584  0.00  0.00    +0.000 C 
BRANCH  16  17
ATOM     17  C   UNL     1       2.291   2.753  18.283  0.00  0.00    +0.000 C 
BRANCH  17  18
ATOM     18  N   UNL     1       2.300   3.820  19.304  0.00  0.00    +0.000 NA
ATOM     19  C   UNL     1       3.443   3.753  20.242  0.00  0.00    +0.000 C 
ATOM     20  C   UNL     1       3.349   2.606  21.264  0.00  0.00    +0.000 C 
ATOM     21  O   UNL     1       2.126   2.660  22.008  0.00  0.00    +0.000 OA
ATOM     22  C   UNL     1       0.993   2.650  21.131  0.00  0.00    +0.000 C 
ATOM     23  C   UNL     1       1.060   3.810  20.122  0.00  0.00    +0.000 C 
ENDBRANCH  17  18
ENDBRANCH  16  17
ENDBRANCH  15  16
ENDBRANCH   4  15
BRANCH   4  24
ATOM     24  C   UNL     1       6.273   4.745  16.525  0.00  0.00    +0.000 C 
BRANCH  24  25
ATOM     25  C   UNL     1       6.537   4.562  15.055  0.00  0.00    +0.000 A 
ATOM     26  C   UNL     1       7.511   5.305  14.383  0.00  0.00    +0.000 A 
ATOM     27  C   UNL     1       7.681   5.146  13.010  0.00  0.00    +0.000 A 
ATOM     28  C   UNL     1       6.866   4.243  12.348  0.00  0.00    +0.000 A 
ATOM     29  N   UNL     1       5.914   3.508  12.957  0.00  0.00    +0.000 NA
ATOM     30  C   UNL     1       5.772   3.682  14.293  0.00  0.00    +0.000 A 
ENDBRANCH  24  25
ENDBRANCH   4  24
TORSDOF 9
ENDMDL
MODEL 9
REMARK VINA RESULT:      -6.8      2.402      5.829
REMARK  Name = 
REMARK  10 active torsions:
REMARK  status: ('A' for Active; 'I' for Inactive)
REMARK    1  A    between atoms: C_1  and  C_2
REMARK    2  A    between atoms: C_2  and  O_3
REMARK    3  A    between atoms: O_3  and  C_4
REMARK    4  A    between atoms: C_7  and  N_8
REMARK    5  A    between atoms: N_11  and  C_12
REMARK    6  A    between atoms: N_11  and  C_21
REMARK    7  A    between atoms: C_12  and  C_13
REMARK    8  A    between atoms: C_13  and  C_14
REMARK    9  A    between atoms: C_14  and  N_15
REMARK   10  A    between atoms: C_21  and  C_22
REMARK                            x       y       z     vdW  Elec       q    Type
REMARK                         _______ _______ _______ _____ _____    ______ ____
ROOT
ATOM      1  N   UNL     1       1.237   9.163  19.397  0.00  0.00    +0.000 N 
ATOM      2  C   UNL     1       1.613   8.042  20.112  0.00  0.00    +0.000 C 
ATOM      3  O   UNL     1       1.367   7.898  21.312  0.00  0.00    +0.000 OA
ATOM      4  N   UNL     1       2.278   7.012  19.438  0.00  0.00    +0.000 N 
ATOM      5  H   UNL     1       1.500   9.227  18.429  0.00  0.00    +0.000 HD
ENDROOT
BRANCH   1   9
ATOM      6  C   UNL     1      -1.338  12.190  20.966  0.00  0.00    +0.000 A 
ATOM      7  C   UNL     1      -0.159  11.866  21.624  0.00  0.00    +0.000 A 
ATOM      8  C   UNL     1       0.722  10.918  21.093  0.00  0.00    +0.000 A 
ATOM      9  C   UNL     1       0.434  10.231  19.905  0.00  0.00    +0.000 A 
ATOM     10  C   UNL     1      -0.733  10.602  19.221  0.00  0.00    +0.000 A 
ATOM     11  C   UNL     1      -1.618  11.570  19.748  0.00  0.00    +0.000 A 
BRANCH   6  12
ATOM     12  O   UNL     1      -2.141  13.060  21.644  0.00  0.00    +0.000 OA
BRANCH  12  14
ATOM     13  C   UNL     1      -4.476  13.459  21.432  0.00  0.00    +0.000 C 
ATOM     14  C   UNL     1      -3.096  13.795  20.886  0.00  0.00    +0.000 C 
ENDBRANCH  12  14
ENDBRANCH   6  12
ENDBRANCH   1   9
BRANCH   4  15
ATOM     15  C   UNL     1       2.658   7.012  18.016  0.00  0.00    +0.000 C 
BRANCH  15  16
ATOM     16  C   UNL     1       4.159   7.121  17.671  0.00  0.00    +0.000 C 
BRANCH  16  17
ATOM     17  C   UNL     1       4.686   6.053  16.693  0.00  0.00    +0.000 C 
BRANCH  17  18
ATOM     18  N   UNL     1       6.017   6.397  16.153  0.00  0.00    +0.000 NA
ATOM     19  C   UNL     1       6.573   5.391  15.220  0.00  0.00    +0.000 C 
ATOM     20  C   UNL     1       7.049   4.097  15.904  0.00  0.00    +0.000 C 
ATOM     21  O   UNL     1       8.004   4.366  16.937  0.00  0.00    +0.000 OA
ATOM     22  C   UNL     1       7.469   5.279  17.902  0.00  0.00    +0.000 C 
ATOM     23  C   UNL     1       7.016   6.590  17.235  0.00  0.00    +0.000 C 
ENDBRANCH  17  18
ENDBRANCH  16  17
ENDBRANCH  15  16
ENDBRANCH   4  15
BRANCH   4  24
ATOM     24  C   UNL     1       2.792   5.941  20.315  0.00  0.00    +0.000 C 
BRANCH  24  25
ATOM     25  C   UNL     1       2.421   4.543  19.898  0.00  0.00    +0.000 A 
ATOM     26  C   UNL     1       3.375   3.637  19.427  0.00  0.00    +0.000 A 
ATOM     27  C   UNL     1       2.980   2.374  18.995  0.00  0.00    +0.000 A 
ATOM     28  C   UNL     1       1.634   2.054  19.048  0.00  0.00    +0.000 A 
ATOM     29  N   UNL     1       0.681   2.897  19.493  0.00  0.00    +0.000 NA
ATOM     30  C   UNL     1       1.095   4.119  19.908  0.00  0.00    +0.000 A 
ENDBRANCH  24  25
ENDBRANCH   4  24
TORSDOF 9
ENDMDL
