MODEL 1
REMARK VINA RESULT:      -8.9      0.000      0.000
REMARK  Name = 
REMARK  3 active torsions:
REMARK  status: ('A' for Active; 'I' for Inactive)
REMARK    1  A    between atoms: C_5  and  C_6
REMARK    2  A    between atoms: C_9  and  C_10
REMARK    3  A    between atoms: C_10  and  N_11
REMARK                            x       y       z     vdW  Elec       q    Type
REMARK                         _______ _______ _______ _____ _____    ______ ____
ROOT
ATOM      1  C   UNL     1       0.826   9.382  20.136  0.00  0.00    +0.000 A 
ATOM      2  C   UNL     1       1.045   9.640  18.771  0.00  0.00    +0.000 A 
ATOM      3  C   UNL     1       1.791   8.766  17.969  0.00  0.00    +0.000 A 
ATOM      4  C   UNL     1       2.337   7.597  18.510  0.00  0.00    +0.000 A 
ATOM      5  C   UNL     1       2.164   7.353  19.876  0.00  0.00    +0.000 A 
ATOM      6  C   UNL     1       1.424   8.230  20.672  0.00  0.00    +0.000 A 
ENDROOT
BRANCH   1  11
ATOM      7 CL   UNL     1      -2.453  13.051  23.616  0.00  0.00    +0.000 Cl
ATOM      8  C   UNL     1      -1.563  11.979  22.611  0.00  0.00    +0.000 A 
ATOM      9  C   UNL     1      -1.114  10.763  23.112  0.00  0.00    +0.000 A 
ATOM     10  C   UNL     1      -0.352   9.908  22.305  0.00  0.00    +0.000 A 
ATOM     11  C   UNL     1      -0.039  10.247  20.975  0.00  0.00    +0.000 A 
ATOM     12  C   UNL     1      -0.537  11.474  20.488  0.00  0.00    +0.000 A 
ATOM     13  C   UNL     1      -1.281  12.338  21.297  0.00  0.00    +0.000 A 
ENDBRANCH   1  11
BRANCH   4  14
ATOM     14  C   UNL     1       2.945   6.545  17.612  0.00  0.00    +0.000 C 
BRANCH  14  15
ATOM     15  N   UNL     1       4.197   5.882  18.061  0.00  0.00    +0.000 N 
ATOM     16  C   UNL     1       4.995   5.613  16.924  0.00  0.00    +0.000 C 
ATOM     17  N   UNL     1       5.910   6.304  16.312  0.00  0.00    +0.000 NA
ATOM     18  C   UNL     1       6.458   5.289  15.349  0.00  0.00    +0.000 C 
ATOM     19  C   UNL     1       6.036   3.907  15.911  0.00  0.00    +0.000 C 
ATOM     20  N   UNL     1       4.779   4.300  16.497  0.00  0.00    +0.000 N 
ATOM     21  C   UNL     1       4.137   3.627  17.517  0.00  0.00    +0.000 A 
ATOM     22  C   UNL     1       3.679   2.336  17.611  0.00  0.00    +0.000 A 
ATOM     23  C   UNL     1       3.128   1.936  18.833  0.00  0.00    +0.000 A 
ATOM     24  C   UNL     1       3.113   2.810  19.938  0.00  0.00    +0.000 A 
ATOM     25  C   UNL     1       3.489   4.149  19.797  0.00  0.00    +0.000 A 
ATOM     26  C   UNL     1       3.888   4.561  18.545  0.00  0.00    +0.000 A 
ENDBRANCH  14  15
ENDBRANCH   4  14
TORSDOF 3
ENDMDL
MODEL 2
REMARK VINA RESULT:      -8.8      1.178      1.551
REMARK  Name = 
REMARK  3 active torsions:
REMARK  status: ('A' for Active; 'I' for Inactive)
REMARK    1  A    between atoms: C_5  and  C_6
REMARK    2  A    between atoms: C_9  and  C_10
REMARK    3  A    between atoms: C_10  and  N_11
REMARK                            x       y       z     vdW  Elec       q    Type
REMARK                         _______ _______ _______ _____ _____    ______ ____
ROOT
ATOM      1  C   UNL     1       0.237  10.159  20.270  0.00  0.00    +0.000 A 
ATOM      2  C   UNL     1       0.380  10.311  18.879  0.00  0.00    +0.000 A 
ATOM      3  C   UNL     1       1.186   9.447  18.125  0.00  0.00    +0.000 A 
ATOM      4  C   UNL     1       1.869   8.394  18.742  0.00  0.00    +0.000 A 
ATOM      5  C   UNL     1       1.770   8.260  20.130  0.00  0.00    +0.000 A 
ATOM      6  C   UNL     1       0.971   9.127  20.879  0.00  0.00    +0.000 A 
ENDROOT
BRANCH   1  11
ATOM      7 CL   UNL     1      -3.700  13.385  23.496  0.00  0.00    +0.000 Cl
ATOM      8  C   UNL     1      -2.543  12.506  22.581  0.00  0.00    +0.000 A 
ATOM      9  C   UNL     1      -2.441  12.703  21.210  0.00  0.00    +0.000 A 
ATOM     10  C   UNL     1      -1.525  11.955  20.457  0.00  0.00    +0.000 A 
ATOM     11  C   UNL     1      -0.683  11.006  21.067  0.00  0.00    +0.000 A 
ATOM     12  C   UNL     1      -0.790  10.853  22.466  0.00  0.00    +0.000 A 
ATOM     13  C   UNL     1      -1.716  11.584  23.216  0.00  0.00    +0.000 A 
ENDBRANCH   1  11
BRANCH   4  14
ATOM     14  C   UNL     1       2.551   7.331  17.914  0.00  0.00    +0.000 C 
BRANCH  14  15
ATOM     15  N   UNL     1       3.419   6.348  18.615  0.00  0.00    +0.000 N 
ATOM     16  C   UNL     1       4.467   5.972  17.743  0.00  0.00    +0.000 C 
ATOM     17  N   UNL     1       5.656   6.456  17.540  0.00  0.00    +0.000 NA
ATOM     18  C   UNL     1       6.259   5.409  16.648  0.00  0.00    +0.000 C 
ATOM     19  C   UNL     1       5.395   4.138  16.851  0.00  0.00    +0.000 C 
ATOM     20  N   UNL     1       4.129   4.786  17.084  0.00  0.00    +0.000 N 
ATOM     21  C   UNL     1       3.063   4.222  17.756  0.00  0.00    +0.000 A 
ATOM     22  C   UNL     1       2.336   3.081  17.520  0.00  0.00    +0.000 A 
ATOM     23  C   UNL     1       1.347   2.745  18.449  0.00  0.00    +0.000 A 
ATOM     24  C   UNL     1       1.159   3.515  19.614  0.00  0.00    +0.000 A 
ATOM     25  C   UNL     1       1.835   4.726  19.788  0.00  0.00    +0.000 A 
ATOM     26  C   UNL     1       2.697   5.114  18.787  0.00  0.00    +0.000 A 
ENDBRANCH  14  15
ENDBRANCH   4  14
TORSDOF 3
ENDMDL
MODEL 3
REMARK VINA RESULT:      -8.5      0.860      1.274
REMARK  Name = 
REMARK  3 active torsions:
REMARK  status: ('A' for Active; 'I' for Inactive)
REMARK    1  A    between atoms: C_5  and  C_6
REMARK    2  A    between atoms: C_9  and  C_10
REMARK    3  A    between atoms: C_10  and  N_11
REMARK                            x       y       z     vdW  Elec       q    Type
REMARK                         _______ _______ _______ _____ _____    ______ ____
ROOT
ATOM      1  C   UNL     1       0.820   9.673  20.264  0.00  0.00    +0.000 A 
ATOM      2  C   UNL     1       1.269   8.463  20.825  0.00  0.00    +0.000 A 
ATOM      3  C   UNL     1       1.935   7.499  20.055  0.00  0.00    +0.000 A 
ATOM      4  C   UNL     1       2.181   7.722  18.697  0.00  0.00    +0.000 A 
ATOM      5  C   UNL     1       1.700   8.900  18.118  0.00  0.00    +0.000 A 
ATOM      6  C   UNL     1       1.032   9.856  18.888  0.00  0.00    +0.000 A 
ENDROOT
BRANCH   1  11
ATOM      7 CL   UNL     1      -1.455  14.033  23.747  0.00  0.00    +0.000 Cl
ATOM      8  C   UNL     1      -0.853  12.789  22.727  0.00  0.00    +0.000 A 
ATOM      9  C   UNL     1      -1.114  11.457  23.021  0.00  0.00    +0.000 A 
ATOM     10  C   UNL     1      -0.587  10.441  22.213  0.00  0.00    +0.000 A 
ATOM     11  C   UNL     1       0.200  10.741  21.084  0.00  0.00    +0.000 A 
ATOM     12  C   UNL     1       0.419  12.105  20.795  0.00  0.00    +0.000 A 
ATOM     13  C   UNL     1      -0.089  13.120  21.611  0.00  0.00    +0.000 A 
ENDBRANCH   1  11
BRANCH   4  14
ATOM     14  C   UNL     1       3.088   6.798  17.918  0.00  0.00    +0.000 C 
BRANCH  14  15
ATOM     15  N   UNL     1       4.128   6.045  18.666  0.00  0.00    +0.000 N 
ATOM     16  C   UNL     1       5.275   5.927  17.845  0.00  0.00    +0.000 C 
ATOM     17  N   UNL     1       6.324   6.677  17.691  0.00  0.00    +0.000 NA
ATOM     18  C   UNL     1       7.197   5.801  16.837  0.00  0.00    +0.000 C 
ATOM     19  C   UNL     1       6.645   4.363  17.012  0.00  0.00    +0.000 C 
ATOM     20  N   UNL     1       5.254   4.696  17.183  0.00  0.00    +0.000 N 
ATOM     21  C   UNL     1       4.320   3.897  17.812  0.00  0.00    +0.000 A 
ATOM     22  C   UNL     1       3.893   2.618  17.554  0.00  0.00    +0.000 A 
ATOM     23  C   UNL     1       2.968   2.057  18.441  0.00  0.00    +0.000 A 
ATOM     24  C   UNL     1       2.552   2.760  19.589  0.00  0.00    +0.000 A 
ATOM     25  C   UNL     1       2.917   4.095  19.782  0.00  0.00    +0.000 A 
ATOM     26  C   UNL     1       3.708   4.676  18.817  0.00  0.00    +0.000 A 
ENDBRANCH  14  15
ENDBRANCH   4  14
TORSDOF 3
ENDMDL
MODEL 4
REMARK VINA RESULT:      -8.5      1.574      3.143
REMARK  Name = 
REMARK  3 active torsions:
REMARK  status: ('A' for Active; 'I' for Inactive)
REMARK    1  A    between atoms: C_5  and  C_6
REMARK    2  A    between atoms: C_9  and  C_10
REMARK    3  A    between atoms: C_10  and  N_11
REMARK                            x       y       z     vdW  Elec       q    Type
REMARK                         _______ _______ _______ _____ _____    ______ ____
ROOT
ATOM      1  C   UNL     1       0.331   9.738  19.883  0.00  0.00    +0.000 A 
ATOM      2  C   UNL     1       1.025   9.523  18.678  0.00  0.00    +0.000 A 
ATOM      3  C   UNL     1       1.937   8.470  18.533  0.00  0.00    +0.000 A 
ATOM      4  C   UNL     1       2.178   7.589  19.592  0.00  0.00    +0.000 A 
ATOM      5  C   UNL     1       1.529   7.818  20.809  0.00  0.00    +0.000 A 
ATOM      6  C   UNL     1       0.624   8.873  20.951  0.00  0.00    +0.000 A 
ENDROOT
BRANCH   1  11
ATOM      7 CL   UNL     1      -4.058  13.811  20.567  0.00  0.00    +0.000 Cl
ATOM      8  C   UNL     1      -2.775  12.688  20.352  0.00  0.00    +0.000 A 
ATOM      9  C   UNL     1      -2.612  12.041  19.133  0.00  0.00    +0.000 A 
ATOM     10  C   UNL     1      -1.592  11.093  18.971  0.00  0.00    +0.000 A 
ATOM     11  C   UNL     1      -0.705  10.789  20.022  0.00  0.00    +0.000 A 
ATOM     12  C   UNL     1      -0.879  11.488  21.236  0.00  0.00    +0.000 A 
ATOM     13  C   UNL     1      -1.909  12.418  21.406  0.00  0.00    +0.000 A 
ENDBRANCH   1  11
BRANCH   4  14
ATOM     14  C   UNL     1       2.981   6.328  19.376  0.00  0.00    +0.000 C 
BRANCH  14  15
ATOM     15  N   UNL     1       2.838   5.622  18.075  0.00  0.00    +0.000 N 
ATOM     16  C   UNL     1       2.588   4.253  18.332  0.00  0.00    +0.000 C 
ATOM     17  N   UNL     1       1.489   3.580  18.502  0.00  0.00    +0.000 NA
ATOM     18  C   UNL     1       2.000   2.167  18.499  0.00  0.00    +0.000 C 
ATOM     19  C   UNL     1       3.393   2.226  17.821  0.00  0.00    +0.000 C 
ATOM     20  N   UNL     1       3.786   3.536  18.275  0.00  0.00    +0.000 N 
ATOM     21  C   UNL     1       4.726   4.338  17.659  0.00  0.00    +0.000 A 
ATOM     22  C   UNL     1       6.053   4.134  17.374  0.00  0.00    +0.000 A 
ATOM     23  C   UNL     1       6.720   5.136  16.661  0.00  0.00    +0.000 A 
ATOM     24  C   UNL     1       6.030   6.274  16.199  0.00  0.00    +0.000 A 
ATOM     25  C   UNL     1       4.708   6.514  16.584  0.00  0.00    +0.000 A 
ATOM     26  C   UNL     1       4.115   5.587  17.411  0.00  0.00    +0.000 A 
ENDBRANCH  14  15
ENDBRANCH   4  14
TORSDOF 3
ENDMDL
MODEL 5
REMARK VINA RESULT:      -8.5      1.067      1.666
REMARK  Name = 
REMARK  3 active torsions:
REMARK  status: ('A' for Active; 'I' for Inactive)
REMARK    1  A    between atoms: C_5  and  C_6
REMARK    2  A    between atoms: C_9  and  C_10
REMARK    3  A    between atoms: C_10  and  N_11
REMARK                            x       y       z     vdW  Elec       q    Type
REMARK                         _______ _______ _______ _____ _____    ______ ____
ROOT
ATOM      1  C   UNL     1       0.712  10.017  20.436  0.00  0.00    +0.000 A 
ATOM      2  C   UNL     1       1.226   8.805  20.932  0.00  0.00    +0.000 A 
ATOM      3  C   UNL     1       1.856   7.876  20.092  0.00  0.00    +0.000 A 
ATOM      4  C   UNL     1       2.001   8.139  18.726  0.00  0.00    +0.000 A 
ATOM      5  C   UNL     1       1.455   9.320  18.214  0.00  0.00    +0.000 A 
ATOM      6  C   UNL     1       0.822  10.240  19.054  0.00  0.00    +0.000 A 
ENDROOT
BRANCH   1  11
ATOM      7 CL   UNL     1      -1.904  14.211  23.883  0.00  0.00    +0.000 Cl
ATOM      8  C   UNL     1      -1.116  13.017  22.934  0.00  0.00    +0.000 A 
ATOM      9  C   UNL     1      -0.225  13.394  21.936  0.00  0.00    +0.000 A 
ATOM     10  C   UNL     1       0.385  12.420  21.133  0.00  0.00    +0.000 A 
ATOM     11  C   UNL     1       0.127  11.049  21.325  0.00  0.00    +0.000 A 
ATOM     12  C   UNL     1      -0.758  10.700  22.368  0.00  0.00    +0.000 A 
ATOM     13  C   UNL     1      -1.383  11.670  23.157  0.00  0.00    +0.000 A 
ENDBRANCH   1  11
BRANCH   4  14
ATOM     14  C   UNL     1       2.871   7.257  17.861  0.00  0.00    +0.000 C 
BRANCH  14  15
ATOM     15  N   UNL     1       3.753   6.269  18.535  0.00  0.00    +0.000 N 
ATOM     16  C   UNL     1       4.845   5.985  17.681  0.00  0.00    +0.000 C 
ATOM     17  N   UNL     1       6.019   6.526  17.548  0.00  0.00    +0.000 NA
ATOM     18  C   UNL     1       6.693   5.556  16.620  0.00  0.00    +0.000 C 
ATOM     19  C   UNL     1       5.874   4.244  16.718  0.00  0.00    +0.000 C 
ATOM     20  N   UNL     1       4.577   4.828  16.943  0.00  0.00    +0.000 N 
ATOM     21  C   UNL     1       3.512   4.186  17.543  0.00  0.00    +0.000 A 
ATOM     22  C   UNL     1       2.840   3.034  17.216  0.00  0.00    +0.000 A 
ATOM     23  C   UNL     1       1.835   2.605  18.088  0.00  0.00    +0.000 A 
ATOM     24  C   UNL     1       1.577   3.298  19.288  0.00  0.00    +0.000 A 
ATOM     25  C   UNL     1       2.198   4.521  19.556  0.00  0.00    +0.000 A 
ATOM     26  C   UNL     1       3.076   5.000  18.610  0.00  0.00    +0.000 A 
ENDBRANCH  14  15
ENDBRANCH   4  14
TORSDOF 3
ENDMDL
MODEL 6
REMARK VINA RESULT:      -8.5      2.058      3.489
REMARK  Name = 
REMARK  3 active torsions:
REMARK  status: ('A' for Active; 'I' for Inactive)
REMARK    1  A    between atoms: C_5  and  C_6
REMARK    2  A    between atoms: C_9  and  C_10
REMARK    3  A    between atoms: C_10  and  N_11
REMARK                            x       y       z     vdW  Elec       q    Type
REMARK                         _______ _______ _______ _____ _____    ______ ____
ROOT
ATOM      1  C   UNL     1       0.943  10.412  19.140  0.00  0.00    +0.000 A 
ATOM      2  C   UNL     1       0.953   9.606  20.292  0.00  0.00    +0.000 A 
ATOM      3  C   UNL     1       1.486   8.310  20.278  0.00  0.00    +0.000 A 
ATOM      4  C   UNL     1       2.037   7.782  19.105  0.00  0.00    +0.000 A 
ATOM      5  C   UNL     1       1.993   8.557  17.942  0.00  0.00    +0.000 A 
ATOM      6  C   UNL     1       1.455   9.846  17.960  0.00  0.00    +0.000 A 
ENDROOT
BRANCH   1  11
ATOM      7 CL   UNL     1      -0.841  16.158  19.482  0.00  0.00    +0.000 Cl
ATOM      8  C   UNL     1      -0.358  14.516  19.338  0.00  0.00    +0.000 A 
ATOM      9  C   UNL     1      -1.195  13.501  19.785  0.00  0.00    +0.000 A 
ATOM     10  C   UNL     1      -0.783  12.164  19.706  0.00  0.00    +0.000 A 
ATOM     11  C   UNL     1       0.469  11.817  19.162  0.00  0.00    +0.000 A 
ATOM     12  C   UNL     1       1.280  12.870  18.688  0.00  0.00    +0.000 A 
ATOM     13  C   UNL     1       0.880  14.206  18.784  0.00  0.00    +0.000 A 
ENDBRANCH   1  11
BRANCH   4  14
ATOM     14  C   UNL     1       2.812   6.486  19.135  0.00  0.00    +0.000 C 
BRANCH  14  15
ATOM     15  N   UNL     1       3.157   5.847  17.838  0.00  0.00    +0.000 N 
ATOM     16  C   UNL     1       2.886   4.461  17.933  0.00  0.00    +0.000 C 
ATOM     17  N   UNL     1       1.824   3.756  17.681  0.00  0.00    +0.000 NA
ATOM     18  C   UNL     1       2.358   2.357  17.797  0.00  0.00    +0.000 C 
ATOM     19  C   UNL     1       3.896   2.482  17.650  0.00  0.00    +0.000 C 
ATOM     20  N   UNL     1       4.056   3.775  18.267  0.00  0.00    +0.000 N 
ATOM     21  C   UNL     1       5.119   4.628  18.052  0.00  0.00    +0.000 A 
ATOM     22  C   UNL     1       6.470   4.468  18.239  0.00  0.00    +0.000 A 
ATOM     23  C   UNL     1       7.304   5.520  17.846  0.00  0.00    +0.000 A 
ATOM     24  C   UNL     1       6.773   6.666  17.221  0.00  0.00    +0.000 A 
ATOM     25  C   UNL     1       5.391   6.857  17.130  0.00  0.00    +0.000 A 
ATOM     26  C   UNL     1       4.585   5.875  17.659  0.00  0.00    +0.000 A 
ENDBRANCH  14  15
ENDBRANCH   4  14
TORSDOF 3
ENDMDL
MODEL 7
REMARK VINA RESULT:      -8.4      4.531      9.443
REMARK  Name = 
REMARK  3 active torsions:
REMARK  status: ('A' for Active; 'I' for Inactive)
REMARK    1  A    between atoms: C_5  and  C_6
REMARK    2  A    between atoms: C_9  and  C_10
REMARK    3  A    between atoms: C_10  and  N_11
REMARK                            x       y       z     vdW  Elec       q    Type
REMARK                         _______ _______ _______ _____ _____    ______ ____
ROOT
ATOM      1  C   UNL     1       2.621   7.538  18.512  0.00  0.00    +0.000 A 
ATOM      2  C   UNL     1       2.228   7.377  19.853  0.00  0.00    +0.000 A 
ATOM      3  C   UNL     1       1.359   8.281  20.478  0.00  0.00    +0.000 A 
ATOM      4  C   UNL     1       0.845   9.374  19.773  0.00  0.00    +0.000 A 
ATOM      5  C   UNL     1       1.263   9.570  18.453  0.00  0.00    +0.000 A 
ATOM      6  C   UNL     1       2.134   8.669  17.836  0.00  0.00    +0.000 A 
ENDROOT
BRANCH   1  11
ATOM      7 CL   UNL     1       5.890   3.530  15.419  0.00  0.00    +0.000 Cl
ATOM      8  C   UNL     1       4.989   4.663  16.343  0.00  0.00    +0.000 A 
ATOM      9  C   UNL     1       3.934   4.233  17.140  0.00  0.00    +0.000 A 
ATOM     10  C   UNL     1       3.173   5.163  17.860  0.00  0.00    +0.000 A 
ATOM     11  C   UNL     1       3.463   6.540  17.810  0.00  0.00    +0.000 A 
ATOM     12  C   UNL     1       4.561   6.939  17.017  0.00  0.00    +0.000 A 
ATOM     13  C   UNL     1       5.309   6.016  16.281  0.00  0.00    +0.000 A 
ENDBRANCH   1  11
BRANCH   4  14
ATOM     14  C   UNL     1      -0.260  10.219  20.362  0.00  0.00    +0.000 C 
BRANCH  14  15
ATOM     15  N   UNL     1      -0.411  11.614  19.872  0.00  0.00    +0.000 N 
ATOM     16  C   UNL     1      -0.558  12.470  20.989  0.00  0.00    +0.000 C 
ATOM     17  N   UNL     1       0.302  13.115  21.719  0.00  0.00    +0.000 NA
ATOM     18  C   UNL     1      -0.600  13.976  22.556  0.00  0.00    +0.000 C 
ATOM     19  C   UNL     1      -1.953  14.023  21.800  0.00  0.00    +0.000 C 
ATOM     20  N   UNL     1      -1.915  12.701  21.229  0.00  0.00    +0.000 N 
ATOM     21  C   UNL     1      -2.614  12.302  20.107  0.00  0.00    +0.000 A 
ATOM     22  C   UNL     1      -3.958  12.291  19.826  0.00  0.00    +0.000 A 
ATOM     23  C   UNL     1      -4.343  11.887  18.543  0.00  0.00    +0.000 A 
ATOM     24  C   UNL     1      -3.379  11.574  17.565  0.00  0.00    +0.000 A 
ATOM     25  C   UNL     1      -2.023  11.493  17.897  0.00  0.00    +0.000 A 
ATOM     26  C   UNL     1      -1.680  11.749  19.205  0.00  0.00    +0.000 A 
ENDBRANCH  14  15
ENDBRANCH   4  14
TORSDOF 3
ENDMDL
MODEL 8
REMARK VINA RESULT:      -8.4      1.340      3.113
REMARK  Name = 
REMARK  3 active torsions:
REMARK  status: ('A' for Active; 'I' for Inactive)
REMARK    1  A    between atoms: C_5  and  C_6
REMARK    2  A    between atoms: C_9  and  C_10
REMARK    3  A    between atoms: C_10  and  N_11
REMARK                            x       y       z     vdW  Elec       q    Type
REMARK                         _______ _______ _______ _____ _____    ______ ____
ROOT
ATOM      1  C   UNL     1       0.323   9.639  20.576  0.00  0.00    +0.000 A 
ATOM      2  C   UNL     1       0.597   8.498  21.353  0.00  0.00    +0.000 A 
ATOM      3  C   UNL     1       1.431   7.474  20.886  0.00  0.00    +0.000 A 
ATOM      4  C   UNL     1       2.028   7.565  19.624  0.00  0.00    +0.000 A 
ATOM      5  C   UNL     1       1.728   8.672  18.824  0.00  0.00    +0.000 A 
ATOM      6  C   UNL     1       0.890   9.687  19.292  0.00  0.00    +0.000 A 
ENDROOT
BRANCH   1  11
ATOM      7 CL   UNL     1      -3.165  14.062  22.716  0.00  0.00    +0.000 Cl
ATOM      8  C   UNL     1      -2.131  12.837  22.101  0.00  0.00    +0.000 A 
ATOM      9  C   UNL     1      -2.010  12.649  20.730  0.00  0.00    +0.000 A 
ATOM     10  C   UNL     1      -1.199  11.621  20.229  0.00  0.00    +0.000 A 
ATOM     11  C   UNL     1      -0.480  10.772  21.093  0.00  0.00    +0.000 A 
ATOM     12  C   UNL     1      -0.600  11.011  22.479  0.00  0.00    +0.000 A 
ATOM     13  C   UNL     1      -1.424  12.023  22.981  0.00  0.00    +0.000 A 
ENDBRANCH   1  11
BRANCH   4  14
ATOM     14  C   UNL     1       3.098   6.584  19.207  0.00  0.00    +0.000 C 
BRANCH  14  15
ATOM     15  N   UNL     1       2.917   5.855  17.924  0.00  0.00    +0.000 N 
ATOM     16  C   UNL     1       2.531   4.524  18.214  0.00  0.00    +0.000 C 
ATOM     17  N   UNL     1       1.370   3.963  18.376  0.00  0.00    +0.000 NA
ATOM     18  C   UNL     1       1.744   2.509  18.426  0.00  0.00    +0.000 C 
ATOM     19  C   UNL     1       3.151   2.415  17.781  0.00  0.00    +0.000 C 
ATOM     20  N   UNL     1       3.657   3.696  18.206  0.00  0.00    +0.000 N 
ATOM     21  C   UNL     1       4.682   4.386  17.591  0.00  0.00    +0.000 A 
ATOM     22  C   UNL     1       5.990   4.048  17.345  0.00  0.00    +0.000 A 
ATOM     23  C   UNL     1       6.764   4.960  16.620  0.00  0.00    +0.000 A 
ATOM     24  C   UNL     1       6.196   6.143  16.108  0.00  0.00    +0.000 A 
ATOM     25  C   UNL     1       4.895   6.519  16.453  0.00  0.00    +0.000 A 
ATOM     26  C   UNL     1       4.199   5.678  17.292  0.00  0.00    +0.000 A 
ENDBRANCH  14  15
ENDBRANCH   4  14
TORSDOF 3
ENDMDL
MODEL 9
REMARK VINA RESULT:      -8.4      2.079      3.386
REMARK  Name = 
REMARK  3 active torsions:
REMARK  status: ('A' for Active; 'I' for Inactive)
REMARK    1  A    between atoms: C_5  and  C_6
REMARK    2  A    between atoms: C_9  and  C_10
REMARK    3  A    between atoms: C_10  and  N_11
REMARK                            x       y       z     vdW  Elec       q    Type
REMARK                         _______ _______ _______ _____ _____    ______ ____
ROOT
ATOM      1  C   UNL     1      -0.135   9.874  19.155  0.00  0.00    +0.000 A 
ATOM      2  C   UNL     1       0.589   9.589  17.982  0.00  0.00    +0.000 A 
ATOM      3  C   UNL     1       1.684   8.715  17.989  0.00  0.00    +0.000 A 
ATOM      4  C   UNL     1       2.084   8.088  19.174  0.00  0.00    +0.000 A 
ATOM      5  C   UNL     1       1.400   8.397  20.354  0.00  0.00    +0.000 A 
ATOM      6  C   UNL     1       0.313   9.274  20.343  0.00  0.00    +0.000 A 
ENDROOT
BRANCH   1  11
ATOM      7 CL   UNL     1      -5.199  13.137  19.308  0.00  0.00    +0.000 Cl
ATOM      8  C   UNL     1      -3.735  12.243  19.230  0.00  0.00    +0.000 A 
ATOM      9  C   UNL     1      -3.536  11.315  18.215  0.00  0.00    +0.000 A 
ATOM     10  C   UNL     1      -2.359  10.555  18.177  0.00  0.00    +0.000 A 
ATOM     11  C   UNL     1      -1.351  10.722  19.146  0.00  0.00    +0.000 A 
ATOM     12  C   UNL     1      -1.571  11.695  20.144  0.00  0.00    +0.000 A 
ATOM     13  C   UNL     1      -2.753  12.440  20.196  0.00  0.00    +0.000 A 
ENDBRANCH   1  11
BRANCH   4  14
ATOM     14  C   UNL     1       3.110   6.980  19.149  0.00  0.00    +0.000 C 
BRANCH  14  15
ATOM     15  N   UNL     1       3.383   6.308  17.851  0.00  0.00    +0.000 N 
ATOM     16  C   UNL     1       2.958   4.962  17.945  0.00  0.00    +0.000 C 
ATOM     17  N   UNL     1       1.823   4.380  17.690  0.00  0.00    +0.000 NA
ATOM     18  C   UNL     1       2.197   2.930  17.804  0.00  0.00    +0.000 C 
ATOM     19  C   UNL     1       3.739   2.882  17.659  0.00  0.00    +0.000 C 
ATOM     20  N   UNL     1       4.043   4.147  18.278  0.00  0.00    +0.000 N 
ATOM     21  C   UNL     1       5.196   4.876  18.066  0.00  0.00    +0.000 A 
ATOM     22  C   UNL     1       6.520   4.565  18.254  0.00  0.00    +0.000 A 
ATOM     23  C   UNL     1       7.467   5.517  17.864  0.00  0.00    +0.000 A 
ATOM     24  C   UNL     1       7.069   6.716  17.240  0.00  0.00    +0.000 A 
ATOM     25  C   UNL     1       5.718   7.061  17.148  0.00  0.00    +0.000 A 
ATOM     26  C   UNL     1       4.806   6.175  17.674  0.00  0.00    +0.000 A 
ENDBRANCH  14  15
ENDBRANCH   4  14
TORSDOF 3
ENDMDL
