MODEL 1
REMARK VINA RESULT:      -7.0      0.000      0.000
REMARK  Name = 
REMARK  9 active torsions:
REMARK  status: ('A' for Active; 'I' for Inactive)
REMARK    1  A    between atoms: C_1  and  N_2
REMARK    2  A    between atoms: N_5  and  C_6
REMARK    3  A    between atoms: C_6  and  C_7
REMARK    4  A    between atoms: C_7  and  O_8
REMARK    5  A    between atoms: C_7  and  C_9
REMARK    6  A    between atoms: C_9  and  O_10
REMARK    7  A    between atoms: O_10  and  C_11
REMARK    8  A    between atoms: C_14  and  C_15
REMARK    9  A    between atoms: C_15  and  O_17
REMARK                            x       y       z     vdW  Elec       q    Type
REMARK                         _______ _______ _______ _____ _____    ______ ____
ROOT
ATOM      1  C   UNL     1       6.485   6.039  16.895  0.00  0.00    +0.000 C 
ENDROOT
BRANCH   1   2
ATOM      2  C   UNL     1       6.992   5.431  18.211  0.00  0.00    +0.000 C 
BRANCH   2   3
ATOM      3  O   UNL     1       7.845   4.314  17.929  0.00  0.00    +0.000 OA
ATOM      4  H   UNL     1       8.114   3.913  18.772  0.00  0.00    +0.000 HD
ENDBRANCH   2   3
BRANCH   2   5
ATOM      5  C   UNL     1       5.791   5.002  19.092  0.00  0.00    +0.000 C 
BRANCH   5  10
ATOM      6  C   UNL     1       2.127   3.096  21.564  0.00  0.00    +0.000 C 
ATOM      7  N   UNL     1       2.541   3.585  20.254  0.00  0.00    +0.000 NA
ATOM      8  C   UNL     1       3.642   2.775  19.700  0.00  0.00    +0.000 C 
ATOM      9  C   UNL     1       4.147   3.320  18.342  0.00  0.00    +0.000 C 
ATOM     10  N   UNL     1       4.537   4.747  18.357  0.00  0.00    +0.000 NA
ATOM     11  C   UNL     1       3.408   5.517  18.925  0.00  0.00    +0.000 C 
ATOM     12  C   UNL     1       2.915   5.008  20.302  0.00  0.00    +0.000 C 
ENDBRANCH   5  10
ENDBRANCH   2   5
ENDBRANCH   1   2
BRANCH   1  13
ATOM     13  O   UNL     1       7.442   5.754  15.872  0.00  0.00    +0.000 OA
BRANCH  13  14
ATOM     14  C   UNL     1       6.987   5.047  14.797  0.00  0.00    +0.000 A 
ATOM     15  C   UNL     1       5.761   4.410  14.990  0.00  0.00    +0.000 A 
ATOM     16  C   UNL     1       5.186   3.653  13.965  0.00  0.00    +0.000 A 
ATOM     17  C   UNL     1       5.833   3.547  12.728  0.00  0.00    +0.000 A 
ATOM     18  C   UNL     1       7.038   4.231  12.519  0.00  0.00    +0.000 A 
ATOM     19  C   UNL     1       7.617   4.971  13.554  0.00  0.00    +0.000 A 
BRANCH  17  20
ATOM     20  C   UNL     1       5.179   2.751  11.661  0.00  0.00    +0.000 C 
ATOM     21  O   UNL     1       5.646   1.705  11.238  0.00  0.00    +0.000 OA
BRANCH  20  22
ATOM     22  O   UNL     1       4.051   3.302  11.164  0.00  0.00    +0.000 OA
ATOM     23  H   UNL     1       3.830   4.184  11.508  0.00  0.00    +0.000 HD
ENDBRANCH  20  22
ENDBRANCH  17  20
ENDBRANCH  13  14
ENDBRANCH   1  13
TORSDOF 8
ENDMDL
MODEL 2
REMARK VINA RESULT:      -6.9      1.218      1.918
REMARK  Name = 
REMARK  9 active torsions:
REMARK  status: ('A' for Active; 'I' for Inactive)
REMARK    1  A    between atoms: C_1  and  N_2
REMARK    2  A    between atoms: N_5  and  C_6
REMARK    3  A    between atoms: C_6  and  C_7
REMARK    4  A    between atoms: C_7  and  O_8
REMARK    5  A    between atoms: C_7  and  C_9
REMARK    6  A    between atoms: C_9  and  O_10
REMARK    7  A    between atoms: O_10  and  C_11
REMARK    8  A    between atoms: C_14  and  C_15
REMARK    9  A    between atoms: C_15  and  O_17
REMARK                            x       y       z     vdW  Elec       q    Type
REMARK                         _______ _______ _______ _____ _____    ______ ____
ROOT
ATOM      1  C   UNL     1       7.598   4.765  17.890  0.00  0.00    +0.000 C 
ENDROOT
BRANCH   1   2
ATOM      2  C   UNL     1       6.797   5.512  18.967  0.00  0.00    +0.000 C 
BRANCH   2   3
ATOM      3  O   UNL     1       7.549   5.551  20.187  0.00  0.00    +0.000 OA
ATOM      4  H   UNL     1       7.012   5.150  20.891  0.00  0.00    +0.000 HD
ENDBRANCH   2   3
BRANCH   2   5
ATOM      5  C   UNL     1       5.427   4.819  19.182  0.00  0.00    +0.000 C 
BRANCH   5  10
ATOM      6  C   UNL     1       1.166   2.644  18.657  0.00  0.00    +0.000 C 
ATOM      7  N   UNL     1       1.833   3.939  18.703  0.00  0.00    +0.000 NA
ATOM      8  C   UNL     1       2.799   4.087  17.599  0.00  0.00    +0.000 C 
ATOM      9  C   UNL     1       3.574   5.426  17.670  0.00  0.00    +0.000 C 
ATOM     10  N   UNL     1       4.249   5.680  18.961  0.00  0.00    +0.000 NA
ATOM     11  C   UNL     1       3.245   5.514  20.036  0.00  0.00    +0.000 C 
ATOM     12  C   UNL     1       2.489   4.163  20.002  0.00  0.00    +0.000 C 
ENDBRANCH   5  10
ENDBRANCH   2   5
ENDBRANCH   1   2
BRANCH   1  13
ATOM     13  O   UNL     1       7.515   5.510  16.673  0.00  0.00    +0.000 OA
BRANCH  13  14
ATOM     14  C   UNL     1       6.943   4.872  15.611  0.00  0.00    +0.000 A 
ATOM     15  C   UNL     1       7.476   5.208  14.366  0.00  0.00    +0.000 A 
ATOM     16  C   UNL     1       6.976   4.624  13.200  0.00  0.00    +0.000 A 
ATOM     17  C   UNL     1       5.947   3.677  13.278  0.00  0.00    +0.000 A 
ATOM     18  C   UNL     1       5.450   3.302  14.533  0.00  0.00    +0.000 A 
ATOM     19  C   UNL     1       5.940   3.904  15.694  0.00  0.00    +0.000 A 
BRANCH  17  20
ATOM     20  C   UNL     1       5.459   3.066  12.017  0.00  0.00    +0.000 C 
ATOM     21  O   UNL     1       4.456   3.455  11.440  0.00  0.00    +0.000 OA
BRANCH  20  22
ATOM     22  O   UNL     1       6.190   2.015  11.587  0.00  0.00    +0.000 OA
ATOM     23  H   UNL     1       5.879   1.600  10.764  0.00  0.00    +0.000 HD
ENDBRANCH  20  22
ENDBRANCH  17  20
ENDBRANCH  13  14
ENDBRANCH   1  13
TORSDOF 8
ENDMDL
MODEL 3
REMARK VINA RESULT:      -6.9      0.200      1.071
REMARK  Name = 
REMARK  9 active torsions:
REMARK  status: ('A' for Active; 'I' for Inactive)
REMARK    1  A    between atoms: C_1  and  N_2
REMARK    2  A    between atoms: N_5  and  C_6
REMARK    3  A    between atoms: C_6  and  C_7
REMARK    4  A    between atoms: C_7  and  O_8
REMARK    5  A    between atoms: C_7  and  C_9
REMARK    6  A    between atoms: C_9  and  O_10
REMARK    7  A    between atoms: O_10  and  C_11
REMARK    8  A    between atoms: C_14  and  C_15
REMARK    9  A    between atoms: C_15  and  O_17
REMARK                            x       y       z     vdW  Elec       q    Type
REMARK                         _______ _______ _______ _____ _____    ______ ____
ROOT
ATOM      1  C   UNL     1       6.684   6.286  17.040  0.00  0.00    +0.000 C 
ENDROOT
BRANCH   1   2
ATOM      2  C   UNL     1       7.085   5.527  18.314  0.00  0.00    +0.000 C 
BRANCH   2   3
ATOM      3  O   UNL     1       7.776   4.322  17.959  0.00  0.00    +0.000 OA
ATOM      4  H   UNL     1       7.843   4.280  16.992  0.00  0.00    +0.000 HD
ENDBRANCH   2   3
BRANCH   2   5
ATOM      5  C   UNL     1       5.826   5.215  19.161  0.00  0.00    +0.000 C 
BRANCH   5  10
ATOM      6  C   UNL     1       2.203   3.189  21.598  0.00  0.00    +0.000 C 
ATOM      7  N   UNL     1       2.648   3.608  20.275  0.00  0.00    +0.000 NA
ATOM      8  C   UNL     1       3.843   2.859  19.846  0.00  0.00    +0.000 C 
ATOM      9  C   UNL     1       4.377   3.339  18.473  0.00  0.00    +0.000 C 
ATOM     10  N   UNL     1       4.641   4.792  18.389  0.00  0.00    +0.000 NA
ATOM     11  C   UNL     1       3.420   5.500  18.834  0.00  0.00    +0.000 C 
ATOM     12  C   UNL     1       2.895   5.059  20.222  0.00  0.00    +0.000 C 
ENDBRANCH   5  10
ENDBRANCH   2   5
ENDBRANCH   1   2
BRANCH   1  13
ATOM     13  O   UNL     1       7.485   5.802  15.959  0.00  0.00    +0.000 OA
BRANCH  13  14
ATOM     14  C   UNL     1       6.834   5.085  14.998  0.00  0.00    +0.000 A 
ATOM     15  C   UNL     1       7.548   4.906  13.813  0.00  0.00    +0.000 A 
ATOM     16  C   UNL     1       6.991   4.189  12.750  0.00  0.00    +0.000 A 
ATOM     17  C   UNL     1       5.715   3.627  12.879  0.00  0.00    +0.000 A 
ATOM     18  C   UNL     1       5.021   3.763  14.089  0.00  0.00    +0.000 A 
ATOM     19  C   UNL     1       5.576   4.496  15.141  0.00  0.00    +0.000 A 
BRANCH  17  20
ATOM     20  C   UNL     1       5.169   2.857  11.735  0.00  0.00    +0.000 C 
ATOM     21  O   UNL     1       5.670   1.816  11.341  0.00  0.00    +0.000 OA
BRANCH  20  22
ATOM     22  O   UNL     1       4.100   3.426  11.137  0.00  0.00    +0.000 OA
ATOM     23  H   UNL     1       4.164   3.523  10.172  0.00  0.00    +0.000 HD
ENDBRANCH  20  22
ENDBRANCH  17  20
ENDBRANCH  13  14
ENDBRANCH   1  13
TORSDOF 8
ENDMDL
MODEL 4
REMARK VINA RESULT:      -6.7      2.532      4.175
REMARK  Name = 
REMARK  9 active torsions:
REMARK  status: ('A' for Active; 'I' for Inactive)
REMARK    1  A    between atoms: C_1  and  N_2
REMARK    2  A    between atoms: N_5  and  C_6
REMARK    3  A    between atoms: C_6  and  C_7
REMARK    4  A    between atoms: C_7  and  O_8
REMARK    5  A    between atoms: C_7  and  C_9
REMARK    6  A    between atoms: C_9  and  O_10
REMARK    7  A    between atoms: O_10  and  C_11
REMARK    8  A    between atoms: C_14  and  C_15
REMARK    9  A    between atoms: C_15  and  O_17
REMARK                            x       y       z     vdW  Elec       q    Type
REMARK                         _______ _______ _______ _____ _____    ______ ____
ROOT
ATOM      1  C   UNL     1       2.617   6.794  18.913  0.00  0.00    +0.000 C 
ENDROOT
BRANCH   1   2
ATOM      2  C   UNL     1       1.803   6.485  20.179  0.00  0.00    +0.000 C 
BRANCH   2   3
ATOM      3  O   UNL     1       1.741   7.651  21.009  0.00  0.00    +0.000 OA
ATOM      4  H   UNL     1       1.981   7.396  21.915  0.00  0.00    +0.000 HD
ENDBRANCH   2   3
BRANCH   2   5
ATOM      5  C   UNL     1       2.443   5.296  20.940  0.00  0.00    +0.000 C 
BRANCH   5  10
ATOM      6  C   UNL     1       3.489   1.530  18.131  0.00  0.00    +0.000 C 
ATOM      7  N   UNL     1       2.587   2.015  19.168  0.00  0.00    +0.000 NA
ATOM      8  C   UNL     1       1.800   3.171  18.699  0.00  0.00    +0.000 C 
ATOM      9  C   UNL     1       0.887   3.750  19.808  0.00  0.00    +0.000 C 
ATOM     10  N   UNL     1       1.587   4.099  21.063  0.00  0.00    +0.000 NA
ATOM     11  C   UNL     1       2.367   2.916  21.490  0.00  0.00    +0.000 C 
ATOM     12  C   UNL     1       3.313   2.347  20.405  0.00  0.00    +0.000 C 
ENDBRANCH   5  10
ENDBRANCH   2   5
ENDBRANCH   1   2
BRANCH   1  13
ATOM     13  O   UNL     1       3.962   6.359  19.129  0.00  0.00    +0.000 OA
BRANCH  13  14
ATOM     14  C   UNL     1       4.615   5.852  18.043  0.00  0.00    +0.000 A 
ATOM     15  C   UNL     1       4.642   6.691  16.929  0.00  0.00    +0.000 A 
ATOM     16  C   UNL     1       5.280   6.286  15.753  0.00  0.00    +0.000 A 
ATOM     17  C   UNL     1       5.916   5.039  15.696  0.00  0.00    +0.000 A 
ATOM     18  C   UNL     1       5.933   4.222  16.833  0.00  0.00    +0.000 A 
ATOM     19  C   UNL     1       5.277   4.623  18.000  0.00  0.00    +0.000 A 
BRANCH  17  20
ATOM     20  C   UNL     1       6.598   4.658  14.435  0.00  0.00    +0.000 C 
ATOM     21  O   UNL     1       7.281   5.439  13.792  0.00  0.00    +0.000 OA
BRANCH  20  22
ATOM     22  O   UNL     1       6.364   3.390  14.035  0.00  0.00    +0.000 OA
ATOM     23  H   UNL     1       5.610   2.949  14.463  0.00  0.00    +0.000 HD
ENDBRANCH  20  22
ENDBRANCH  17  20
ENDBRANCH  13  14
ENDBRANCH   1  13
TORSDOF 8
ENDMDL
MODEL 5
REMARK VINA RESULT:      -6.5      1.131      1.819
REMARK  Name = 
REMARK  9 active torsions:
REMARK  status: ('A' for Active; 'I' for Inactive)
REMARK    1  A    between atoms: C_1  and  N_2
REMARK    2  A    between atoms: N_5  and  C_6
REMARK    3  A    between atoms: C_6  and  C_7
REMARK    4  A    between atoms: C_7  and  O_8
REMARK    5  A    between atoms: C_7  and  C_9
REMARK    6  A    between atoms: C_9  and  O_10
REMARK    7  A    between atoms: O_10  and  C_11
REMARK    8  A    between atoms: C_14  and  C_15
REMARK    9  A    between atoms: C_15  and  O_17
REMARK                            x       y       z     vdW  Elec       q    Type
REMARK                         _______ _______ _______ _____ _____    ______ ____
ROOT
ATOM      1  C   UNL     1       6.318   6.441  16.532  0.00  0.00    +0.000 C 
ENDROOT
BRANCH   1   2
ATOM      2  C   UNL     1       6.553   6.072  18.005  0.00  0.00    +0.000 C 
BRANCH   2   3
ATOM      3  O   UNL     1       7.930   6.288  18.342  0.00  0.00    +0.000 OA
ATOM      4  H   UNL     1       7.970   6.688  19.226  0.00  0.00    +0.000 HD
ENDBRANCH   2   3
BRANCH   2   5
ATOM      5  C   UNL     1       6.148   4.596  18.250  0.00  0.00    +0.000 C 
BRANCH   5  10
ATOM      6  C   UNL     1       1.416   4.075  17.543  0.00  0.00    +0.000 C 
ATOM      7  N   UNL     1       2.464   4.089  18.556  0.00  0.00    +0.000 NA
ATOM      8  C   UNL     1       3.124   5.406  18.630  0.00  0.00    +0.000 C 
ATOM      9  C   UNL     1       4.291   5.423  19.649  0.00  0.00    +0.000 C 
ATOM     10  N   UNL     1       5.306   4.368  19.440  0.00  0.00    +0.000 NA
ATOM     11  C   UNL     1       4.599   3.070  19.365  0.00  0.00    +0.000 C 
ATOM     12  C   UNL     1       3.454   3.024  18.324  0.00  0.00    +0.000 C 
ENDBRANCH   5  10
ENDBRANCH   2   5
ENDBRANCH   1   2
BRANCH   1  13
ATOM     13  O   UNL     1       7.347   5.833  15.748  0.00  0.00    +0.000 OA
BRANCH  13  14
ATOM     14  C   UNL     1       6.934   5.074  14.692  0.00  0.00    +0.000 A 
ATOM     15  C   UNL     1       5.704   4.440  14.870  0.00  0.00    +0.000 A 
ATOM     16  C   UNL     1       5.170   3.633  13.862  0.00  0.00    +0.000 A 
ATOM     17  C   UNL     1       5.861   3.474  12.654  0.00  0.00    +0.000 A 
ATOM     18  C   UNL     1       7.070   4.154  12.457  0.00  0.00    +0.000 A 
ATOM     19  C   UNL     1       7.608   4.945  13.476  0.00  0.00    +0.000 A 
BRANCH  17  20
ATOM     20  C   UNL     1       5.249   2.625  11.603  0.00  0.00    +0.000 C 
ATOM     21  O   UNL     1       4.197   2.911  11.053  0.00  0.00    +0.000 OA
BRANCH  20  22
ATOM     22  O   UNL     1       5.927   1.488  11.337  0.00  0.00    +0.000 OA
ATOM     23  H   UNL     1       6.463   1.501  10.526  0.00  0.00    +0.000 HD
ENDBRANCH  20  22
ENDBRANCH  17  20
ENDBRANCH  13  14
ENDBRANCH   1  13
TORSDOF 8
ENDMDL
MODEL 6
REMARK VINA RESULT:      -6.4      4.452      7.617
REMARK  Name = 
REMARK  9 active torsions:
REMARK  status: ('A' for Active; 'I' for Inactive)
REMARK    1  A    between atoms: C_1  and  N_2
REMARK    2  A    between atoms: N_5  and  C_6
REMARK    3  A    between atoms: C_6  and  C_7
REMARK    4  A    between atoms: C_7  and  O_8
REMARK    5  A    between atoms: C_7  and  C_9
REMARK    6  A    between atoms: C_9  and  O_10
REMARK    7  A    between atoms: O_10  and  C_11
REMARK    8  A    between atoms: C_14  and  C_15
REMARK    9  A    between atoms: C_15  and  O_17
REMARK                            x       y       z     vdW  Elec       q    Type
REMARK                         _______ _______ _______ _____ _____    ______ ____
ROOT
ATOM      1  C   UNL     1       2.389   4.858  18.804  0.00  0.00    +0.000 C 
ENDROOT
BRANCH   1   2
ATOM      2  C   UNL     1       2.889   4.379  17.432  0.00  0.00    +0.000 C 
BRANCH   2   3
ATOM      3  O   UNL     1       2.212   3.169  17.069  0.00  0.00    +0.000 OA
ATOM      4  H   UNL     1       2.356   2.514  17.771  0.00  0.00    +0.000 HD
ENDBRANCH   2   3
BRANCH   2   5
ATOM      5  C   UNL     1       4.423   4.164  17.476  0.00  0.00    +0.000 C 
BRANCH   5  10
ATOM      6  C   UNL     1       7.935   7.405  18.054  0.00  0.00    +0.000 C 
ATOM      7  N   UNL     1       7.233   6.586  17.073  0.00  0.00    +0.000 NA
ATOM      8  C   UNL     1       5.809   6.955  16.984  0.00  0.00    +0.000 C 
ATOM      9  C   UNL     1       5.026   6.049  16.001  0.00  0.00    +0.000 C 
ATOM     10  N   UNL     1       5.150   4.599  16.268  0.00  0.00    +0.000 NA
ATOM     11  C   UNL     1       6.592   4.278  16.356  0.00  0.00    +0.000 C 
ATOM     12  C   UNL     1       7.382   5.150  17.363  0.00  0.00    +0.000 C 
ENDBRANCH   5  10
ENDBRANCH   2   5
ENDBRANCH   1   2
BRANCH   1  13
ATOM     13  O   UNL     1       3.119   6.035  19.161  0.00  0.00    +0.000 OA
BRANCH  13  14
ATOM     14  C   UNL     1       2.443   7.217  19.070  0.00  0.00    +0.000 A 
ATOM     15  C   UNL     1       1.852   7.648  20.258  0.00  0.00    +0.000 A 
ATOM     16  C   UNL     1       1.130   8.844  20.297  0.00  0.00    +0.000 A 
ATOM     17  C   UNL     1       1.015   9.629  19.143  0.00  0.00    +0.000 A 
ATOM     18  C   UNL     1       1.654   9.220  17.965  0.00  0.00    +0.000 A 
ATOM     19  C   UNL     1       2.358   8.014  17.927  0.00  0.00    +0.000 A 
BRANCH  17  20
ATOM     20  C   UNL     1       0.258  10.901  19.233  0.00  0.00    +0.000 C 
ATOM     21  O   UNL     1       0.087  11.494  20.286  0.00  0.00    +0.000 OA
BRANCH  20  22
ATOM     22  O   UNL     1      -0.267  11.324  18.063  0.00  0.00    +0.000 OA
ATOM     23  H   UNL     1       0.279  11.156  17.276  0.00  0.00    +0.000 HD
ENDBRANCH  20  22
ENDBRANCH  17  20
ENDBRANCH  13  14
ENDBRANCH   1  13
TORSDOF 8
ENDMDL
MODEL 7
REMARK VINA RESULT:      -6.4      1.118      1.765
REMARK  Name = 
REMARK  9 active torsions:
REMARK  status: ('A' for Active; 'I' for Inactive)
REMARK    1  A    between atoms: C_1  and  N_2
REMARK    2  A    between atoms: N_5  and  C_6
REMARK    3  A    between atoms: C_6  and  C_7
REMARK    4  A    between atoms: C_7  and  O_8
REMARK    5  A    between atoms: C_7  and  C_9
REMARK    6  A    between atoms: C_9  and  O_10
REMARK    7  A    between atoms: O_10  and  C_11
REMARK    8  A    between atoms: C_14  and  C_15
REMARK    9  A    between atoms: C_15  and  O_17
REMARK                            x       y       z     vdW  Elec       q    Type
REMARK                         _______ _______ _______ _____ _____    ______ ____
ROOT
ATOM      1  C   UNL     1       7.321   5.136  17.385  0.00  0.00    +0.000 C 
ENDROOT
BRANCH   1   2
ATOM      2  C   UNL     1       6.365   5.536  18.519  0.00  0.00    +0.000 C 
BRANCH   2   3
ATOM      3  O   UNL     1       7.037   5.422  19.779  0.00  0.00    +0.000 OA
ATOM      4  H   UNL     1       7.657   6.165  19.865  0.00  0.00    +0.000 HD
ENDBRANCH   2   3
BRANCH   2   5
ATOM      5  C   UNL     1       5.100   4.641  18.482  0.00  0.00    +0.000 C 
BRANCH   5  10
ATOM      6  C   UNL     1       0.863   2.359  18.588  0.00  0.00    +0.000 C 
ATOM      7  N   UNL     1       1.956   2.860  19.412  0.00  0.00    +0.000 NA
ATOM      8  C   UNL     1       2.075   4.326  19.317  0.00  0.00    +0.000 C 
ATOM      9  C   UNL     1       3.276   4.873  20.128  0.00  0.00    +0.000 C 
ATOM     10  N   UNL     1       4.575   4.246  19.804  0.00  0.00    +0.000 NA
ATOM     11  C   UNL     1       4.406   2.779  19.905  0.00  0.00    +0.000 C 
ATOM     12  C   UNL     1       3.233   2.211  19.070  0.00  0.00    +0.000 C 
ENDBRANCH   5  10
ENDBRANCH   2   5
ENDBRANCH   1   2
BRANCH   1  13
ATOM     13  O   UNL     1       6.959   5.871  16.213  0.00  0.00    +0.000 OA
BRANCH  13  14
ATOM     14  C   UNL     1       6.677   5.134  15.100  0.00  0.00    +0.000 A 
ATOM     15  C   UNL     1       5.416   4.537  15.094  0.00  0.00    +0.000 A 
ATOM     16  C   UNL     1       5.007   3.755  14.010  0.00  0.00    +0.000 A 
ATOM     17  C   UNL     1       5.859   3.584  12.911  0.00  0.00    +0.000 A 
ATOM     18  C   UNL     1       7.103   4.228  12.896  0.00  0.00    +0.000 A 
ATOM     19  C   UNL     1       7.514   4.993  13.991  0.00  0.00    +0.000 A 
BRANCH  17  20
ATOM     20  C   UNL     1       5.378   2.763  11.773  0.00  0.00    +0.000 C 
ATOM     21  O   UNL     1       4.324   2.985  11.199  0.00  0.00    +0.000 OA
BRANCH  20  22
ATOM     22  O   UNL     1       6.178   1.723  11.456  0.00  0.00    +0.000 OA
ATOM     23  H   UNL     1       6.594   1.769  10.578  0.00  0.00    +0.000 HD
ENDBRANCH  20  22
ENDBRANCH  17  20
ENDBRANCH  13  14
ENDBRANCH   1  13
TORSDOF 8
ENDMDL
MODEL 8
REMARK VINA RESULT:      -6.3      2.126      3.397
REMARK  Name = 
REMARK  9 active torsions:
REMARK  status: ('A' for Active; 'I' for Inactive)
REMARK    1  A    between atoms: C_1  and  N_2
REMARK    2  A    between atoms: N_5  and  C_6
REMARK    3  A    between atoms: C_6  and  C_7
REMARK    4  A    between atoms: C_7  and  O_8
REMARK    5  A    between atoms: C_7  and  C_9
REMARK    6  A    between atoms: C_9  and  O_10
REMARK    7  A    between atoms: O_10  and  C_11
REMARK    8  A    between atoms: C_14  and  C_15
REMARK    9  A    between atoms: C_15  and  O_17
REMARK                            x       y       z     vdW  Elec       q    Type
REMARK                         _______ _______ _______ _____ _____    ______ ____
ROOT
ATOM      1  C   UNL     1       4.919   3.777  18.932  0.00  0.00    +0.000 C 
ENDROOT
BRANCH   1   2
ATOM      2  C   UNL     1       4.298   2.621  19.730  0.00  0.00    +0.000 C 
BRANCH   2   3
ATOM      3  O   UNL     1       5.317   1.673  20.076  0.00  0.00    +0.000 OA
ATOM      4  H   UNL     1       4.887   0.840  20.330  0.00  0.00    +0.000 HD
ENDBRANCH   2   3
BRANCH   2   5
ATOM      5  C   UNL     1       3.176   1.949  18.898  0.00  0.00    +0.000 C 
BRANCH   5  10
ATOM      6  C   UNL     1       1.716   6.188  20.650  0.00  0.00    +0.000 C 
ATOM      7  N   UNL     1       1.326   4.798  20.441  0.00  0.00    +0.000 NA
ATOM      8  C   UNL     1       2.196   3.877  21.195  0.00  0.00    +0.000 C 
ATOM      9  C   UNL     1       1.847   2.391  20.931  0.00  0.00    +0.000 C 
ATOM     10  N   UNL     1       1.831   2.006  19.502  0.00  0.00    +0.000 NA
ATOM     11  C   UNL     1       0.954   2.960  18.788  0.00  0.00    +0.000 C 
ATOM     12  C   UNL     1       1.313   4.450  19.011  0.00  0.00    +0.000 C 
ENDBRANCH   5  10
ENDBRANCH   2   5
ENDBRANCH   1   2
BRANCH   1  13
ATOM     13  O   UNL     1       4.444   3.698  17.585  0.00  0.00    +0.000 OA
BRANCH  13  14
ATOM     14  C   UNL     1       5.321   4.079  16.612  0.00  0.00    +0.000 A 
ATOM     15  C   UNL     1       4.906   3.806  15.308  0.00  0.00    +0.000 A 
ATOM     16  C   UNL     1       5.715   4.147  14.221  0.00  0.00    +0.000 A 
ATOM     17  C   UNL     1       6.942   4.786  14.436  0.00  0.00    +0.000 A 
ATOM     18  C   UNL     1       7.333   5.106  15.742  0.00  0.00    +0.000 A 
ATOM     19  C   UNL     1       6.529   4.746  16.827  0.00  0.00    +0.000 A 
BRANCH  17  20
ATOM     20  C   UNL     1       7.761   5.148  13.253  0.00  0.00    +0.000 C 
ATOM     21  O   UNL     1       8.679   5.951  13.307  0.00  0.00    +0.000 OA
BRANCH  20  22
ATOM     22  O   UNL     1       7.376   4.553  12.104  0.00  0.00    +0.000 OA
ATOM     23  H   UNL     1       7.072   3.634  12.191  0.00  0.00    +0.000 HD
ENDBRANCH  20  22
ENDBRANCH  17  20
ENDBRANCH  13  14
ENDBRANCH   1  13
TORSDOF 8
ENDMDL
MODEL 9
REMARK VINA RESULT:      -6.3      1.048      1.701
REMARK  Name = 
REMARK  9 active torsions:
REMARK  status: ('A' for Active; 'I' for Inactive)
REMARK    1  A    between atoms: C_1  and  N_2
REMARK    2  A    between atoms: N_5  and  C_6
REMARK    3  A    between atoms: C_6  and  C_7
REMARK    4  A    between atoms: C_7  and  O_8
REMARK    5  A    between atoms: C_7  and  C_9
REMARK    6  A    between atoms: C_9  and  O_10
REMARK    7  A    between atoms: O_10  and  C_11
REMARK    8  A    between atoms: C_14  and  C_15
REMARK    9  A    between atoms: C_15  and  O_17
REMARK                            x       y       z     vdW  Elec       q    Type
REMARK                         _______ _______ _______ _____ _____    ______ ____
ROOT
ATOM      1  C   UNL     1       7.157   4.776  17.874  0.00  0.00    +0.000 C 
ENDROOT
BRANCH   1   2
ATOM      2  C   UNL     1       6.618   5.547  19.088  0.00  0.00    +0.000 C 
BRANCH   2   3
ATOM      3  O   UNL     1       7.459   5.308  20.223  0.00  0.00    +0.000 OA
ATOM      4  H   UNL     1       8.172   5.967  20.221  0.00  0.00    +0.000 HD
ENDBRANCH   2   3
BRANCH   2   5
ATOM      5  C   UNL     1       5.158   5.117  19.380  0.00  0.00    +0.000 C 
BRANCH   5  10
ATOM      6  C   UNL     1       1.162   3.006  21.038  0.00  0.00    +0.000 C 
ATOM      7  N   UNL     1       2.227   2.906  20.047  0.00  0.00    +0.000 NA
ATOM      8  C   UNL     1       3.545   2.742  20.687  0.00  0.00    +0.000 C 
ATOM      9  C   UNL     1       4.700   2.707  19.655  0.00  0.00    +0.000 C 
ATOM     10  N   UNL     1       4.734   3.861  18.730  0.00  0.00    +0.000 NA
ATOM     11  C   UNL     1       3.393   3.990  18.119  0.00  0.00    +0.000 C 
ATOM     12  C   UNL     1       2.230   4.065  19.138  0.00  0.00    +0.000 C 
ENDBRANCH   5  10
ENDBRANCH   2   5
ENDBRANCH   1   2
BRANCH   1  13
ATOM     13  O   UNL     1       6.995   5.597  16.714  0.00  0.00    +0.000 OA
BRANCH  13  14
ATOM     14  C   UNL     1       6.517   4.976  15.596  0.00  0.00    +0.000 A 
ATOM     15  C   UNL     1       7.435   4.858  14.552  0.00  0.00    +0.000 A 
ATOM     16  C   UNL     1       7.069   4.242  13.353  0.00  0.00    +0.000 A 
ATOM     17  C   UNL     1       5.778   3.720  13.201  0.00  0.00    +0.000 A 
ATOM     18  C   UNL     1       4.875   3.793  14.270  0.00  0.00    +0.000 A 
ATOM     19  C   UNL     1       5.241   4.427  15.460  0.00  0.00    +0.000 A 
BRANCH  17  20
ATOM     20  C   UNL     1       5.436   3.056  11.919  0.00  0.00    +0.000 C 
ATOM     21  O   UNL     1       4.445   3.347  11.269  0.00  0.00    +0.000 OA
BRANCH  20  22
ATOM     22  O   UNL     1       6.286   2.073  11.555  0.00  0.00    +0.000 OA
ATOM     23  H   UNL     1       7.226   2.322  11.529  0.00  0.00    +0.000 HD
ENDBRANCH  20  22
ENDBRANCH  17  20
ENDBRANCH  13  14
ENDBRANCH   1  13
TORSDOF 8
ENDMDL
