MODEL 1
REMARK VINA RESULT:      -7.6      0.000      0.000
REMARK  Name = 
REMARK  13 active torsions:
REMARK  status: ('A' for Active; 'I' for Inactive)
REMARK    1  A    between atoms: C_1  and  C_2
REMARK    2  A    between atoms: C_2  and  C_3
REMARK    3  A    between atoms: C_3  and  C_4
REMARK    4  A    between atoms: C_4  and  N_5
REMARK    5  A    between atoms: N_5  and  C_6
REMARK    6  A    between atoms: N_5  and  C_14
REMARK    7  A    between atoms: C_6  and  C_7
REMARK    8  A    between atoms: C_12  and  C_13
REMARK    9  A    between atoms: C_14  and  C_15
REMARK   10  A    between atoms: C_15  and  O_16
REMARK   11  A    between atoms: C_15  and  C_17
REMARK   12  A    between atoms: C_15  and  C_23
REMARK   13  A    between atoms: C_17  and  N_18
REMARK                            x       y       z     vdW  Elec       q    Type
REMARK                         _______ _______ _______ _____ _____    ______ ____
ROOT
ATOM      1  C   UNL     1       5.241   5.083  16.644  0.00  0.00    +0.000 C 
ENDROOT
BRANCH   1   2
ATOM      2  C   UNL     1       6.257   6.009  17.326  0.00  0.00    +0.000 A 
ATOM      3  C   UNL     1       6.411   7.363  16.976  0.00  0.00    +0.000 A 
ATOM      4  C   UNL     1       7.377   8.170  17.587  0.00  0.00    +0.000 A 
ATOM      5  C   UNL     1       8.189   7.641  18.577  0.00  0.00    +0.000 A 
ATOM      6  F   UNL     1       9.114   8.416  19.158  0.00  0.00    +0.000 F 
ATOM      7  C   UNL     1       8.051   6.322  18.973  0.00  0.00    +0.000 A 
ATOM      8  C   UNL     1       7.098   5.522  18.346  0.00  0.00    +0.000 A 
ATOM      9  F   UNL     1       6.981   4.255  18.770  0.00  0.00    +0.000 F 
ENDBRANCH   1   2
BRANCH   1  10
ATOM     10  O   UNL     1       4.634   5.856  15.584  0.00  0.00    +0.000 OA
ATOM     11  H   UNL     1       5.190   6.637  15.427  0.00  0.00    +0.000 HD
ENDBRANCH   1  10
BRANCH   1  12
ATOM     12  C   UNL     1       4.094   4.500  17.582  0.00  0.00    +0.000 C 
BRANCH  12  13
ATOM     13  N   UNL     1       2.953   5.344  18.006  0.00  0.00    +0.000 NA
BRANCH  13  14
ATOM     14  C   UNL     1       1.662   4.652  18.026  0.00  0.00    +0.000 C 
BRANCH  14  15
ATOM     15  C   UNL     1       1.791   3.157  18.348  0.00  0.00    +0.000 C 
BRANCH  15  17
ATOM     16  C   UNL     1       1.266   3.471  20.785  0.00  0.00    +0.000 C 
ATOM     17  C   UNL     1       0.865   2.763  19.501  0.00  0.00    +0.000 C 
ENDBRANCH  15  17
ENDBRANCH  14  15
ENDBRANCH  13  14
BRANCH  13  18
ATOM     18  C   UNL     1       3.269   6.120  19.236  0.00  0.00    +0.000 C 
BRANCH  18  19
ATOM     19  C   UNL     1       2.329   7.257  19.612  0.00  0.00    +0.000 A 
ATOM     20  C   UNL     1       1.642   7.173  20.843  0.00  0.00    +0.000 A 
ATOM     21  C   UNL     1       0.815   8.195  21.296  0.00  0.00    +0.000 A 
ATOM     22  C   UNL     1       0.629   9.324  20.515  0.00  0.00    +0.000 A 
ATOM     23  C   UNL     1       1.244   9.405  19.268  0.00  0.00    +0.000 A 
ATOM     24  C   UNL     1       2.084   8.380  18.794  0.00  0.00    +0.000 A 
ATOM     25  C   UNL     1       2.615   8.509  17.393  0.00  0.00    +0.000 C 
ENDBRANCH  18  19
ENDBRANCH  13  18
ENDBRANCH  12  13
ENDBRANCH   1  12
BRANCH   1  26
ATOM     26  C   UNL     1       5.944   3.889  15.925  0.00  0.00    +0.000 C 
BRANCH  26  27
ATOM     27  N   UNL     1       6.509   4.212  14.638  0.00  0.00    +0.000 N 
ATOM     28  C   UNL     1       6.221   3.662  13.430  0.00  0.00    +0.000 A 
ATOM     29  N   UNL     1       6.862   4.322  12.490  0.00  0.00    +0.000 NA
ATOM     30  C   UNL     1       7.569   5.252  13.192  0.00  0.00    +0.000 A 
ATOM     31  N   UNL     1       7.425   5.189  14.520  0.00  0.00    +0.000 NA
ENDBRANCH  26  27
ENDBRANCH   1  26
TORSDOF 11
ENDMDL
MODEL 2
REMARK VINA RESULT:      -7.4      0.673      1.547
REMARK  Name = 
REMARK  13 active torsions:
REMARK  status: ('A' for Active; 'I' for Inactive)
REMARK    1  A    between atoms: C_1  and  C_2
REMARK    2  A    between atoms: C_2  and  C_3
REMARK    3  A    between atoms: C_3  and  C_4
REMARK    4  A    between atoms: C_4  and  N_5
REMARK    5  A    between atoms: N_5  and  C_6
REMARK    6  A    between atoms: N_5  and  C_14
REMARK    7  A    between atoms: C_6  and  C_7
REMARK    8  A    between atoms: C_12  and  C_13
REMARK    9  A    between atoms: C_14  and  C_15
REMARK   10  A    between atoms: C_15  and  O_16
REMARK   11  A    between atoms: C_15  and  C_17
REMARK   12  A    between atoms: C_15  and  C_23
REMARK   13  A    between atoms: C_17  and  N_18
REMARK                            x       y       z     vdW  Elec       q    Type
REMARK                         _______ _______ _______ _____ _____    ______ ____
ROOT
ATOM      1  C   UNL     1       5.240   5.150  16.936  0.00  0.00    +0.000 C 
ENDROOT
BRANCH   1   2
ATOM      2  C   UNL     1       6.282   6.128  17.494  0.00  0.00    +0.000 A 
ATOM      3  C   UNL     1       6.439   7.439  17.005  0.00  0.00    +0.000 A 
ATOM      4  C   UNL     1       7.427   8.292  17.507  0.00  0.00    +0.000 A 
ATOM      5  C   UNL     1       8.260   7.856  18.526  0.00  0.00    +0.000 A 
ATOM      6  F   UNL     1       9.207   8.675  19.002  0.00  0.00    +0.000 F 
ATOM      7  C   UNL     1       8.120   6.586  19.056  0.00  0.00    +0.000 A 
ATOM      8  C   UNL     1       7.144   5.738  18.537  0.00  0.00    +0.000 A 
ATOM      9  F   UNL     1       7.026   4.522  19.090  0.00  0.00    +0.000 F 
ENDBRANCH   1   2
BRANCH   1  10
ATOM     10  O   UNL     1       4.553   5.851  15.874  0.00  0.00    +0.000 OA
ATOM     11  H   UNL     1       4.043   5.198  15.365  0.00  0.00    +0.000 HD
ENDBRANCH   1  10
BRANCH   1  12
ATOM     12  C   UNL     1       4.165   4.610  17.978  0.00  0.00    +0.000 C 
BRANCH  12  13
ATOM     13  N   UNL     1       2.850   5.274  18.133  0.00  0.00    +0.000 NA
BRANCH  13  14
ATOM     14  C   UNL     1       1.699   4.376  18.010  0.00  0.00    +0.000 C 
BRANCH  14  15
ATOM     15  C   UNL     1       1.778   3.172  18.959  0.00  0.00    +0.000 C 
BRANCH  15  17
ATOM     16  C   UNL     1       1.539   2.908  21.446  0.00  0.00    +0.000 C 
ATOM     17  C   UNL     1       0.859   3.365  20.166  0.00  0.00    +0.000 C 
ENDBRANCH  15  17
ENDBRANCH  14  15
ENDBRANCH  13  14
BRANCH  13  18
ATOM     18  C   UNL     1       2.824   6.171  19.320  0.00  0.00    +0.000 C 
BRANCH  18  19
ATOM     19  C   UNL     1       2.281   7.581  19.126  0.00  0.00    +0.000 A 
ATOM     20  C   UNL     1       2.626   8.270  17.943  0.00  0.00    +0.000 A 
ATOM     21  C   UNL     1       2.122   9.533  17.653  0.00  0.00    +0.000 A 
ATOM     22  C   UNL     1       1.277  10.158  18.555  0.00  0.00    +0.000 A 
ATOM     23  C   UNL     1       0.970   9.528  19.759  0.00  0.00    +0.000 A 
ATOM     24  C   UNL     1       1.471   8.250  20.068  0.00  0.00    +0.000 A 
ATOM     25  C   UNL     1       1.173   7.698  21.435  0.00  0.00    +0.000 C 
ENDBRANCH  18  19
ENDBRANCH  13  18
ENDBRANCH  12  13
ENDBRANCH   1  12
BRANCH   1  26
ATOM     26  C   UNL     1       5.915   3.925  16.243  0.00  0.00    +0.000 C 
BRANCH  26  27
ATOM     27  N   UNL     1       6.288   4.143  14.868  0.00  0.00    +0.000 N 
ATOM     28  C   UNL     1       7.326   4.872  14.382  0.00  0.00    +0.000 A 
ATOM     29  N   UNL     1       7.393   4.716  13.078  0.00  0.00    +0.000 NA
ATOM     30  C   UNL     1       6.333   3.903  12.809  0.00  0.00    +0.000 A 
ATOM     31  N   UNL     1       5.593   3.567  13.871  0.00  0.00    +0.000 NA
ENDBRANCH  26  27
ENDBRANCH   1  26
TORSDOF 11
ENDMDL
MODEL 3
REMARK VINA RESULT:      -7.4      1.169      3.371
REMARK  Name = 
REMARK  13 active torsions:
REMARK  status: ('A' for Active; 'I' for Inactive)
REMARK    1  A    between atoms: C_1  and  C_2
REMARK    2  A    between atoms: C_2  and  C_3
REMARK    3  A    between atoms: C_3  and  C_4
REMARK    4  A    between atoms: C_4  and  N_5
REMARK    5  A    between atoms: N_5  and  C_6
REMARK    6  A    between atoms: N_5  and  C_14
REMARK    7  A    between atoms: C_6  and  C_7
REMARK    8  A    between atoms: C_12  and  C_13
REMARK    9  A    between atoms: C_14  and  C_15
REMARK   10  A    between atoms: C_15  and  O_16
REMARK   11  A    between atoms: C_15  and  C_17
REMARK   12  A    between atoms: C_15  and  C_23
REMARK   13  A    between atoms: C_17  and  N_18
REMARK                            x       y       z     vdW  Elec       q    Type
REMARK                         _______ _______ _______ _____ _____    ______ ____
ROOT
ATOM      1  C   UNL     1       5.650   5.845  16.406  0.00  0.00    +0.000 C 
ENDROOT
BRANCH   1   2
ATOM      2  C   UNL     1       6.630   6.725  17.193  0.00  0.00    +0.000 A 
ATOM      3  C   UNL     1       6.812   8.094  16.925  0.00  0.00    +0.000 A 
ATOM      4  C   UNL     1       7.745   8.860  17.633  0.00  0.00    +0.000 A 
ATOM      5  C   UNL     1       8.494   8.272  18.640  0.00  0.00    +0.000 A 
ATOM      6  F   UNL     1       9.388   9.008  19.314  0.00  0.00    +0.000 F 
ATOM      7  C   UNL     1       8.326   6.937  18.957  0.00  0.00    +0.000 A 
ATOM      8  C   UNL     1       7.406   6.179  18.234  0.00  0.00    +0.000 A 
ATOM      9  F   UNL     1       7.257   4.893  18.583  0.00  0.00    +0.000 F 
ENDBRANCH   1   2
BRANCH   1  10
ATOM     10  O   UNL     1       5.345   6.564  15.190  0.00  0.00    +0.000 OA
ATOM     11  H   UNL     1       4.428   6.356  14.941  0.00  0.00    +0.000 HD
ENDBRANCH   1  10
BRANCH   1  12
ATOM     12  C   UNL     1       4.290   5.483  17.149  0.00  0.00    +0.000 C 
BRANCH  12  13
ATOM     13  N   UNL     1       3.736   6.368  18.200  0.00  0.00    +0.000 NA
BRANCH  13  14
ATOM     14  C   UNL     1       2.426   6.941  17.882  0.00  0.00    +0.000 C 
BRANCH  14  15
ATOM     15  C   UNL     1       2.429   8.476  17.888  0.00  0.00    +0.000 C 
BRANCH  15  17
ATOM     16  C   UNL     1       0.888  10.336  18.580  0.00  0.00    +0.000 C 
ATOM     17  C   UNL     1       1.527   9.021  18.996  0.00  0.00    +0.000 C 
ENDBRANCH  15  17
ENDBRANCH  14  15
ENDBRANCH  13  14
BRANCH  13  18
ATOM     18  C   UNL     1       3.840   5.749  19.550  0.00  0.00    +0.000 C 
BRANCH  18  19
ATOM     19  C   UNL     1       2.918   4.578  19.861  0.00  0.00    +0.000 A 
ATOM     20  C   UNL     1       1.601   4.861  20.286  0.00  0.00    +0.000 A 
ATOM     21  C   UNL     1       0.673   3.855  20.528  0.00  0.00    +0.000 A 
ATOM     22  C   UNL     1       1.045   2.529  20.378  0.00  0.00    +0.000 A 
ATOM     23  C   UNL     1       2.354   2.218  20.021  0.00  0.00    +0.000 A 
ATOM     24  C   UNL     1       3.307   3.224  19.773  0.00  0.00    +0.000 A 
ATOM     25  C   UNL     1       4.721   2.790  19.500  0.00  0.00    +0.000 C 
ENDBRANCH  18  19
ENDBRANCH  13  18
ENDBRANCH  12  13
ENDBRANCH   1  12
BRANCH   1  26
ATOM     26  C   UNL     1       6.323   4.517  15.934  0.00  0.00    +0.000 C 
BRANCH  26  27
ATOM     27  N   UNL     1       6.767   4.523  14.563  0.00  0.00    +0.000 N 
ATOM     28  C   UNL     1       6.295   3.791  13.521  0.00  0.00    +0.000 A 
ATOM     29  N   UNL     1       6.886   4.184  12.413  0.00  0.00    +0.000 NA
ATOM     30  C   UNL     1       7.751   5.142  12.847  0.00  0.00    +0.000 A 
ATOM     31  N   UNL     1       7.752   5.349  14.167  0.00  0.00    +0.000 NA
ENDBRANCH  26  27
ENDBRANCH   1  26
TORSDOF 11
ENDMDL
MODEL 4
REMARK VINA RESULT:      -7.3      0.895      1.623
REMARK  Name = 
REMARK  13 active torsions:
REMARK  status: ('A' for Active; 'I' for Inactive)
REMARK    1  A    between atoms: C_1  and  C_2
REMARK    2  A    between atoms: C_2  and  C_3
REMARK    3  A    between atoms: C_3  and  C_4
REMARK    4  A    between atoms: C_4  and  N_5
REMARK    5  A    between atoms: N_5  and  C_6
REMARK    6  A    between atoms: N_5  and  C_14
REMARK    7  A    between atoms: C_6  and  C_7
REMARK    8  A    between atoms: C_12  and  C_13
REMARK    9  A    between atoms: C_14  and  C_15
REMARK   10  A    between atoms: C_15  and  O_16
REMARK   11  A    between atoms: C_15  and  C_17
REMARK   12  A    between atoms: C_15  and  C_23
REMARK   13  A    between atoms: C_17  and  N_18
REMARK                            x       y       z     vdW  Elec       q    Type
REMARK                         _______ _______ _______ _____ _____    ______ ____
ROOT
ATOM      1  C   UNL     1       5.835   5.598  17.104  0.00  0.00    +0.000 C 
ENDROOT
BRANCH   1   2
ATOM      2  C   UNL     1       6.781   6.681  17.637  0.00  0.00    +0.000 A 
ATOM      3  C   UNL     1       6.801   7.994  17.131  0.00  0.00    +0.000 A 
ATOM      4  C   UNL     1       7.706   8.948  17.610  0.00  0.00    +0.000 A 
ATOM      5  C   UNL     1       8.591   8.609  18.621  0.00  0.00    +0.000 A 
ATOM      6  F   UNL     1       9.458   9.524  19.075  0.00  0.00    +0.000 F 
ATOM      7  C   UNL     1       8.586   7.338  19.167  0.00  0.00    +0.000 A 
ATOM      8  C   UNL     1       7.692   6.391  18.672  0.00  0.00    +0.000 A 
ATOM      9  F   UNL     1       7.703   5.176  19.239  0.00  0.00    +0.000 F 
ENDBRANCH   1   2
BRANCH   1  10
ATOM     10  O   UNL     1       5.134   6.185  15.984  0.00  0.00    +0.000 OA
ATOM     11  H   UNL     1       4.229   5.830  15.977  0.00  0.00    +0.000 HD
ENDBRANCH   1  10
BRANCH   1  12
ATOM     12  C   UNL     1       4.768   5.035  18.143  0.00  0.00    +0.000 C 
BRANCH  12  13
ATOM     13  N   UNL     1       3.324   5.321  17.985  0.00  0.00    +0.000 NA
BRANCH  13  14
ATOM     14  C   UNL     1       2.532   4.192  17.489  0.00  0.00    +0.000 C 
BRANCH  14  15
ATOM     15  C   UNL     1       3.120   2.831  17.888  0.00  0.00    +0.000 C 
BRANCH  15  17
ATOM     16  C   UNL     1       0.814   2.479  18.822  0.00  0.00    +0.000 C 
ATOM     17  C   UNL     1       2.295   2.183  19.001  0.00  0.00    +0.000 C 
ENDBRANCH  15  17
ENDBRANCH  14  15
ENDBRANCH  13  14
BRANCH  13  18
ATOM     18  C   UNL     1       2.764   6.003  19.183  0.00  0.00    +0.000 C 
BRANCH  18  19
ATOM     19  C   UNL     1       2.275   7.435  19.014  0.00  0.00    +0.000 A 
ATOM     20  C   UNL     1       2.619   8.121  17.829  0.00  0.00    +0.000 A 
ATOM     21  C   UNL     1       2.161   9.406  17.563  0.00  0.00    +0.000 A 
ATOM     22  C   UNL     1       1.365  10.057  18.491  0.00  0.00    +0.000 A 
ATOM     23  C   UNL     1       1.062   9.429  19.696  0.00  0.00    +0.000 A 
ATOM     24  C   UNL     1       1.517   8.128  19.983  0.00  0.00    +0.000 A 
ATOM     25  C   UNL     1       1.230   7.577  21.352  0.00  0.00    +0.000 C 
ENDBRANCH  18  19
ENDBRANCH  13  18
ENDBRANCH  12  13
ENDBRANCH   1  12
BRANCH   1  26
ATOM     26  C   UNL     1       6.623   4.391  16.503  0.00  0.00    +0.000 C 
BRANCH  26  27
ATOM     27  N   UNL     1       6.800   4.443  15.073  0.00  0.00    +0.000 N 
ATOM     28  C   UNL     1       6.190   3.690  14.121  0.00  0.00    +0.000 A 
ATOM     29  N   UNL     1       6.535   4.134  12.931  0.00  0.00    +0.000 NA
ATOM     30  C   UNL     1       7.400   5.146  13.218  0.00  0.00    +0.000 A 
ATOM     31  N   UNL     1       7.636   5.339  14.520  0.00  0.00    +0.000 NA
ENDBRANCH  26  27
ENDBRANCH   1  26
TORSDOF 11
ENDMDL
MODEL 5
REMARK VINA RESULT:      -7.1      0.950      1.299
REMARK  Name = 
REMARK  13 active torsions:
REMARK  status: ('A' for Active; 'I' for Inactive)
REMARK    1  A    between atoms: C_1  and  C_2
REMARK    2  A    between atoms: C_2  and  C_3
REMARK    3  A    between atoms: C_3  and  C_4
REMARK    4  A    between atoms: C_4  and  N_5
REMARK    5  A    between atoms: N_5  and  C_6
REMARK    6  A    between atoms: N_5  and  C_14
REMARK    7  A    between atoms: C_6  and  C_7
REMARK    8  A    between atoms: C_12  and  C_13
REMARK    9  A    between atoms: C_14  and  C_15
REMARK   10  A    between atoms: C_15  and  O_16
REMARK   11  A    between atoms: C_15  and  C_17
REMARK   12  A    between atoms: C_15  and  C_23
REMARK   13  A    between atoms: C_17  and  N_18
REMARK                            x       y       z     vdW  Elec       q    Type
REMARK                         _______ _______ _______ _____ _____    ______ ____
ROOT
ATOM      1  C   UNL     1       5.336   4.739  16.515  0.00  0.00    +0.000 C 
ENDROOT
BRANCH   1   2
ATOM      2  C   UNL     1       6.327   5.654  17.247  0.00  0.00    +0.000 A 
ATOM      3  C   UNL     1       7.229   5.181  18.218  0.00  0.00    +0.000 A 
ATOM      4  C   UNL     1       8.091   6.048  18.898  0.00  0.00    +0.000 A 
ATOM      5  C   UNL     1       8.082   7.401  18.598  0.00  0.00    +0.000 A 
ATOM      6  F   UNL     1       8.907   8.229  19.253  0.00  0.00    +0.000 F 
ATOM      7  C   UNL     1       7.233   7.904  17.629  0.00  0.00    +0.000 A 
ATOM      8  C   UNL     1       6.366   7.034  16.969  0.00  0.00    +0.000 A 
ATOM      9  F   UNL     1       5.572   7.555  16.023  0.00  0.00    +0.000 F 
ENDBRANCH   1   2
BRANCH   1  10
ATOM     10  O   UNL     1       4.708   5.552  15.497  0.00  0.00    +0.000 OA
ATOM     11  H   UNL     1       3.751   5.561  15.668  0.00  0.00    +0.000 HD
ENDBRANCH   1  10
BRANCH   1  12
ATOM     12  C   UNL     1       4.205   4.077  17.418  0.00  0.00    +0.000 C 
BRANCH  12  13
ATOM     13  N   UNL     1       3.075   4.881  17.939  0.00  0.00    +0.000 NA
BRANCH  13  14
ATOM     14  C   UNL     1       1.834   4.128  18.135  0.00  0.00    +0.000 C 
BRANCH  14  15
ATOM     15  C   UNL     1       1.976   3.003  19.169  0.00  0.00    +0.000 C 
BRANCH  15  17
ATOM     16  C   UNL     1       1.583   2.647  21.625  0.00  0.00    +0.000 C 
ATOM     17  C   UNL     1       1.005   3.203  20.334  0.00  0.00    +0.000 C 
ENDBRANCH  15  17
ENDBRANCH  14  15
ENDBRANCH  13  14
BRANCH  13  18
ATOM     18  C   UNL     1       3.488   5.725  19.094  0.00  0.00    +0.000 C 
BRANCH  18  19
ATOM     19  C   UNL     1       2.538   6.832  19.531  0.00  0.00    +0.000 A 
ATOM     20  C   UNL     1       1.889   6.698  20.778  0.00  0.00    +0.000 A 
ATOM     21  C   UNL     1       1.057   7.690  21.285  0.00  0.00    +0.000 A 
ATOM     22  C   UNL     1       0.828   8.838  20.544  0.00  0.00    +0.000 A 
ATOM     23  C   UNL     1       1.405   8.969  19.283  0.00  0.00    +0.000 A 
ATOM     24  C   UNL     1       2.249   7.974  18.755  0.00  0.00    +0.000 A 
ATOM     25  C   UNL     1       2.737   8.155  17.343  0.00  0.00    +0.000 C 
ENDBRANCH  18  19
ENDBRANCH  13  18
ENDBRANCH  12  13
ENDBRANCH   1  12
BRANCH   1  26
ATOM     26  C   UNL     1       6.070   3.605  15.733  0.00  0.00    +0.000 C 
BRANCH  26  27
ATOM     27  N   UNL     1       6.574   3.997  14.440  0.00  0.00    +0.000 N 
ATOM     28  C   UNL     1       6.210   3.530  13.218  0.00  0.00    +0.000 A 
ATOM     29  N   UNL     1       6.816   4.234  12.286  0.00  0.00    +0.000 NA
ATOM     30  C   UNL     1       7.581   5.104  13.005  0.00  0.00    +0.000 A 
ATOM     31  N   UNL     1       7.506   4.961  14.332  0.00  0.00    +0.000 NA
ENDBRANCH  26  27
ENDBRANCH   1  26
TORSDOF 11
ENDMDL
MODEL 6
REMARK VINA RESULT:      -7.0      1.100      3.360
REMARK  Name = 
REMARK  13 active torsions:
REMARK  status: ('A' for Active; 'I' for Inactive)
REMARK    1  A    between atoms: C_1  and  C_2
REMARK    2  A    between atoms: C_2  and  C_3
REMARK    3  A    between atoms: C_3  and  C_4
REMARK    4  A    between atoms: C_4  and  N_5
REMARK    5  A    between atoms: N_5  and  C_6
REMARK    6  A    between atoms: N_5  and  C_14
REMARK    7  A    between atoms: C_6  and  C_7
REMARK    8  A    between atoms: C_12  and  C_13
REMARK    9  A    between atoms: C_14  and  C_15
REMARK   10  A    between atoms: C_15  and  O_16
REMARK   11  A    between atoms: C_15  and  C_17
REMARK   12  A    between atoms: C_15  and  C_23
REMARK   13  A    between atoms: C_17  and  N_18
REMARK                            x       y       z     vdW  Elec       q    Type
REMARK                         _______ _______ _______ _____ _____    ______ ____
ROOT
ATOM      1  C   UNL     1       5.832   5.871  16.276  0.00  0.00    +0.000 C 
ENDROOT
BRANCH   1   2
ATOM      2  C   UNL     1       6.739   6.780  17.116  0.00  0.00    +0.000 A 
ATOM      3  C   UNL     1       6.834   8.168  16.907  0.00  0.00    +0.000 A 
ATOM      4  C   UNL     1       7.703   8.963  17.662  0.00  0.00    +0.000 A 
ATOM      5  C   UNL     1       8.473   8.384  18.659  0.00  0.00    +0.000 A 
ATOM      6  F   UNL     1       9.305   9.148  19.379  0.00  0.00    +0.000 F 
ATOM      7  C   UNL     1       8.388   7.029  18.919  0.00  0.00    +0.000 A 
ATOM      8  C   UNL     1       7.532   6.243  18.149  0.00  0.00    +0.000 A 
ATOM      9  F   UNL     1       7.462   4.937  18.444  0.00  0.00    +0.000 F 
ENDBRANCH   1   2
BRANCH   1  10
ATOM     10  O   UNL     1       5.529   6.605  15.068  0.00  0.00    +0.000 OA
ATOM     11  H   UNL     1       6.331   7.083  14.798  0.00  0.00    +0.000 HD
ENDBRANCH   1  10
BRANCH   1  12
ATOM     12  C   UNL     1       4.469   5.421  16.965  0.00  0.00    +0.000 C 
BRANCH  12  13
ATOM     13  N   UNL     1       4.061   5.967  18.279  0.00  0.00    +0.000 NA
BRANCH  13  14
ATOM     14  C   UNL     1       2.743   6.607  18.287  0.00  0.00    +0.000 C 
BRANCH  14  15
ATOM     15  C   UNL     1       2.782   8.058  17.789  0.00  0.00    +0.000 C 
BRANCH  15  17
ATOM     16  C   UNL     1       1.578   8.395  19.969  0.00  0.00    +0.000 C 
ATOM     17  C   UNL     1       1.789   8.929  18.561  0.00  0.00    +0.000 C 
ENDBRANCH  15  17
ENDBRANCH  14  15
ENDBRANCH  13  14
BRANCH  13  18
ATOM     18  C   UNL     1       4.292   4.988  19.377  0.00  0.00    +0.000 C 
BRANCH  18  19
ATOM     19  C   UNL     1       3.157   4.031  19.716  0.00  0.00    +0.000 A 
ATOM     20  C   UNL     1       2.350   4.324  20.837  0.00  0.00    +0.000 A 
ATOM     21  C   UNL     1       1.254   3.541  21.180  0.00  0.00    +0.000 A 
ATOM     22  C   UNL     1       0.948   2.421  20.425  0.00  0.00    +0.000 A 
ATOM     23  C   UNL     1       1.764   2.071  19.352  0.00  0.00    +0.000 A 
ATOM     24  C   UNL     1       2.878   2.852  18.991  0.00  0.00    +0.000 A 
ATOM     25  C   UNL     1       3.760   2.336  17.887  0.00  0.00    +0.000 C 
ENDBRANCH  18  19
ENDBRANCH  13  18
ENDBRANCH  12  13
ENDBRANCH   1  12
BRANCH   1  26
ATOM     26  C   UNL     1       6.588   4.592  15.795  0.00  0.00    +0.000 C 
BRANCH  26  27
ATOM     27  N   UNL     1       6.679   4.451  14.364  0.00  0.00    +0.000 N 
ATOM     28  C   UNL     1       7.581   5.013  13.518  0.00  0.00    +0.000 A 
ATOM     29  N   UNL     1       7.397   4.534  12.306  0.00  0.00    +0.000 NA
ATOM     30  C   UNL     1       6.328   3.703  12.462  0.00  0.00    +0.000 A 
ATOM     31  N   UNL     1       5.819   3.660  13.698  0.00  0.00    +0.000 NA
ENDBRANCH  26  27
ENDBRANCH   1  26
TORSDOF 11
ENDMDL
MODEL 7
REMARK VINA RESULT:      -7.0      2.692      6.635
REMARK  Name = 
REMARK  13 active torsions:
REMARK  status: ('A' for Active; 'I' for Inactive)
REMARK    1  A    between atoms: C_1  and  C_2
REMARK    2  A    between atoms: C_2  and  C_3
REMARK    3  A    between atoms: C_3  and  C_4
REMARK    4  A    between atoms: C_4  and  N_5
REMARK    5  A    between atoms: N_5  and  C_6
REMARK    6  A    between atoms: N_5  and  C_14
REMARK    7  A    between atoms: C_6  and  C_7
REMARK    8  A    between atoms: C_12  and  C_13
REMARK    9  A    between atoms: C_14  and  C_15
REMARK   10  A    between atoms: C_15  and  O_16
REMARK   11  A    between atoms: C_15  and  C_17
REMARK   12  A    between atoms: C_15  and  C_23
REMARK   13  A    between atoms: C_17  and  N_18
REMARK                            x       y       z     vdW  Elec       q    Type
REMARK                         _______ _______ _______ _____ _____    ______ ____
ROOT
ATOM      1  C   UNL     1       3.127   6.027  18.882  0.00  0.00    +0.000 C 
ENDROOT
BRANCH   1   2
ATOM      2  C   UNL     1       2.435   7.396  18.874  0.00  0.00    +0.000 A 
ATOM      3  C   UNL     1       2.503   8.281  17.781  0.00  0.00    +0.000 A 
ATOM      4  C   UNL     1       1.897   9.541  17.823  0.00  0.00    +0.000 A 
ATOM      5  C   UNL     1       1.190   9.927  18.950  0.00  0.00    +0.000 A 
ATOM      6  F   UNL     1       0.613  11.136  18.987  0.00  0.00    +0.000 F 
ATOM      7  C   UNL     1       1.073   9.077  20.035  0.00  0.00    +0.000 A 
ATOM      8  C   UNL     1       1.695   7.831  19.991  0.00  0.00    +0.000 A 
ATOM      9  F   UNL     1       1.543   7.027  21.053  0.00  0.00    +0.000 F 
ENDBRANCH   1   2
BRANCH   1  10
ATOM     10  O   UNL     1       3.653   5.845  20.216  0.00  0.00    +0.000 OA
ATOM     11  H   UNL     1       4.375   5.195  20.167  0.00  0.00    +0.000 HD
ENDBRANCH   1  10
BRANCH   1  12
ATOM     12  C   UNL     1       4.306   5.838  17.830  0.00  0.00    +0.000 C 
BRANCH  12  13
ATOM     13  N   UNL     1       4.924   4.511  17.606  0.00  0.00    +0.000 NA
BRANCH  13  14
ATOM     14  C   UNL     1       4.599   3.900  16.314  0.00  0.00    +0.000 C 
BRANCH  14  15
ATOM     15  C   UNL     1       5.842   3.599  15.467  0.00  0.00    +0.000 C 
BRANCH  15  17
ATOM     16  C   UNL     1       6.164   3.592  12.975  0.00  0.00    +0.000 C 
ATOM     17  C   UNL     1       5.855   4.447  14.193  0.00  0.00    +0.000 C 
ENDBRANCH  15  17
ENDBRANCH  14  15
ENDBRANCH  13  14
BRANCH  13  18
ATOM     18  C   UNL     1       6.371   4.513  17.953  0.00  0.00    +0.000 C 
BRANCH  18  19
ATOM     19  C   UNL     1       7.076   5.861  18.028  0.00  0.00    +0.000 A 
ATOM     20  C   UNL     1       6.885   6.772  16.965  0.00  0.00    +0.000 A 
ATOM     21  C   UNL     1       7.437   8.048  16.982  0.00  0.00    +0.000 A 
ATOM     22  C   UNL     1       8.221   8.442  18.054  0.00  0.00    +0.000 A 
ATOM     23  C   UNL     1       8.477   7.543  19.085  0.00  0.00    +0.000 A 
ATOM     24  C   UNL     1       7.928   6.247  19.084  0.00  0.00    +0.000 A 
ATOM     25  C   UNL     1       8.349   5.313  20.185  0.00  0.00    +0.000 C 
ENDBRANCH  18  19
ENDBRANCH  13  18
ENDBRANCH  12  13
ENDBRANCH   1  12
BRANCH   1  26
ATOM     26  C   UNL     1       2.102   4.865  18.688  0.00  0.00    +0.000 C 
BRANCH  26  27
ATOM     27  N   UNL     1       2.092   3.890  19.750  0.00  0.00    +0.000 N 
ATOM     28  C   UNL     1       2.936   2.844  19.942  0.00  0.00    +0.000 A 
ATOM     29  N   UNL     1       2.664   2.272  21.095  0.00  0.00    +0.000 NA
ATOM     30  C   UNL     1       1.604   2.994  21.555  0.00  0.00    +0.000 A 
ATOM     31  N   UNL     1       1.182   3.965  20.739  0.00  0.00    +0.000 NA
ENDBRANCH  26  27
ENDBRANCH   1  26
TORSDOF 11
ENDMDL
MODEL 8
REMARK VINA RESULT:      -6.9      3.276      5.372
REMARK  Name = 
REMARK  13 active torsions:
REMARK  status: ('A' for Active; 'I' for Inactive)
REMARK    1  A    between atoms: C_1  and  C_2
REMARK    2  A    between atoms: C_2  and  C_3
REMARK    3  A    between atoms: C_3  and  C_4
REMARK    4  A    between atoms: C_4  and  N_5
REMARK    5  A    between atoms: N_5  and  C_6
REMARK    6  A    between atoms: N_5  and  C_14
REMARK    7  A    between atoms: C_6  and  C_7
REMARK    8  A    between atoms: C_12  and  C_13
REMARK    9  A    between atoms: C_14  and  C_15
REMARK   10  A    between atoms: C_15  and  O_16
REMARK   11  A    between atoms: C_15  and  C_17
REMARK   12  A    between atoms: C_15  and  C_23
REMARK   13  A    between atoms: C_17  and  N_18
REMARK                            x       y       z     vdW  Elec       q    Type
REMARK                         _______ _______ _______ _____ _____    ______ ____
ROOT
ATOM      1  C   UNL     1       3.089   6.281  18.397  0.00  0.00    +0.000 C 
ENDROOT
BRANCH   1   2
ATOM      2  C   UNL     1       4.237   5.777  17.513  0.00  0.00    +0.000 A 
ATOM      3  C   UNL     1       5.413   6.518  17.290  0.00  0.00    +0.000 A 
ATOM      4  C   UNL     1       6.423   6.049  16.443  0.00  0.00    +0.000 A 
ATOM      5  C   UNL     1       6.284   4.817  15.824  0.00  0.00    +0.000 A 
ATOM      6  F   UNL     1       7.252   4.372  15.012  0.00  0.00    +0.000 F 
ATOM      7  C   UNL     1       5.158   4.042  16.039  0.00  0.00    +0.000 A 
ATOM      8  C   UNL     1       4.150   4.527  16.870  0.00  0.00    +0.000 A 
ATOM      9  F   UNL     1       3.084   3.739  17.069  0.00  0.00    +0.000 F 
ENDBRANCH   1   2
BRANCH   1  10
ATOM     10  O   UNL     1       1.888   5.646  17.904  0.00  0.00    +0.000 OA
ATOM     11  H   UNL     1       1.336   6.330  17.488  0.00  0.00    +0.000 HD
ENDBRANCH   1  10
BRANCH   1  12
ATOM     12  C   UNL     1       2.869   7.858  18.419  0.00  0.00    +0.000 C 
BRANCH  12  13
ATOM     13  N   UNL     1       1.644   8.450  19.003  0.00  0.00    +0.000 NA
BRANCH  13  14
ATOM     14  C   UNL     1       1.564   8.360  20.463  0.00  0.00    +0.000 C 
BRANCH  14  15
ATOM     15  C   UNL     1       0.195   7.873  20.957  0.00  0.00    +0.000 C 
BRANCH  15  17
ATOM     16  C   UNL     1       0.749   9.506  22.784  0.00  0.00    +0.000 C 
ATOM     17  C   UNL     1      -0.370   8.814  22.022  0.00  0.00    +0.000 C 
ENDBRANCH  15  17
ENDBRANCH  14  15
ENDBRANCH  13  14
BRANCH  13  18
ATOM     18  C   UNL     1       1.362   9.798  18.440  0.00  0.00    +0.000 C 
BRANCH  18  19
ATOM     19  C   UNL     1      -0.089  10.260  18.410  0.00  0.00    +0.000 A 
ATOM     20  C   UNL     1      -0.961   9.657  17.477  0.00  0.00    +0.000 A 
ATOM     21  C   UNL     1      -2.314   9.970  17.426  0.00  0.00    +0.000 A 
ATOM     22  C   UNL     1      -2.832  10.920  18.291  0.00  0.00    +0.000 A 
ATOM     23  C   UNL     1      -1.983  11.576  19.178  0.00  0.00    +0.000 A 
ATOM     24  C   UNL     1      -0.610  11.272  19.243  0.00  0.00    +0.000 A 
ATOM     25  C   UNL     1       0.244  12.109  20.156  0.00  0.00    +0.000 C 
ENDBRANCH  18  19
ENDBRANCH  13  18
ENDBRANCH  12  13
ENDBRANCH   1  12
BRANCH   1  26
ATOM     26  C   UNL     1       3.237   5.783  19.869  0.00  0.00    +0.000 C 
BRANCH  26  27
ATOM     27  N   UNL     1       2.568   4.538  20.152  0.00  0.00    +0.000 N 
ATOM     28  C   UNL     1       3.103   3.292  20.228  0.00  0.00    +0.000 A 
ATOM     29  N   UNL     1       2.179   2.447  20.631  0.00  0.00    +0.000 NA
ATOM     30  C   UNL     1       1.072   3.233  20.748  0.00  0.00    +0.000 A 
ATOM     31  N   UNL     1       1.249   4.515  20.414  0.00  0.00    +0.000 NA
ENDBRANCH  26  27
ENDBRANCH   1  26
TORSDOF 11
ENDMDL
MODEL 9
REMARK VINA RESULT:      -6.9      2.549      6.256
REMARK  Name = 
REMARK  13 active torsions:
REMARK  status: ('A' for Active; 'I' for Inactive)
REMARK    1  A    between atoms: C_1  and  C_2
REMARK    2  A    between atoms: C_2  and  C_3
REMARK    3  A    between atoms: C_3  and  C_4
REMARK    4  A    between atoms: C_4  and  N_5
REMARK    5  A    between atoms: N_5  and  C_6
REMARK    6  A    between atoms: N_5  and  C_14
REMARK    7  A    between atoms: C_6  and  C_7
REMARK    8  A    between atoms: C_12  and  C_13
REMARK    9  A    between atoms: C_14  and  C_15
REMARK   10  A    between atoms: C_15  and  O_16
REMARK   11  A    between atoms: C_15  and  C_17
REMARK   12  A    between atoms: C_15  and  C_23
REMARK   13  A    between atoms: C_17  and  N_18
REMARK                            x       y       z     vdW  Elec       q    Type
REMARK                         _______ _______ _______ _____ _____    ______ ____
ROOT
ATOM      1  C   UNL     1       3.074   5.917  18.724  0.00  0.00    +0.000 C 
ENDROOT
BRANCH   1   2
ATOM      2  C   UNL     1       2.392   7.277  18.917  0.00  0.00    +0.000 A 
ATOM      3  C   UNL     1       2.341   8.256  17.906  0.00  0.00    +0.000 A 
ATOM      4  C   UNL     1       1.748   9.504  18.128  0.00  0.00    +0.000 A 
ATOM      5  C   UNL     1       1.174   9.784  19.358  0.00  0.00    +0.000 A 
ATOM      6  F   UNL     1       0.610  10.981  19.567  0.00  0.00    +0.000 F 
ATOM      7  C   UNL     1       1.177   8.840  20.369  0.00  0.00    +0.000 A 
ATOM      8  C   UNL     1       1.784   7.606  20.144  0.00  0.00    +0.000 A 
ATOM      9  F   UNL     1       1.749   6.711  21.141  0.00  0.00    +0.000 F 
ENDBRANCH   1   2
BRANCH   1  10
ATOM     10  O   UNL     1       4.248   5.927  19.569  0.00  0.00    +0.000 OA
ATOM     11  H   UNL     1       3.980   6.238  20.450  0.00  0.00    +0.000 HD
ENDBRANCH   1  10
BRANCH   1  12
ATOM     12  C   UNL     1       3.512   5.563  17.235  0.00  0.00    +0.000 C 
BRANCH  12  13
ATOM     13  N   UNL     1       4.898   5.141  16.926  0.00  0.00    +0.000 NA
BRANCH  13  14
ATOM     14  C   UNL     1       4.998   3.874  16.198  0.00  0.00    +0.000 C 
BRANCH  14  15
ATOM     15  C   UNL     1       6.127   3.871  15.159  0.00  0.00    +0.000 C 
BRANCH  15  17
ATOM     16  C   UNL     1       6.658   3.939  12.704  0.00  0.00    +0.000 C 
ATOM     17  C   UNL     1       5.567   3.734  13.742  0.00  0.00    +0.000 C 
ENDBRANCH  15  17
ENDBRANCH  14  15
ENDBRANCH  13  14
BRANCH  13  18
ATOM     18  C   UNL     1       5.699   6.259  16.356  0.00  0.00    +0.000 C 
BRANCH  18  19
ATOM     19  C   UNL     1       6.756   6.894  17.249  0.00  0.00    +0.000 A 
ATOM     20  C   UNL     1       7.024   8.271  17.089  0.00  0.00    +0.000 A 
ATOM     21  C   UNL     1       7.926   8.946  17.905  0.00  0.00    +0.000 A 
ATOM     22  C   UNL     1       8.609   8.253  18.890  0.00  0.00    +0.000 A 
ATOM     23  C   UNL     1       8.412   6.882  19.030  0.00  0.00    +0.000 A 
ATOM     24  C   UNL     1       7.504   6.183  18.212  0.00  0.00    +0.000 A 
ATOM     25  C   UNL     1       7.440   4.688  18.365  0.00  0.00    +0.000 C 
ENDBRANCH  18  19
ENDBRANCH  13  18
ENDBRANCH  12  13
ENDBRANCH   1  12
BRANCH   1  26
ATOM     26  C   UNL     1       2.192   4.749  19.270  0.00  0.00    +0.000 C 
BRANCH  26  27
ATOM     27  N   UNL     1       2.805   3.447  19.193  0.00  0.00    +0.000 N 
ATOM     28  C   UNL     1       2.434   2.385  18.432  0.00  0.00    +0.000 A 
ATOM     29  N   UNL     1       3.327   1.428  18.557  0.00  0.00    +0.000 NA
ATOM     30  C   UNL     1       4.215   1.949  19.450  0.00  0.00    +0.000 A 
ATOM     31  N   UNL     1       3.908   3.166  19.910  0.00  0.00    +0.000 NA
ENDBRANCH  26  27
ENDBRANCH   1  26
TORSDOF 11
ENDMDL
