MODEL 1
REMARK VINA RESULT:      -8.8      0.000      0.000
REMARK  Name = 
REMARK  7 active torsions:
REMARK  status: ('A' for Active; 'I' for Inactive)
REMARK    1  A    between atoms: C_1  and  C_2
REMARK    2  A    between atoms: C_5  and  S_6
REMARK    3  A    between atoms: S_6  and  N_9
REMARK    4  A    between atoms: N_9  and  C_10
REMARK    5  A    between atoms: C_10  and  C_11
REMARK    6  A    between atoms: C_18  and  C_19
REMARK    7  A    between atoms: C_25  and  C_26
REMARK                            x       y       z     vdW  Elec       q    Type
REMARK                         _______ _______ _______ _____ _____    ______ ____
ROOT
ATOM      1  C   UNL     1       2.283   4.705  20.683  0.00  0.00    +0.000 C 
ATOM      2  C   UNL     1       2.135   6.091  20.103  0.00  0.00    +0.000 A 
ATOM      3  C   UNL     1       1.581   7.082  20.938  0.00  0.00    +0.000 A 
ATOM      4  C   UNL     1       1.391   8.389  20.485  0.00  0.00    +0.000 A 
ATOM      5  C   UNL     1       1.696   8.703  19.164  0.00  0.00    +0.000 A 
ATOM      6  C   UNL     1       2.142   7.710  18.287  0.00  0.00    +0.000 A 
ATOM      7  C   UNL     1       2.457   6.418  18.761  0.00  0.00    +0.000 A 
ENDROOT
BRANCH   7   8
ATOM      8  C   UNL     1       3.046   5.398  17.824  0.00  0.00    +0.000 C 
ATOM      9  O   UNL     1       2.351   4.422  17.549  0.00  0.00    +0.000 OA
ATOM     10  N   UNL     1       4.348   5.552  17.300  0.00  0.00    +0.000 N 
ATOM     11  C   UNL     1       4.783   4.598  16.274  0.00  0.00    +0.000 C 
ATOM     12  C   UNL     1       6.207   4.109  16.533  0.00  0.00    +0.000 C 
ATOM     13  C   UNL     1       7.178   5.275  16.650  0.00  0.00    +0.000 C 
ATOM     14  C   UNL     1       6.707   6.284  17.695  0.00  0.00    +0.000 C 
ATOM     15  C   UNL     1       5.250   6.693  17.488  0.00  0.00    +0.000 C 
BRANCH  14  16
ATOM     16  C   UNL     1       7.619   7.503  17.714  0.00  0.00    +0.000 C 
ATOM     17  F   UNL     1       6.951   8.663  17.860  0.00  0.00    +0.000 F 
ATOM     18  F   UNL     1       8.519   7.435  18.718  0.00  0.00    +0.000 F 
ATOM     19  F   UNL     1       8.309   7.578  16.552  0.00  0.00    +0.000 F 
ENDBRANCH  14  16
ENDBRANCH   7   8
BRANCH   5  20
ATOM     20  S   UNL     1       1.440  10.360  18.575  0.00  0.00    +0.000 S 
ATOM     21  O   UNL     1       1.370  11.229  19.730  0.00  0.00    +0.000 OA
ATOM     22  O   UNL     1       2.391  10.570  17.508  0.00  0.00    +0.000 OA
BRANCH  20  23
ATOM     23  N   UNL     1      -0.101  10.262  17.867  0.00  0.00    +0.000 NA
ATOM     24  H   UNL     1      -0.277   9.347  17.454  0.00  0.00    +0.000 HD
BRANCH  23  25
ATOM     25  C   UNL     1      -1.214  10.710  18.719  0.00  0.00    +0.000 C 
BRANCH  25  26
ATOM     26  C   UNL     1      -2.510  10.914  17.964  0.00  0.00    +0.000 A 
ATOM     27  C   UNL     1      -3.610  11.510  18.595  0.00  0.00    +0.000 A 
ATOM     28  C   UNL     1      -4.751  11.871  17.878  0.00  0.00    +0.000 A 
ATOM     29  C   UNL     1      -4.836  11.576  16.522  0.00  0.00    +0.000 A 
ATOM     30  C   UNL     1      -3.780  10.921  15.890  0.00  0.00    +0.000 A 
ATOM     31  C   UNL     1      -2.618  10.601  16.603  0.00  0.00    +0.000 A 
ENDBRANCH  25  26
ENDBRANCH  23  25
ENDBRANCH  20  23
ENDBRANCH   5  20
TORSDOF 6
ENDMDL
MODEL 2
REMARK VINA RESULT:      -8.5      2.150      2.803
REMARK  Name = 
REMARK  7 active torsions:
REMARK  status: ('A' for Active; 'I' for Inactive)
REMARK    1  A    between atoms: C_1  and  C_2
REMARK    2  A    between atoms: C_5  and  S_6
REMARK    3  A    between atoms: S_6  and  N_9
REMARK    4  A    between atoms: N_9  and  C_10
REMARK    5  A    between atoms: C_10  and  C_11
REMARK    6  A    between atoms: C_18  and  C_19
REMARK    7  A    between atoms: C_25  and  C_26
REMARK                            x       y       z     vdW  Elec       q    Type
REMARK                         _______ _______ _______ _____ _____    ______ ____
ROOT
ATOM      1  C   UNL     1       2.470   4.741  20.714  0.00  0.00    +0.000 C 
ATOM      2  C   UNL     1       2.224   6.086  20.074  0.00  0.00    +0.000 A 
ATOM      3  C   UNL     1       1.645   7.086  20.881  0.00  0.00    +0.000 A 
ATOM      4  C   UNL     1       1.365   8.356  20.372  0.00  0.00    +0.000 A 
ATOM      5  C   UNL     1       1.604   8.619  19.027  0.00  0.00    +0.000 A 
ATOM      6  C   UNL     1       2.073   7.608  18.182  0.00  0.00    +0.000 A 
ATOM      7  C   UNL     1       2.477   6.361  18.706  0.00  0.00    +0.000 A 
ENDROOT
BRANCH   7   8
ATOM      8  C   UNL     1       3.088   5.329  17.797  0.00  0.00    +0.000 C 
ATOM      9  O   UNL     1       2.407   4.339  17.536  0.00  0.00    +0.000 OA
ATOM     10  N   UNL     1       4.394   5.485  17.285  0.00  0.00    +0.000 N 
ATOM     11  C   UNL     1       4.852   4.515  16.284  0.00  0.00    +0.000 C 
ATOM     12  C   UNL     1       6.278   4.048  16.570  0.00  0.00    +0.000 C 
ATOM     13  C   UNL     1       7.235   5.227  16.673  0.00  0.00    +0.000 C 
ATOM     14  C   UNL     1       6.741   6.253  17.691  0.00  0.00    +0.000 C 
ATOM     15  C   UNL     1       5.281   6.641  17.459  0.00  0.00    +0.000 C 
BRANCH  14  16
ATOM     16  C   UNL     1       7.639   7.481  17.694  0.00  0.00    +0.000 C 
ATOM     17  F   UNL     1       8.347   7.625  16.558  0.00  0.00    +0.000 F 
ATOM     18  F   UNL     1       6.928   8.617  17.861  0.00  0.00    +0.000 F 
ATOM     19  F   UNL     1       8.524   7.401  18.715  0.00  0.00    +0.000 F 
ENDBRANCH  14  16
ENDBRANCH   7   8
BRANCH   5  20
ATOM     20  S   UNL     1       1.233  10.227  18.368  0.00  0.00    +0.000 S 
ATOM     21  O   UNL     1       2.377  10.657  17.593  0.00  0.00    +0.000 OA
ATOM     22  O   UNL     1      -0.094  10.145  17.803  0.00  0.00    +0.000 OA
BRANCH  20  23
ATOM     23  N   UNL     1       1.127  11.181  19.769  0.00  0.00    +0.000 NA
ATOM     24  H   UNL     1       2.015  11.626  19.999  0.00  0.00    +0.000 HD
BRANCH  23  25
ATOM     25  C   UNL     1       0.005  12.132  19.799  0.00  0.00    +0.000 C 
BRANCH  25  26
ATOM     26  C   UNL     1      -0.912  11.948  20.990  0.00  0.00    +0.000 A 
ATOM     27  C   UNL     1      -0.589  11.027  21.995  0.00  0.00    +0.000 A 
ATOM     28  C   UNL     1      -1.319  10.963  23.183  0.00  0.00    +0.000 A 
ATOM     29  C   UNL     1      -2.431  11.778  23.355  0.00  0.00    +0.000 A 
ATOM     30  C   UNL     1      -2.809  12.654  22.337  0.00  0.00    +0.000 A 
ATOM     31  C   UNL     1      -2.049  12.747  21.165  0.00  0.00    +0.000 A 
ENDBRANCH  25  26
ENDBRANCH  23  25
ENDBRANCH  20  23
ENDBRANCH   5  20
TORSDOF 6
ENDMDL
MODEL 3
REMARK VINA RESULT:      -8.1      4.061      8.297
REMARK  Name = 
REMARK  7 active torsions:
REMARK  status: ('A' for Active; 'I' for Inactive)
REMARK    1  A    between atoms: C_1  and  C_2
REMARK    2  A    between atoms: C_5  and  S_6
REMARK    3  A    between atoms: S_6  and  N_9
REMARK    4  A    between atoms: N_9  and  C_10
REMARK    5  A    between atoms: C_10  and  C_11
REMARK    6  A    between atoms: C_18  and  C_19
REMARK    7  A    between atoms: C_25  and  C_26
REMARK                            x       y       z     vdW  Elec       q    Type
REMARK                         _______ _______ _______ _____ _____    ______ ____
ROOT
ATOM      1  C   UNL     1       1.118   3.780  18.386  0.00  0.00    +0.000 C 
ATOM      2  C   UNL     1       2.538   4.291  18.320  0.00  0.00    +0.000 A 
ATOM      3  C   UNL     1       3.347   3.810  17.271  0.00  0.00    +0.000 A 
ATOM      4  C   UNL     1       4.677   4.213  17.138  0.00  0.00    +0.000 A 
ATOM      5  C   UNL     1       5.231   5.057  18.095  0.00  0.00    +0.000 A 
ATOM      6  C   UNL     1       4.481   5.457  19.204  0.00  0.00    +0.000 A 
ATOM      7  C   UNL     1       3.103   5.160  19.287  0.00  0.00    +0.000 A 
ENDROOT
BRANCH   7   8
ATOM      8  C   UNL     1       2.287   5.700  20.431  0.00  0.00    +0.000 C 
ATOM      9  O   UNL     1       2.037   4.927  21.354  0.00  0.00    +0.000 OA
ATOM     10  N   UNL     1       1.817   7.031  20.431  0.00  0.00    +0.000 N 
ATOM     11  C   UNL     1       1.168   7.521  21.652  0.00  0.00    +0.000 C 
ATOM     12  C   UNL     1      -0.103   8.307  21.331  0.00  0.00    +0.000 C 
ATOM     13  C   UNL     1       0.181   9.445  20.363  0.00  0.00    +0.000 C 
ATOM     14  C   UNL     1       0.887   8.939  19.107  0.00  0.00    +0.000 C 
ATOM     15  C   UNL     1       2.100   8.070  19.435  0.00  0.00    +0.000 C 
BRANCH  14  16
ATOM     16  C   UNL     1       1.276  10.101  18.204  0.00  0.00    +0.000 C 
ATOM     17  F   UNL     1       2.179   9.763  17.263  0.00  0.00    +0.000 F 
ATOM     18  F   UNL     1       0.205  10.610  17.559  0.00  0.00    +0.000 F 
ATOM     19  F   UNL     1       1.818  11.096  18.944  0.00  0.00    +0.000 F 
ENDBRANCH  14  16
ENDBRANCH   7   8
BRANCH   5  20
ATOM     20  S   UNL     1       6.929   5.559  17.942  0.00  0.00    +0.000 S 
ATOM     21  O   UNL     1       6.944   6.987  17.707  0.00  0.00    +0.000 OA
ATOM     22  O   UNL     1       7.640   4.952  19.044  0.00  0.00    +0.000 OA
BRANCH  20  23
ATOM     23  N   UNL     1       7.420   4.763  16.525  0.00  0.00    +0.000 NA
ATOM     24  H   UNL     1       6.978   3.850  16.423  0.00  0.00    +0.000 HD
BRANCH  23  25
ATOM     25  C   UNL     1       7.332   5.563  15.292  0.00  0.00    +0.000 C 
BRANCH  25  26
ATOM     26  C   UNL     1       6.955   4.752  14.071  0.00  0.00    +0.000 A 
ATOM     27  C   UNL     1       5.795   3.966  14.074  0.00  0.00    +0.000 A 
ATOM     28  C   UNL     1       5.330   3.352  12.911  0.00  0.00    +0.000 A 
ATOM     29  C   UNL     1       6.063   3.460  11.734  0.00  0.00    +0.000 A 
ATOM     30  C   UNL     1       7.256   4.181  11.726  0.00  0.00    +0.000 A 
ATOM     31  C   UNL     1       7.696   4.832  12.885  0.00  0.00    +0.000 A 
ENDBRANCH  25  26
ENDBRANCH  23  25
ENDBRANCH  20  23
ENDBRANCH   5  20
TORSDOF 6
ENDMDL
MODEL 4
REMARK VINA RESULT:      -8.0      4.146      8.495
REMARK  Name = 
REMARK  7 active torsions:
REMARK  status: ('A' for Active; 'I' for Inactive)
REMARK    1  A    between atoms: C_1  and  C_2
REMARK    2  A    between atoms: C_5  and  S_6
REMARK    3  A    between atoms: S_6  and  N_9
REMARK    4  A    between atoms: N_9  and  C_10
REMARK    5  A    between atoms: C_10  and  C_11
REMARK    6  A    between atoms: C_18  and  C_19
REMARK    7  A    between atoms: C_25  and  C_26
REMARK                            x       y       z     vdW  Elec       q    Type
REMARK                         _______ _______ _______ _____ _____    ______ ____
ROOT
ATOM      1  C   UNL     1      -0.248   8.870  22.141  0.00  0.00    +0.000 C 
ATOM      2  C   UNL     1       0.683   8.330  21.082  0.00  0.00    +0.000 A 
ATOM      3  C   UNL     1       1.042   6.970  21.174  0.00  0.00    +0.000 A 
ATOM      4  C   UNL     1       1.910   6.386  20.249  0.00  0.00    +0.000 A 
ATOM      5  C   UNL     1       2.480   7.176  19.256  0.00  0.00    +0.000 A 
ATOM      6  C   UNL     1       2.225   8.550  19.214  0.00  0.00    +0.000 A 
ATOM      7  C   UNL     1       1.256   9.130  20.061  0.00  0.00    +0.000 A 
ENDROOT
BRANCH   7   8
ATOM      8  C   UNL     1       0.913  10.588  19.919  0.00  0.00    +0.000 C 
ATOM      9  O   UNL     1       1.612  11.390  20.536  0.00  0.00    +0.000 OA
ATOM     10  N   UNL     1      -0.175  11.011  19.127  0.00  0.00    +0.000 N 
ATOM     11  C   UNL     1      -0.343  12.453  18.917  0.00  0.00    +0.000 C 
ATOM     12  C   UNL     1      -1.802  12.875  19.074  0.00  0.00    +0.000 C 
ATOM     13  C   UNL     1      -2.711  12.075  18.154  0.00  0.00    +0.000 C 
ATOM     14  C   UNL     1      -2.513  10.573  18.349  0.00  0.00    +0.000 C 
ATOM     15  C   UNL     1      -1.040  10.172  18.290  0.00  0.00    +0.000 C 
BRANCH  14  16
ATOM     16  C   UNL     1      -3.334   9.787  17.338  0.00  0.00    +0.000 C 
ATOM     17  F   UNL     1      -4.351  10.497  16.812  0.00  0.00    +0.000 F 
ATOM     18  F   UNL     1      -2.577   9.358  16.307  0.00  0.00    +0.000 F 
ATOM     19  F   UNL     1      -3.870   8.695  17.932  0.00  0.00    +0.000 F 
ENDBRANCH  14  16
ENDBRANCH   7   8
BRANCH   5  20
ATOM     20  S   UNL     1       3.600   6.443  18.087  0.00  0.00    +0.000 S 
ATOM     21  O   UNL     1       3.811   7.400  17.023  0.00  0.00    +0.000 OA
ATOM     22  O   UNL     1       4.692   5.890  18.854  0.00  0.00    +0.000 OA
BRANCH  20  23
ATOM     23  N   UNL     1       2.695   5.138  17.483  0.00  0.00    +0.000 NA
ATOM     24  H   UNL     1       2.526   5.219  16.481  0.00  0.00    +0.000 HD
BRANCH  23  25
ATOM     25  C   UNL     1       3.190   3.804  17.856  0.00  0.00    +0.000 C 
BRANCH  25  26
ATOM     26  C   UNL     1       2.576   3.265  19.131  0.00  0.00    +0.000 A 
ATOM     27  C   UNL     1       3.388   2.945  20.226  0.00  0.00    +0.000 A 
ATOM     28  C   UNL     1       2.839   2.616  21.467  0.00  0.00    +0.000 A 
ATOM     29  C   UNL     1       1.459   2.537  21.610  0.00  0.00    +0.000 A 
ATOM     30  C   UNL     1       0.634   2.786  20.514  0.00  0.00    +0.000 A 
ATOM     31  C   UNL     1       1.188   3.159  19.283  0.00  0.00    +0.000 A 
ENDBRANCH  25  26
ENDBRANCH  23  25
ENDBRANCH  20  23
ENDBRANCH   5  20
TORSDOF 6
ENDMDL
MODEL 5
REMARK VINA RESULT:      -8.0      5.801      8.234
REMARK  Name = 
REMARK  7 active torsions:
REMARK  status: ('A' for Active; 'I' for Inactive)
REMARK    1  A    between atoms: C_1  and  C_2
REMARK    2  A    between atoms: C_5  and  S_6
REMARK    3  A    between atoms: S_6  and  N_9
REMARK    4  A    between atoms: N_9  and  C_10
REMARK    5  A    between atoms: C_10  and  C_11
REMARK    6  A    between atoms: C_18  and  C_19
REMARK    7  A    between atoms: C_25  and  C_26
REMARK                            x       y       z     vdW  Elec       q    Type
REMARK                         _______ _______ _______ _____ _____    ______ ____
ROOT
ATOM      1  C   UNL     1      -0.523  14.799  19.735  0.00  0.00    +0.000 C 
ATOM      2  C   UNL     1      -1.566  14.356  20.734  0.00  0.00    +0.000 A 
ATOM      3  C   UNL     1      -2.627  15.248  20.993  0.00  0.00    +0.000 A 
ATOM      4  C   UNL     1      -3.629  14.933  21.913  0.00  0.00    +0.000 A 
ATOM      5  C   UNL     1      -3.545  13.744  22.632  0.00  0.00    +0.000 A 
ATOM      6  C   UNL     1      -2.444  12.898  22.471  0.00  0.00    +0.000 A 
ATOM      7  C   UNL     1      -1.490  13.141  21.459  0.00  0.00    +0.000 A 
ENDROOT
BRANCH   7   8
ATOM      8  C   UNL     1      -0.377  12.155  21.226  0.00  0.00    +0.000 C 
ATOM      9  O   UNL     1       0.612  12.246  21.951  0.00  0.00    +0.000 OA
ATOM     10  N   UNL     1      -0.462  11.182  20.207  0.00  0.00    +0.000 N 
ATOM     11  C   UNL     1       0.593  10.164  20.152  0.00  0.00    +0.000 C 
ATOM     12  C   UNL     1       1.072   9.934  18.720  0.00  0.00    +0.000 C 
ATOM     13  C   UNL     1      -0.086   9.578  17.800  0.00  0.00    +0.000 C 
ATOM     14  C   UNL     1      -1.198  10.621  17.883  0.00  0.00    +0.000 C 
ATOM     15  C   UNL     1      -1.604  10.921  19.325  0.00  0.00    +0.000 C 
BRANCH  14  16
ATOM     16  C   UNL     1      -2.401  10.192  17.055  0.00  0.00    +0.000 C 
ATOM     17  F   UNL     1      -3.095  11.230  16.549  0.00  0.00    +0.000 F 
ATOM     18  F   UNL     1      -2.035   9.416  16.012  0.00  0.00    +0.000 F 
ATOM     19  F   UNL     1      -3.252   9.471  17.821  0.00  0.00    +0.000 F 
ENDBRANCH  14  16
ENDBRANCH   7   8
BRANCH   5  20
ATOM     20  S   UNL     1      -4.808  13.346  23.817  0.00  0.00    +0.000 S 
ATOM     21  O   UNL     1      -4.180  12.617  24.898  0.00  0.00    +0.000 OA
ATOM     22  O   UNL     1      -5.561  14.558  24.040  0.00  0.00    +0.000 OA
BRANCH  20  23
ATOM     23  N   UNL     1      -5.806  12.283  22.945  0.00  0.00    +0.000 NA
ATOM     24  H   UNL     1      -6.394  11.718  23.557  0.00  0.00    +0.000 HD
BRANCH  23  25
ATOM     25  C   UNL     1      -6.573  12.898  21.850  0.00  0.00    +0.000 C 
BRANCH  25  26
ATOM     26  C   UNL     1      -6.321  12.259  20.501  0.00  0.00    +0.000 A 
ATOM     27  C   UNL     1      -6.898  11.022  20.186  0.00  0.00    +0.000 A 
ATOM     28  C   UNL     1      -6.829  10.495  18.895  0.00  0.00    +0.000 A 
ATOM     29  C   UNL     1      -6.117  11.172  17.912  0.00  0.00    +0.000 A 
ATOM     30  C   UNL     1      -5.477  12.372  18.223  0.00  0.00    +0.000 A 
ATOM     31  C   UNL     1      -5.587  12.919  19.508  0.00  0.00    +0.000 A 
ENDBRANCH  25  26
ENDBRANCH  23  25
ENDBRANCH  20  23
ENDBRANCH   5  20
TORSDOF 6
ENDMDL
MODEL 6
REMARK VINA RESULT:      -7.9      0.515      1.215
REMARK  Name = 
REMARK  7 active torsions:
REMARK  status: ('A' for Active; 'I' for Inactive)
REMARK    1  A    between atoms: C_1  and  C_2
REMARK    2  A    between atoms: C_5  and  S_6
REMARK    3  A    between atoms: S_6  and  N_9
REMARK    4  A    between atoms: N_9  and  C_10
REMARK    5  A    between atoms: C_10  and  C_11
REMARK    6  A    between atoms: C_18  and  C_19
REMARK    7  A    between atoms: C_25  and  C_26
REMARK                            x       y       z     vdW  Elec       q    Type
REMARK                         _______ _______ _______ _____ _____    ______ ____
ROOT
ATOM      1  C   UNL     1       2.637   4.287  20.501  0.00  0.00    +0.000 C 
ATOM      2  C   UNL     1       2.328   5.691  20.040  0.00  0.00    +0.000 A 
ATOM      3  C   UNL     1       1.757   6.567  20.986  0.00  0.00    +0.000 A 
ATOM      4  C   UNL     1       1.422   7.880  20.648  0.00  0.00    +0.000 A 
ATOM      5  C   UNL     1       1.598   8.312  19.337  0.00  0.00    +0.000 A 
ATOM      6  C   UNL     1       2.059   7.427  18.357  0.00  0.00    +0.000 A 
ATOM      7  C   UNL     1       2.518   6.138  18.708  0.00  0.00    +0.000 A 
ENDROOT
BRANCH   7   8
ATOM      8  C   UNL     1       3.118   5.245  17.657  0.00  0.00    +0.000 C 
ATOM      9  O   UNL     1       2.444   4.286  17.285  0.00  0.00    +0.000 OA
ATOM     10  N   UNL     1       4.407   5.490  17.137  0.00  0.00    +0.000 N 
ATOM     11  C   UNL     1       4.851   4.667  16.007  0.00  0.00    +0.000 C 
ATOM     12  C   UNL     1       6.291   4.191  16.193  0.00  0.00    +0.000 C 
ATOM     13  C   UNL     1       7.234   5.362  16.426  0.00  0.00    +0.000 C 
ATOM     14  C   UNL     1       6.753   6.238  17.582  0.00  0.00    +0.000 C 
ATOM     15  C   UNL     1       5.283   6.627  17.440  0.00  0.00    +0.000 C 
BRANCH  14  16
ATOM     16  C   UNL     1       7.634   7.471  17.724  0.00  0.00    +0.000 C 
ATOM     17  F   UNL     1       8.390   7.712  16.636  0.00  0.00    +0.000 F 
ATOM     18  F   UNL     1       6.901   8.582  17.950  0.00  0.00    +0.000 F 
ATOM     19  F   UNL     1       8.474   7.317  18.774  0.00  0.00    +0.000 F 
ENDBRANCH  14  16
ENDBRANCH   7   8
BRANCH   5  20
ATOM     20  S   UNL     1       1.157   9.976  18.895  0.00  0.00    +0.000 S 
ATOM     21  O   UNL     1       1.770  10.862  19.860  0.00  0.00    +0.000 OA
ATOM     22  O   UNL     1       1.391  10.102  17.475  0.00  0.00    +0.000 OA
BRANCH  20  23
ATOM     23  N   UNL     1      -0.525   9.984  19.133  0.00  0.00    +0.000 NA
ATOM     24  H   UNL     1      -0.797   9.482  19.977  0.00  0.00    +0.000 HD
BRANCH  23  25
ATOM     25  C   UNL     1      -1.166  11.305  19.041  0.00  0.00    +0.000 C 
BRANCH  25  26
ATOM     26  C   UNL     1      -2.304  11.357  18.044  0.00  0.00    +0.000 A 
ATOM     27  C   UNL     1      -2.091  10.987  16.709  0.00  0.00    +0.000 A 
ATOM     28  C   UNL     1      -3.154  10.856  15.814  0.00  0.00    +0.000 A 
ATOM     29  C   UNL     1      -4.445  11.163  16.226  0.00  0.00    +0.000 A 
ATOM     30  C   UNL     1      -4.669  11.599  17.531  0.00  0.00    +0.000 A 
ATOM     31  C   UNL     1      -3.606  11.686  18.439  0.00  0.00    +0.000 A 
ENDBRANCH  25  26
ENDBRANCH  23  25
ENDBRANCH  20  23
ENDBRANCH   5  20
TORSDOF 6
ENDMDL
MODEL 7
REMARK VINA RESULT:      -7.9      2.657      3.196
REMARK  Name = 
REMARK  7 active torsions:
REMARK  status: ('A' for Active; 'I' for Inactive)
REMARK    1  A    between atoms: C_1  and  C_2
REMARK    2  A    between atoms: C_5  and  S_6
REMARK    3  A    between atoms: S_6  and  N_9
REMARK    4  A    between atoms: N_9  and  C_10
REMARK    5  A    between atoms: C_10  and  C_11
REMARK    6  A    between atoms: C_18  and  C_19
REMARK    7  A    between atoms: C_25  and  C_26
REMARK                            x       y       z     vdW  Elec       q    Type
REMARK                         _______ _______ _______ _____ _____    ______ ____
ROOT
ATOM      1  C   UNL     1       2.639   4.648  20.657  0.00  0.00    +0.000 C 
ATOM      2  C   UNL     1       2.308   6.001  20.073  0.00  0.00    +0.000 A 
ATOM      3  C   UNL     1       1.737   6.953  20.942  0.00  0.00    +0.000 A 
ATOM      4  C   UNL     1       1.382   8.225  20.490  0.00  0.00    +0.000 A 
ATOM      5  C   UNL     1       1.538   8.537  19.143  0.00  0.00    +0.000 A 
ATOM      6  C   UNL     1       1.998   7.572  18.243  0.00  0.00    +0.000 A 
ATOM      7  C   UNL     1       2.476   6.326  18.704  0.00  0.00    +0.000 A 
ENDROOT
BRANCH   7   8
ATOM      8  C   UNL     1       3.075   5.346  17.731  0.00  0.00    +0.000 C 
ATOM      9  O   UNL     1       2.389   4.374  17.422  0.00  0.00    +0.000 OA
ATOM     10  N   UNL     1       4.376   5.530  17.214  0.00  0.00    +0.000 N 
ATOM     11  C   UNL     1       4.820   4.618  16.155  0.00  0.00    +0.000 C 
ATOM     12  C   UNL     1       6.249   4.134  16.398  0.00  0.00    +0.000 C 
ATOM     13  C   UNL     1       7.209   5.303  16.557  0.00  0.00    +0.000 C 
ATOM     14  C   UNL     1       6.728   6.271  17.637  0.00  0.00    +0.000 C 
ATOM     15  C   UNL     1       5.267   6.673  17.444  0.00  0.00    +0.000 C 
BRANCH  14  16
ATOM     16  C   UNL     1       7.628   7.496  17.700  0.00  0.00    +0.000 C 
ATOM     17  F   UNL     1       6.948   8.646  17.873  0.00  0.00    +0.000 F 
ATOM     18  F   UNL     1       8.518   7.408  18.711  0.00  0.00    +0.000 F 
ATOM     19  F   UNL     1       8.329   7.611  16.548  0.00  0.00    +0.000 F 
ENDBRANCH  14  16
ENDBRANCH   7   8
BRANCH   5  20
ATOM     20  S   UNL     1       1.071  10.149  18.556  0.00  0.00    +0.000 S 
ATOM     21  O   UNL     1       2.277  10.826  18.130  0.00  0.00    +0.000 OA
ATOM     22  O   UNL     1      -0.057   9.956  17.675  0.00  0.00    +0.000 OA
BRANCH  20  23
ATOM     23  N   UNL     1       0.489  10.897  19.966  0.00  0.00    +0.000 NA
ATOM     24  H   UNL     1       0.645  10.326  20.796  0.00  0.00    +0.000 HD
BRANCH  23  25
ATOM     25  C   UNL     1       0.919  12.290  20.161  0.00  0.00    +0.000 C 
BRANCH  25  26
ATOM     26  C   UNL     1       0.285  12.956  21.363  0.00  0.00    +0.000 A 
ATOM     27  C   UNL     1       0.555  14.300  21.652  0.00  0.00    +0.000 A 
ATOM     28  C   UNL     1      -0.148  14.987  22.643  0.00  0.00    +0.000 A 
ATOM     29  C   UNL     1      -1.091  14.314  23.411  0.00  0.00    +0.000 A 
ATOM     30  C   UNL     1      -1.325  12.958  23.186  0.00  0.00    +0.000 A 
ATOM     31  C   UNL     1      -0.650  12.284  22.161  0.00  0.00    +0.000 A 
ENDBRANCH  25  26
ENDBRANCH  23  25
ENDBRANCH  20  23
ENDBRANCH   5  20
TORSDOF 6
ENDMDL
MODEL 8
REMARK VINA RESULT:      -7.9      4.035      8.339
REMARK  Name = 
REMARK  7 active torsions:
REMARK  status: ('A' for Active; 'I' for Inactive)
REMARK    1  A    between atoms: C_1  and  C_2
REMARK    2  A    between atoms: C_5  and  S_6
REMARK    3  A    between atoms: S_6  and  N_9
REMARK    4  A    between atoms: N_9  and  C_10
REMARK    5  A    between atoms: C_10  and  C_11
REMARK    6  A    between atoms: C_18  and  C_19
REMARK    7  A    between atoms: C_25  and  C_26
REMARK                            x       y       z     vdW  Elec       q    Type
REMARK                         _______ _______ _______ _____ _____    ______ ____
ROOT
ATOM      1  C   UNL     1       1.017   3.334  18.966  0.00  0.00    +0.000 C 
ATOM      2  C   UNL     1       2.254   4.003  18.416  0.00  0.00    +0.000 A 
ATOM      3  C   UNL     1       2.817   3.451  17.248  0.00  0.00    +0.000 A 
ATOM      4  C   UNL     1       3.970   3.991  16.675  0.00  0.00    +0.000 A 
ATOM      5  C   UNL     1       4.610   5.055  17.305  0.00  0.00    +0.000 A 
ATOM      6  C   UNL     1       4.131   5.546  18.523  0.00  0.00    +0.000 A 
ATOM      7  C   UNL     1       2.901   5.094  19.048  0.00  0.00    +0.000 A 
ENDROOT
BRANCH   7   8
ATOM      8  C   UNL     1       2.347   5.718  20.301  0.00  0.00    +0.000 C 
ATOM      9  O   UNL     1       2.272   5.003  21.298  0.00  0.00    +0.000 OA
ATOM     10  N   UNL     1       1.915   7.062  20.320  0.00  0.00    +0.000 N 
ATOM     11  C   UNL     1       1.537   7.636  21.616  0.00  0.00    +0.000 C 
ATOM     12  C   UNL     1       0.246   8.445  21.514  0.00  0.00    +0.000 C 
ATOM     13  C   UNL     1       0.351   9.522  20.444  0.00  0.00    +0.000 C 
ATOM     14  C   UNL     1       0.777   8.929  19.103  0.00  0.00    +0.000 C 
ATOM     15  C   UNL     1       2.012   8.039  19.229  0.00  0.00    +0.000 C 
BRANCH  14  16
ATOM     16  C   UNL     1       0.999  10.029  18.075  0.00  0.00    +0.000 C 
ATOM     17  F   UNL     1       2.005   9.762  17.220  0.00  0.00    +0.000 F 
ATOM     18  F   UNL     1      -0.106  10.244  17.330  0.00  0.00    +0.000 F 
ATOM     19  F   UNL     1       1.299  11.190  18.703  0.00  0.00    +0.000 F 
ENDBRANCH  14  16
ENDBRANCH   7   8
BRANCH   5  20
ATOM     20  S   UNL     1       6.088   5.736  16.591  0.00  0.00    +0.000 S 
ATOM     21  O   UNL     1       5.694   6.825  15.724  0.00  0.00    +0.000 OA
ATOM     22  O   UNL     1       7.025   5.914  17.676  0.00  0.00    +0.000 OA
BRANCH  20  23
ATOM     23  N   UNL     1       6.658   4.452  15.636  0.00  0.00    +0.000 NA
ATOM     24  H   UNL     1       6.055   3.632  15.694  0.00  0.00    +0.000 HD
BRANCH  23  25
ATOM     25  C   UNL     1       6.988   4.801  14.245  0.00  0.00    +0.000 C 
BRANCH  25  26
ATOM     26  C   UNL     1       6.337   3.894  13.223  0.00  0.00    +0.000 A 
ATOM     27  C   UNL     1       4.955   3.956  13.000  0.00  0.00    +0.000 A 
ATOM     28  C   UNL     1       4.357   3.263  11.947  0.00  0.00    +0.000 A 
ATOM     29  C   UNL     1       5.130   2.437  11.138  0.00  0.00    +0.000 A 
ATOM     30  C   UNL     1       6.496   2.308  11.386  0.00  0.00    +0.000 A 
ATOM     31  C   UNL     1       7.099   3.040  12.416  0.00  0.00    +0.000 A 
ENDBRANCH  25  26
ENDBRANCH  23  25
ENDBRANCH  20  23
ENDBRANCH   5  20
TORSDOF 6
ENDMDL
MODEL 9
REMARK VINA RESULT:      -7.8      0.866      1.619
REMARK  Name = 
REMARK  7 active torsions:
REMARK  status: ('A' for Active; 'I' for Inactive)
REMARK    1  A    between atoms: C_1  and  C_2
REMARK    2  A    between atoms: C_5  and  S_6
REMARK    3  A    between atoms: S_6  and  N_9
REMARK    4  A    between atoms: N_9  and  C_10
REMARK    5  A    between atoms: C_10  and  C_11
REMARK    6  A    between atoms: C_18  and  C_19
REMARK    7  A    between atoms: C_25  and  C_26
REMARK                            x       y       z     vdW  Elec       q    Type
REMARK                         _______ _______ _______ _____ _____    ______ ____
ROOT
ATOM      1  C   UNL     1       2.597   4.429  20.588  0.00  0.00    +0.000 C 
ATOM      2  C   UNL     1       2.294   5.816  20.074  0.00  0.00    +0.000 A 
ATOM      3  C   UNL     1       1.744   6.735  20.991  0.00  0.00    +0.000 A 
ATOM      4  C   UNL     1       1.416   8.036  20.604  0.00  0.00    +0.000 A 
ATOM      5  C   UNL     1       1.577   8.412  19.275  0.00  0.00    +0.000 A 
ATOM      6  C   UNL     1       2.017   7.484  18.326  0.00  0.00    +0.000 A 
ATOM      7  C   UNL     1       2.469   6.207  18.723  0.00  0.00    +0.000 A 
ENDROOT
BRANCH   7   8
ATOM      8  C   UNL     1       3.047   5.266  17.701  0.00  0.00    +0.000 C 
ATOM      9  O   UNL     1       2.352   4.308  17.365  0.00  0.00    +0.000 OA
ATOM     10  N   UNL     1       4.338   5.467  17.167  0.00  0.00    +0.000 N 
ATOM     11  C   UNL     1       4.760   4.597  16.065  0.00  0.00    +0.000 C 
ATOM     12  C   UNL     1       6.191   4.100  16.262  0.00  0.00    +0.000 C 
ATOM     13  C   UNL     1       7.158   5.259  16.450  0.00  0.00    +0.000 C 
ATOM     14  C   UNL     1       6.700   6.184  17.576  0.00  0.00    +0.000 C 
ATOM     15  C   UNL     1       5.237   6.597  17.427  0.00  0.00    +0.000 C 
BRANCH  14  16
ATOM     16  C   UNL     1       7.605   7.403  17.671  0.00  0.00    +0.000 C 
ATOM     17  F   UNL     1       8.485   7.334  18.689  0.00  0.00    +0.000 F 
ATOM     18  F   UNL     1       8.323   7.580  16.542  0.00  0.00    +0.000 F 
ATOM     19  F   UNL     1       6.858   8.516  17.858  0.00  0.00    +0.000 F 
ENDBRANCH  14  16
ENDBRANCH   7   8
BRANCH   5  20
ATOM     20  S   UNL     1       1.145  10.061  18.772  0.00  0.00    +0.000 S 
ATOM     21  O   UNL     1       1.343  10.932  19.910  0.00  0.00    +0.000 OA
ATOM     22  O   UNL     1       1.798  10.290  17.504  0.00  0.00    +0.000 OA
BRANCH  20  23
ATOM     23  N   UNL     1      -0.520   9.925  18.466  0.00  0.00    +0.000 NA
ATOM     24  H   UNL     1      -1.039   9.620  19.289  0.00  0.00    +0.000 HD
BRANCH  23  25
ATOM     25  C   UNL     1      -1.139  11.095  17.823  0.00  0.00    +0.000 C 
BRANCH  25  26
ATOM     26  C   UNL     1      -2.218  11.747  18.661  0.00  0.00    +0.000 A 
ATOM     27  C   UNL     1      -3.558  11.693  18.254  0.00  0.00    +0.000 A 
ATOM     28  C   UNL     1      -4.589  12.127  19.089  0.00  0.00    +0.000 A 
ATOM     29  C   UNL     1      -4.286  12.688  20.324  0.00  0.00    +0.000 A 
ATOM     30  C   UNL     1      -2.954  12.813  20.719  0.00  0.00    +0.000 A 
ATOM     31  C   UNL     1      -1.926  12.336  19.898  0.00  0.00    +0.000 A 
ENDBRANCH  25  26
ENDBRANCH  23  25
ENDBRANCH  20  23
ENDBRANCH   5  20
TORSDOF 6
ENDMDL
