MODEL 1
REMARK VINA RESULT:      -6.7      0.000      0.000
REMARK  Name = 
REMARK  6 active torsions:
REMARK  status: ('A' for Active; 'I' for Inactive)
REMARK    1  A    between atoms: C_2  and  C_3
REMARK    2  A    between atoms: C_2  and  O_12
REMARK    3  A    between atoms: C_4  and  C_5
REMARK    4  A    between atoms: O_12  and  C_13
REMARK    5  A    between atoms: C_13  and  C_14
REMARK    6  A    between atoms: C_14  and  C_15
REMARK                            x       y       z     vdW  Elec       q    Type
REMARK                         _______ _______ _______ _____ _____    ______ ____
ROOT
ATOM      1  O   UNL     1       5.219   1.599  21.475  0.00  0.00    +0.000 OA
ATOM      2  C   UNL     1       4.313   1.941  20.732  0.00  0.00    +0.000 C 
ENDROOT
BRANCH   2   3
ATOM      3  C   UNL     1       4.540   2.703  19.483  0.00  0.00    +0.000 C 
ATOM      4  C   UNL     1       5.120   3.915  19.471  0.00  0.00    +0.000 C 
BRANCH   4   5
ATOM      5  C   UNL     1       5.567   4.619  18.264  0.00  0.00    +0.000 A 
ATOM      6  C   UNL     1       5.244   4.184  16.973  0.00  0.00    +0.000 A 
ATOM      7  C   UNL     1       5.704   4.882  15.855  0.00  0.00    +0.000 A 
ATOM      8  C   UNL     1       6.480   6.028  16.016  0.00  0.00    +0.000 A 
ATOM      9  C   UNL     1       6.791   6.475  17.297  0.00  0.00    +0.000 A 
ATOM     10 CL   UNL     1       7.747   7.892  17.499  0.00  0.00    +0.000 Cl
ATOM     11  C   UNL     1       6.336   5.782  18.418  0.00  0.00    +0.000 A 
ENDBRANCH   4   5
ENDBRANCH   2   3
BRANCH   2  12
ATOM     12  O   UNL     1       2.993   1.845  20.977  0.00  0.00    +0.000 OA
BRANCH  12  13
ATOM     13  C   UNL     1       2.411   2.893  21.762  0.00  0.00    +0.000 C 
BRANCH  13  14
ATOM     14  C   UNL     1       1.213   3.420  20.965  0.00  0.00    +0.000 C 
BRANCH  14  15
ATOM     15  C   UNL     1       1.594   4.526  20.001  0.00  0.00    +0.000 A 
ATOM     16  C   UNL     1       1.561   4.304  18.618  0.00  0.00    +0.000 A 
ATOM     17  C   UNL     1       1.965   5.299  17.729  0.00  0.00    +0.000 A 
ATOM     18  C   UNL     1       2.397   6.533  18.212  0.00  0.00    +0.000 A 
ATOM     19  C   UNL     1       2.414   6.778  19.582  0.00  0.00    +0.000 A 
ATOM     20  C   UNL     1       2.008   5.781  20.474  0.00  0.00    +0.000 A 
ENDBRANCH  14  15
ENDBRANCH  13  14
ENDBRANCH  12  13
ENDBRANCH   2  12
TORSDOF 6
ENDMDL
MODEL 2
REMARK VINA RESULT:      -6.6      1.285      1.676
REMARK  Name = 
REMARK  6 active torsions:
REMARK  status: ('A' for Active; 'I' for Inactive)
REMARK    1  A    between atoms: C_2  and  C_3
REMARK    2  A    between atoms: C_2  and  O_12
REMARK    3  A    between atoms: C_4  and  C_5
REMARK    4  A    between atoms: O_12  and  C_13
REMARK    5  A    between atoms: C_13  and  C_14
REMARK    6  A    between atoms: C_14  and  C_15
REMARK                            x       y       z     vdW  Elec       q    Type
REMARK                         _______ _______ _______ _____ _____    ______ ____
ROOT
ATOM      1  O   UNL     1       5.118   1.312  21.217  0.00  0.00    +0.000 OA
ATOM      2  C   UNL     1       4.399   2.175  20.738  0.00  0.00    +0.000 C 
ENDROOT
BRANCH   2   3
ATOM      3  C   UNL     1       4.707   2.864  19.465  0.00  0.00    +0.000 C 
ATOM      4  C   UNL     1       5.226   4.104  19.421  0.00  0.00    +0.000 C 
BRANCH   4   5
ATOM      5  C   UNL     1       5.751   4.750  18.215  0.00  0.00    +0.000 A 
ATOM      6  C   UNL     1       6.597   5.865  18.262  0.00  0.00    +0.000 A 
ATOM      7  C   UNL     1       7.060   6.453  17.084  0.00  0.00    +0.000 A 
ATOM      8  C   UNL     1       6.693   5.926  15.847  0.00  0.00    +0.000 A 
ATOM      9  C   UNL     1       5.865   4.809  15.793  0.00  0.00    +0.000 A 
ATOM     10 CL   UNL     1       5.413   4.153  14.267  0.00  0.00    +0.000 Cl
ATOM     11  C   UNL     1       5.398   4.217  16.967  0.00  0.00    +0.000 A 
ENDBRANCH   4   5
ENDBRANCH   2   3
BRANCH   2  12
ATOM     12  O   UNL     1       3.336   2.753  21.328  0.00  0.00    +0.000 OA
BRANCH  12  13
ATOM     13  C   UNL     1       2.058   2.159  21.065  0.00  0.00    +0.000 C 
BRANCH  13  14
ATOM     14  C   UNL     1       1.057   3.315  20.952  0.00  0.00    +0.000 C 
BRANCH  14  15
ATOM     15  C   UNL     1       1.519   4.396  19.995  0.00  0.00    +0.000 A 
ATOM     16  C   UNL     1       1.522   4.166  18.613  0.00  0.00    +0.000 A 
ATOM     17  C   UNL     1       2.000   5.136  17.733  0.00  0.00    +0.000 A 
ATOM     18  C   UNL     1       2.471   6.353  18.223  0.00  0.00    +0.000 A 
ATOM     19  C   UNL     1       2.453   6.607  19.591  0.00  0.00    +0.000 A 
ATOM     20  C   UNL     1       1.973   5.635  20.475  0.00  0.00    +0.000 A 
ENDBRANCH  14  15
ENDBRANCH  13  14
ENDBRANCH  12  13
ENDBRANCH   2  12
TORSDOF 6
ENDMDL
MODEL 3
REMARK VINA RESULT:      -6.5      0.610      1.214
REMARK  Name = 
REMARK  6 active torsions:
REMARK  status: ('A' for Active; 'I' for Inactive)
REMARK    1  A    between atoms: C_2  and  C_3
REMARK    2  A    between atoms: C_2  and  O_12
REMARK    3  A    between atoms: C_4  and  C_5
REMARK    4  A    between atoms: O_12  and  C_13
REMARK    5  A    between atoms: C_13  and  C_14
REMARK    6  A    between atoms: C_14  and  C_15
REMARK                            x       y       z     vdW  Elec       q    Type
REMARK                         _______ _______ _______ _____ _____    ______ ____
ROOT
ATOM      1  O   UNL     1       5.162   1.609  21.175  0.00  0.00    +0.000 OA
ATOM      2  C   UNL     1       4.291   2.246  20.605  0.00  0.00    +0.000 C 
ENDROOT
BRANCH   2   3
ATOM      3  C   UNL     1       4.543   3.039  19.381  0.00  0.00    +0.000 C 
ATOM      4  C   UNL     1       5.381   4.090  19.361  0.00  0.00    +0.000 C 
BRANCH   4   5
ATOM      5  C   UNL     1       5.838   4.775  18.148  0.00  0.00    +0.000 A 
ATOM      6  C   UNL     1       5.575   4.289  16.861  0.00  0.00    +0.000 A 
ATOM      7  C   UNL     1       6.042   4.971  15.737  0.00  0.00    +0.000 A 
ATOM      8  C   UNL     1       6.767   6.153  15.886  0.00  0.00    +0.000 A 
ATOM      9  C   UNL     1       7.018   6.650  17.161  0.00  0.00    +0.000 A 
ATOM     10 CL   UNL     1       7.909   8.110  17.349  0.00  0.00    +0.000 Cl
ATOM     11  C   UNL     1       6.555   5.972  18.289  0.00  0.00    +0.000 A 
ENDBRANCH   4   5
ENDBRANCH   2   3
BRANCH   2  12
ATOM     12  O   UNL     1       3.041   2.474  21.050  0.00  0.00    +0.000 OA
BRANCH  12  13
ATOM     13  C   UNL     1       1.974   2.170  20.142  0.00  0.00    +0.000 C 
BRANCH  13  14
ATOM     14  C   UNL     1       0.989   3.342  20.221  0.00  0.00    +0.000 C 
BRANCH  14  15
ATOM     15  C   UNL     1       1.572   4.632  19.679  0.00  0.00    +0.000 A 
ATOM     16  C   UNL     1       1.842   5.704  20.539  0.00  0.00    +0.000 A 
ATOM     17  C   UNL     1       2.325   6.913  20.038  0.00  0.00    +0.000 A 
ATOM     18  C   UNL     1       2.555   7.060  18.671  0.00  0.00    +0.000 A 
ATOM     19  C   UNL     1       2.314   5.997  17.806  0.00  0.00    +0.000 A 
ATOM     20  C   UNL     1       1.831   4.784  18.308  0.00  0.00    +0.000 A 
ENDBRANCH  14  15
ENDBRANCH  13  14
ENDBRANCH  12  13
ENDBRANCH   2  12
TORSDOF 6
ENDMDL
MODEL 4
REMARK VINA RESULT:      -6.4      3.217      5.411
REMARK  Name = 
REMARK  6 active torsions:
REMARK  status: ('A' for Active; 'I' for Inactive)
REMARK    1  A    between atoms: C_2  and  C_3
REMARK    2  A    between atoms: C_2  and  O_12
REMARK    3  A    between atoms: C_4  and  C_5
REMARK    4  A    between atoms: O_12  and  C_13
REMARK    5  A    between atoms: C_13  and  C_14
REMARK    6  A    between atoms: C_14  and  C_15
REMARK                            x       y       z     vdW  Elec       q    Type
REMARK                         _______ _______ _______ _____ _____    ______ ____
ROOT
ATOM      1  O   UNL     1       6.574   6.434  16.579  0.00  0.00    +0.000 OA
ATOM      2  C   UNL     1       5.389   6.240  16.791  0.00  0.00    +0.000 C 
ENDROOT
BRANCH   2   3
ATOM      3  C   UNL     1       4.597   7.050  17.743  0.00  0.00    +0.000 C 
ATOM      4  C   UNL     1       3.274   7.243  17.602  0.00  0.00    +0.000 C 
BRANCH   4   5
ATOM      5  C   UNL     1       2.402   7.846  18.615  0.00  0.00    +0.000 A 
ATOM      6  C   UNL     1       2.221   7.287  19.886  0.00  0.00    +0.000 A 
ATOM      7  C   UNL     1       1.370   7.892  20.812  0.00  0.00    +0.000 A 
ATOM      8  C   UNL     1       0.701   9.070  20.482  0.00  0.00    +0.000 A 
ATOM      9  C   UNL     1       0.888   9.639  19.226  0.00  0.00    +0.000 A 
ATOM     10 CL   UNL     1       0.065  11.094  18.817  0.00  0.00    +0.000 Cl
ATOM     11  C   UNL     1       1.736   9.039  18.296  0.00  0.00    +0.000 A 
ENDBRANCH   4   5
ENDBRANCH   2   3
BRANCH   2  12
ATOM     12  O   UNL     1       4.654   5.200  16.353  0.00  0.00    +0.000 OA
BRANCH  12  13
ATOM     13  C   UNL     1       4.739   3.990  17.116  0.00  0.00    +0.000 C 
BRANCH  13  14
ATOM     14  C   UNL     1       3.324   3.404  17.161  0.00  0.00    +0.000 C 
BRANCH  14  15
ATOM     15  C   UNL     1       2.727   3.429  18.555  0.00  0.00    +0.000 A 
ATOM     16  C   UNL     1       3.456   2.942  19.647  0.00  0.00    +0.000 A 
ATOM     17  C   UNL     1       2.890   2.909  20.921  0.00  0.00    +0.000 A 
ATOM     18  C   UNL     1       1.591   3.374  21.121  0.00  0.00    +0.000 A 
ATOM     19  C   UNL     1       0.861   3.883  20.050  0.00  0.00    +0.000 A 
ATOM     20  C   UNL     1       1.429   3.917  18.772  0.00  0.00    +0.000 A 
ENDBRANCH  14  15
ENDBRANCH  13  14
ENDBRANCH  12  13
ENDBRANCH   2  12
TORSDOF 6
ENDMDL
MODEL 5
REMARK VINA RESULT:      -6.4      4.538      6.204
REMARK  Name = 
REMARK  6 active torsions:
REMARK  status: ('A' for Active; 'I' for Inactive)
REMARK    1  A    between atoms: C_2  and  C_3
REMARK    2  A    between atoms: C_2  and  O_12
REMARK    3  A    between atoms: C_4  and  C_5
REMARK    4  A    between atoms: O_12  and  C_13
REMARK    5  A    between atoms: C_13  and  C_14
REMARK    6  A    between atoms: C_14  and  C_15
REMARK                            x       y       z     vdW  Elec       q    Type
REMARK                         _______ _______ _______ _____ _____    ______ ____
ROOT
ATOM      1  O   UNL     1       7.777   6.704  16.302  0.00  0.00    +0.000 OA
ATOM      2  C   UNL     1       7.498   7.254  17.355  0.00  0.00    +0.000 C 
ENDROOT
BRANCH   2   3
ATOM      3  C   UNL     1       7.938   8.627  17.689  0.00  0.00    +0.000 C 
ATOM      4  C   UNL     1       8.626   8.914  18.807  0.00  0.00    +0.000 C 
BRANCH   4   5
ATOM      5  C   UNL     1       9.274  10.200  19.086  0.00  0.00    +0.000 A 
ATOM      6  C   UNL     1       9.467  10.682  20.386  0.00  0.00    +0.000 A 
ATOM      7  C   UNL     1      10.077  11.919  20.600  0.00  0.00    +0.000 A 
ATOM      8  C   UNL     1      10.513  12.681  19.517  0.00  0.00    +0.000 A 
ATOM      9  C   UNL     1      10.338  12.200  18.222  0.00  0.00    +0.000 A 
ATOM     10 CL   UNL     1      10.877  13.137  16.883  0.00  0.00    +0.000 Cl
ATOM     11  C   UNL     1       9.727  10.966  18.002  0.00  0.00    +0.000 A 
ENDBRANCH   4   5
ENDBRANCH   2   3
BRANCH   2  12
ATOM     12  O   UNL     1       6.913   6.687  18.427  0.00  0.00    +0.000 OA
BRANCH  12  13
ATOM     13  C   UNL     1       6.205   5.462  18.196  0.00  0.00    +0.000 C 
BRANCH  13  14
ATOM     14  C   UNL     1       4.833   5.852  17.636  0.00  0.00    +0.000 C 
BRANCH  14  15
ATOM     15  C   UNL     1       3.800   4.755  17.807  0.00  0.00    +0.000 A 
ATOM     16  C   UNL     1       4.181   3.408  17.754  0.00  0.00    +0.000 A 
ATOM     17  C   UNL     1       3.227   2.396  17.853  0.00  0.00    +0.000 A 
ATOM     18  C   UNL     1       1.881   2.718  18.019  0.00  0.00    +0.000 A 
ATOM     19  C   UNL     1       1.489   4.051  18.097  0.00  0.00    +0.000 A 
ATOM     20  C   UNL     1       2.445   5.067  17.998  0.00  0.00    +0.000 A 
ENDBRANCH  14  15
ENDBRANCH  13  14
ENDBRANCH  12  13
ENDBRANCH   2  12
TORSDOF 6
ENDMDL
MODEL 6
REMARK VINA RESULT:      -6.3      3.287      5.466
REMARK  Name = 
REMARK  6 active torsions:
REMARK  status: ('A' for Active; 'I' for Inactive)
REMARK    1  A    between atoms: C_2  and  C_3
REMARK    2  A    between atoms: C_2  and  O_12
REMARK    3  A    between atoms: C_4  and  C_5
REMARK    4  A    between atoms: O_12  and  C_13
REMARK    5  A    between atoms: C_13  and  C_14
REMARK    6  A    between atoms: C_14  and  C_15
REMARK                            x       y       z     vdW  Elec       q    Type
REMARK                         _______ _______ _______ _____ _____    ______ ____
ROOT
ATOM      1  O   UNL     1       5.258   5.916  15.711  0.00  0.00    +0.000 OA
ATOM      2  C   UNL     1       4.766   6.003  16.825  0.00  0.00    +0.000 C 
ENDROOT
BRANCH   2   3
ATOM      3  C   UNL     1       3.949   7.159  17.257  0.00  0.00    +0.000 C 
ATOM      4  C   UNL     1       2.833   7.021  17.993  0.00  0.00    +0.000 C 
BRANCH   4   5
ATOM      5  C   UNL     1       2.107   8.123  18.631  0.00  0.00    +0.000 A 
ATOM      6  C   UNL     1       1.709   9.270  17.933  0.00  0.00    +0.000 A 
ATOM      7  C   UNL     1       1.031  10.299  18.588  0.00  0.00    +0.000 A 
ATOM      8  C   UNL     1       0.732  10.187  19.945  0.00  0.00    +0.000 A 
ATOM      9  C   UNL     1       1.111   9.043  20.641  0.00  0.00    +0.000 A 
ATOM     10 CL   UNL     1       0.741   8.901  22.316  0.00  0.00    +0.000 Cl
ATOM     11  C   UNL     1       1.790   8.012  19.993  0.00  0.00    +0.000 A 
ENDBRANCH   4   5
ENDBRANCH   2   3
BRANCH   2  12
ATOM     12  O   UNL     1       5.000   5.190  17.872  0.00  0.00    +0.000 OA
BRANCH  12  13
ATOM     13  C   UNL     1       4.957   3.782  17.610  0.00  0.00    +0.000 C 
BRANCH  13  14
ATOM     14  C   UNL     1       3.477   3.411  17.469  0.00  0.00    +0.000 C 
BRANCH  14  15
ATOM     15  C   UNL     1       2.764   3.335  18.805  0.00  0.00    +0.000 A 
ATOM     16  C   UNL     1       1.483   3.881  18.957  0.00  0.00    +0.000 A 
ATOM     17  C   UNL     1       0.847   3.865  20.198  0.00  0.00    +0.000 A 
ATOM     18  C   UNL     1       1.480   3.293  21.300  0.00  0.00    +0.000 A 
ATOM     19  C   UNL     1       2.743   2.725  21.161  0.00  0.00    +0.000 A 
ATOM     20  C   UNL     1       3.381   2.740  19.916  0.00  0.00    +0.000 A 
ENDBRANCH  14  15
ENDBRANCH  13  14
ENDBRANCH  12  13
ENDBRANCH   2  12
TORSDOF 6
ENDMDL
MODEL 7
REMARK VINA RESULT:      -6.3      2.962      5.043
REMARK  Name = 
REMARK  6 active torsions:
REMARK  status: ('A' for Active; 'I' for Inactive)
REMARK    1  A    between atoms: C_2  and  C_3
REMARK    2  A    between atoms: C_2  and  O_12
REMARK    3  A    between atoms: C_4  and  C_5
REMARK    4  A    between atoms: O_12  and  C_13
REMARK    5  A    between atoms: C_13  and  C_14
REMARK    6  A    between atoms: C_14  and  C_15
REMARK                            x       y       z     vdW  Elec       q    Type
REMARK                         _______ _______ _______ _____ _____    ______ ____
ROOT
ATOM      1  O   UNL     1       5.141   5.496  15.600  0.00  0.00    +0.000 OA
ATOM      2  C   UNL     1       5.094   5.411  16.816  0.00  0.00    +0.000 C 
ENDROOT
BRANCH   2   3
ATOM      3  C   UNL     1       4.438   6.426  17.670  0.00  0.00    +0.000 C 
ATOM      4  C   UNL     1       3.106   6.609  17.682  0.00  0.00    +0.000 C 
BRANCH   4   5
ATOM      5  C   UNL     1       2.382   7.436  18.653  0.00  0.00    +0.000 A 
ATOM      6  C   UNL     1       2.155   7.029  19.972  0.00  0.00    +0.000 A 
ATOM      7  C   UNL     1       1.449   7.847  20.856  0.00  0.00    +0.000 A 
ATOM      8  C   UNL     1       0.974   9.088  20.432  0.00  0.00    +0.000 A 
ATOM      9  C   UNL     1       1.210   9.506  19.126  0.00  0.00    +0.000 A 
ATOM     10 CL   UNL     1       0.628  11.038  18.601  0.00  0.00    +0.000 Cl
ATOM     11  C   UNL     1       1.914   8.692  18.238  0.00  0.00    +0.000 A 
ENDBRANCH   4   5
ENDBRANCH   2   3
BRANCH   2  12
ATOM     12  O   UNL     1       5.741   4.515  17.584  0.00  0.00    +0.000 OA
BRANCH  12  13
ATOM     13  C   UNL     1       5.458   4.554  18.989  0.00  0.00    +0.000 C 
BRANCH  13  14
ATOM     14  C   UNL     1       4.851   3.192  19.347  0.00  0.00    +0.000 C 
BRANCH  14  15
ATOM     15  C   UNL     1       3.346   3.252  19.521  0.00  0.00    +0.000 A 
ATOM     16  C   UNL     1       2.501   3.204  18.405  0.00  0.00    +0.000 A 
ATOM     17  C   UNL     1       1.119   3.316  18.555  0.00  0.00    +0.000 A 
ATOM     18  C   UNL     1       0.564   3.466  19.825  0.00  0.00    +0.000 A 
ATOM     19  C   UNL     1       1.388   3.492  20.947  0.00  0.00    +0.000 A 
ATOM     20  C   UNL     1       2.774   3.379  20.797  0.00  0.00    +0.000 A 
ENDBRANCH  14  15
ENDBRANCH  13  14
ENDBRANCH  12  13
ENDBRANCH   2  12
TORSDOF 6
ENDMDL
MODEL 8
REMARK VINA RESULT:      -6.3      3.189      4.589
REMARK  Name = 
REMARK  6 active torsions:
REMARK  status: ('A' for Active; 'I' for Inactive)
REMARK    1  A    between atoms: C_2  and  C_3
REMARK    2  A    between atoms: C_2  and  O_12
REMARK    3  A    between atoms: C_4  and  C_5
REMARK    4  A    between atoms: O_12  and  C_13
REMARK    5  A    between atoms: C_13  and  C_14
REMARK    6  A    between atoms: C_14  and  C_15
REMARK                            x       y       z     vdW  Elec       q    Type
REMARK                         _______ _______ _______ _____ _____    ______ ____
ROOT
ATOM      1  O   UNL     1       6.233   4.731  19.222  0.00  0.00    +0.000 OA
ATOM      2  C   UNL     1       5.893   5.212  18.154  0.00  0.00    +0.000 C 
ENDROOT
BRANCH   2   3
ATOM      3  C   UNL     1       6.399   4.720  16.852  0.00  0.00    +0.000 C 
ATOM      4  C   UNL     1       5.717   4.880  15.705  0.00  0.00    +0.000 C 
BRANCH   4   5
ATOM      5  C   UNL     1       6.253   4.614  14.367  0.00  0.00    +0.000 A 
ATOM      6  C   UNL     1       7.347   5.311  13.839  0.00  0.00    +0.000 A 
ATOM      7  C   UNL     1       7.814   5.030  12.554  0.00  0.00    +0.000 A 
ATOM      8  C   UNL     1       7.199   4.041  11.787  0.00  0.00    +0.000 A 
ATOM      9  C   UNL     1       6.121   3.334  12.311  0.00  0.00    +0.000 A 
ATOM     10 CL   UNL     1       5.363   2.110  11.369  0.00  0.00    +0.000 Cl
ATOM     11  C   UNL     1       5.650   3.610  13.595  0.00  0.00    +0.000 A 
ENDBRANCH   4   5
ENDBRANCH   2   3
BRANCH   2  12
ATOM     12  O   UNL     1       5.166   6.330  17.970  0.00  0.00    +0.000 OA
BRANCH  12  13
ATOM     13  C   UNL     1       3.921   6.405  18.675  0.00  0.00    +0.000 C 
BRANCH  13  14
ATOM     14  C   UNL     1       3.007   5.341  18.057  0.00  0.00    +0.000 C 
BRANCH  14  15
ATOM     15  C   UNL     1       2.333   4.472  19.103  0.00  0.00    +0.000 A 
ATOM     16  C   UNL     1       2.756   4.513  20.437  0.00  0.00    +0.000 A 
ATOM     17  C   UNL     1       2.179   3.675  21.391  0.00  0.00    +0.000 A 
ATOM     18  C   UNL     1       1.164   2.794  21.024  0.00  0.00    +0.000 A 
ATOM     19  C   UNL     1       0.715   2.758  19.707  0.00  0.00    +0.000 A 
ATOM     20  C   UNL     1       1.293   3.599  18.750  0.00  0.00    +0.000 A 
ENDBRANCH  14  15
ENDBRANCH  13  14
ENDBRANCH  12  13
ENDBRANCH   2  12
TORSDOF 6
ENDMDL
MODEL 9
REMARK VINA RESULT:      -6.3      4.922      6.688
REMARK  Name = 
REMARK  6 active torsions:
REMARK  status: ('A' for Active; 'I' for Inactive)
REMARK    1  A    between atoms: C_2  and  C_3
REMARK    2  A    between atoms: C_2  and  O_12
REMARK    3  A    between atoms: C_4  and  C_5
REMARK    4  A    between atoms: O_12  and  C_13
REMARK    5  A    between atoms: C_13  and  C_14
REMARK    6  A    between atoms: C_14  and  C_15
REMARK                            x       y       z     vdW  Elec       q    Type
REMARK                         _______ _______ _______ _____ _____    ______ ____
ROOT
ATOM      1  O   UNL     1       8.097   6.822  18.710  0.00  0.00    +0.000 OA
ATOM      2  C   UNL     1       7.870   7.644  17.837  0.00  0.00    +0.000 C 
ENDROOT
BRANCH   2   3
ATOM      3  C   UNL     1       8.113   9.093  18.013  0.00  0.00    +0.000 C 
ATOM      4  C   UNL     1       9.035   9.574  18.865  0.00  0.00    +0.000 C 
BRANCH   4   5
ATOM      5  C   UNL     1       9.472  10.972  18.926  0.00  0.00    +0.000 A 
ATOM      6  C   UNL     1       9.262  11.782  20.048  0.00  0.00    +0.000 A 
ATOM      7  C   UNL     1       9.686  13.112  20.053  0.00  0.00    +0.000 A 
ATOM      8  C   UNL     1      10.336  13.643  18.940  0.00  0.00    +0.000 A 
ATOM      9  C   UNL     1      10.562  12.839  17.827  0.00  0.00    +0.000 A 
ATOM     10 CL   UNL     1      11.368  13.491  16.452  0.00  0.00    +0.000 Cl
ATOM     11  C   UNL     1      10.140  11.510  17.815  0.00  0.00    +0.000 A 
ENDBRANCH   4   5
ENDBRANCH   2   3
BRANCH   2  12
ATOM     12  O   UNL     1       7.232   7.424  16.673  0.00  0.00    +0.000 OA
BRANCH  12  13
ATOM     13  C   UNL     1       6.308   6.329  16.647  0.00  0.00    +0.000 C 
BRANCH  13  14
ATOM     14  C   UNL     1       5.017   6.833  17.302  0.00  0.00    +0.000 C 
BRANCH  14  15
ATOM     15  C   UNL     1       3.966   5.747  17.431  0.00  0.00    +0.000 A 
ATOM     16  C   UNL     1       2.734   6.023  18.038  0.00  0.00    +0.000 A 
ATOM     17  C   UNL     1       1.787   5.014  18.211  0.00  0.00    +0.000 A 
ATOM     18  C   UNL     1       2.056   3.720  17.769  0.00  0.00    +0.000 A 
ATOM     19  C   UNL     1       3.266   3.435  17.143  0.00  0.00    +0.000 A 
ATOM     20  C   UNL     1       4.216   4.446  16.968  0.00  0.00    +0.000 A 
ENDBRANCH  14  15
ENDBRANCH  13  14
ENDBRANCH  12  13
ENDBRANCH   2  12
TORSDOF 6
ENDMDL
