MODEL 1
REMARK VINA RESULT:      -8.0      0.000      0.000
REMARK  Name = 
REMARK  4 active torsions:
REMARK  status: ('A' for Active; 'I' for Inactive)
REMARK    1  A    between atoms: C_2  and  C_3
REMARK    2  A    between atoms: C_3  and  S_4
REMARK    3  A    between atoms: S_4  and  C_5
REMARK    4  A    between atoms: N_14  and  C_15
REMARK                            x       y       z     vdW  Elec       q    Type
REMARK                         _______ _______ _______ _____ _____    ______ ____
ROOT
ATOM      1  C   UNL     1       2.193   6.224  20.257  0.00  0.00    +0.000 A 
ATOM      2  N   UNL     1       1.460   6.780  21.170  0.00  0.00    +0.000 NA
ATOM      3  C   UNL     1       1.015   8.022  20.857  0.00  0.00    +0.000 A 
ATOM      4  S   UNL     1      -0.009   8.886  21.914  0.00  0.00    +0.000 S 
ATOM      5  C   UNL     1      -0.104  10.196  20.835  0.00  0.00    +0.000 A 
ATOM      6  C   UNL     1       0.622   9.992  19.677  0.00  0.00    +0.000 A 
ATOM      7  C   UNL     1       1.279   8.724  19.703  0.00  0.00    +0.000 A 
ATOM      8  C   UNL     1       2.136   8.113  18.706  0.00  0.00    +0.000 A 
ATOM      9  O   UNL     1       2.465   8.716  17.686  0.00  0.00    +0.000 OA
ATOM     10  N   UNL     1       2.554   6.817  19.034  0.00  0.00    +0.000 N 
ATOM     11  C   UNL     1       0.688  11.018  18.582  0.00  0.00    +0.000 C 
ATOM     12  C   UNL     1      -0.396  12.093  18.742  0.00  0.00    +0.000 C 
ATOM     13  C   UNL     1      -0.523  12.561  20.198  0.00  0.00    +0.000 C 
ATOM     14  C   UNL     1      -0.933  11.406  21.125  0.00  0.00    +0.000 C 
ENDROOT
BRANCH  10  15
ATOM     15  C   UNL     1       3.275   6.117  18.038  0.00  0.00    +0.000 A 
ATOM     16  C   UNL     1       2.806   4.869  17.601  0.00  0.00    +0.000 A 
ATOM     17  C   UNL     1       3.580   4.103  16.732  0.00  0.00    +0.000 A 
ATOM     18  C   UNL     1       4.807   4.591  16.288  0.00  0.00    +0.000 A 
ATOM     19  C   UNL     1       5.208   5.881  16.636  0.00  0.00    +0.000 A 
ATOM     20  C   UNL     1       4.449   6.652  17.509  0.00  0.00    +0.000 A 
ATOM     21  O   UNL     1       6.369   6.432  16.168  0.00  0.00    +0.000 OA
ATOM     22  C   UNL     1       7.355   5.404  16.110  0.00  0.00    +0.000 C 
ATOM     23  C   UNL     1       6.898   4.212  15.275  0.00  0.00    +0.000 C 
ATOM     24  O   UNL     1       5.578   3.734  15.559  0.00  0.00    +0.000 OA
ENDBRANCH  10  15
BRANCH   1  25
ATOM     25  S   UNL     1       2.692   4.571  20.617  0.00  0.00    +0.000 S 
BRANCH  25  26
ATOM     26  C   UNL     1       1.020   3.840  20.756  0.00  0.00    +0.000 C 
BRANCH  26  28
ATOM     27  N   UNL     1       0.497   2.233  18.547  0.00  0.00    +0.000 NA
ATOM     28  C   UNL     1       0.734   2.961  19.549  0.00  0.00    +0.000 C 
ENDBRANCH  26  28
ENDBRANCH  25  26
ENDBRANCH   1  25
TORSDOF 4
ENDMDL
MODEL 2
REMARK VINA RESULT:      -7.4      1.090      1.428
REMARK  Name = 
REMARK  4 active torsions:
REMARK  status: ('A' for Active; 'I' for Inactive)
REMARK    1  A    between atoms: C_2  and  C_3
REMARK    2  A    between atoms: C_3  and  S_4
REMARK    3  A    between atoms: S_4  and  C_5
REMARK    4  A    between atoms: N_14  and  C_15
REMARK                            x       y       z     vdW  Elec       q    Type
REMARK                         _______ _______ _______ _____ _____    ______ ____
ROOT
ATOM      1  C   UNL     1       2.189   5.813  20.520  0.00  0.00    +0.000 A 
ATOM      2  N   UNL     1       1.222   6.375  21.176  0.00  0.00    +0.000 NA
ATOM      3  C   UNL     1       0.924   7.634  20.771  0.00  0.00    +0.000 A 
ATOM      4  S   UNL     1      -0.358   8.509  21.481  0.00  0.00    +0.000 S 
ATOM      5  C   UNL     1      -0.086   9.839  20.458  0.00  0.00    +0.000 A 
ATOM      6  C   UNL     1       0.959   9.633  19.576  0.00  0.00    +0.000 A 
ATOM      7  C   UNL     1       1.547   8.347  19.774  0.00  0.00    +0.000 A 
ATOM      8  C   UNL     1       2.657   7.729  19.075  0.00  0.00    +0.000 A 
ATOM      9  O   UNL     1       3.299   8.338  18.222  0.00  0.00    +0.000 OA
ATOM     10  N   UNL     1       2.924   6.416  19.484  0.00  0.00    +0.000 N 
ATOM     11  C   UNL     1       1.383  10.675  18.581  0.00  0.00    +0.000 C 
ATOM     12  C   UNL     1       0.326  11.778  18.425  0.00  0.00    +0.000 C 
ATOM     13  C   UNL     1      -0.235  12.225  19.782  0.00  0.00    +0.000 C 
ATOM     14  C   UNL     1      -0.937  11.067  20.508  0.00  0.00    +0.000 C 
ENDROOT
BRANCH  10  15
ATOM     15  C   UNL     1       3.902   5.712  18.742  0.00  0.00    +0.000 A 
ATOM     16  C   UNL     1       5.169   5.498  19.307  0.00  0.00    +0.000 A 
ATOM     17  C   UNL     1       6.186   4.940  18.536  0.00  0.00    +0.000 A 
ATOM     18  C   UNL     1       5.933   4.581  17.214  0.00  0.00    +0.000 A 
ATOM     19  C   UNL     1       4.640   4.690  16.701  0.00  0.00    +0.000 A 
ATOM     20  C   UNL     1       3.618   5.254  17.456  0.00  0.00    +0.000 A 
ATOM     21  O   UNL     1       4.326   4.284  15.433  0.00  0.00    +0.000 OA
ATOM     22  C   UNL     1       5.427   4.597  14.582  0.00  0.00    +0.000 C 
ATOM     23  C   UNL     1       6.733   3.987  15.081  0.00  0.00    +0.000 C 
ATOM     24  O   UNL     1       7.006   4.177  16.474  0.00  0.00    +0.000 OA
ENDBRANCH  10  15
BRANCH   1  25
ATOM     25  S   UNL     1       2.516   4.141  20.976  0.00  0.00    +0.000 S 
BRANCH  25  26
ATOM     26  C   UNL     1       1.068   3.380  20.154  0.00  0.00    +0.000 C 
BRANCH  26  28
ATOM     27  N   UNL     1       1.845   2.205  17.757  0.00  0.00    +0.000 NA
ATOM     28  C   UNL     1       1.493   2.738  18.844  0.00  0.00    +0.000 C 
ENDBRANCH  26  28
ENDBRANCH  25  26
ENDBRANCH   1  25
TORSDOF 4
ENDMDL
MODEL 3
REMARK VINA RESULT:      -7.3      1.749      2.660
REMARK  Name = 
REMARK  4 active torsions:
REMARK  status: ('A' for Active; 'I' for Inactive)
REMARK    1  A    between atoms: C_2  and  C_3
REMARK    2  A    between atoms: C_3  and  S_4
REMARK    3  A    between atoms: S_4  and  C_5
REMARK    4  A    between atoms: N_14  and  C_15
REMARK                            x       y       z     vdW  Elec       q    Type
REMARK                         _______ _______ _______ _____ _____    ______ ____
ROOT
ATOM      1  C   UNL     1       4.045   5.068  19.095  0.00  0.00    +0.000 A 
ATOM      2  N   UNL     1       3.225   5.383  20.049  0.00  0.00    +0.000 NA
ATOM      3  C   UNL     1       2.570   6.556  19.864  0.00  0.00    +0.000 A 
ATOM      4  S   UNL     1       1.409   7.106  20.988  0.00  0.00    +0.000 S 
ATOM      5  C   UNL     1       1.088   8.491  20.057  0.00  0.00    +0.000 A 
ATOM      6  C   UNL     1       1.841   8.547  18.899  0.00  0.00    +0.000 A 
ATOM      7  C   UNL     1       2.709   7.418  18.800  0.00  0.00    +0.000 A 
ATOM      8  C   UNL     1       3.661   7.080  17.760  0.00  0.00    +0.000 A 
ATOM      9  O   UNL     1       3.882   7.840  16.820  0.00  0.00    +0.000 OA
ATOM     10  N   UNL     1       4.298   5.847  17.952  0.00  0.00    +0.000 N 
ATOM     11  C   UNL     1       1.728   9.685  17.925  0.00  0.00    +0.000 C 
ATOM     12  C   UNL     1       0.473  10.531  18.179  0.00  0.00    +0.000 C 
ATOM     13  C   UNL     1       0.264  10.804  19.675  0.00  0.00    +0.000 C 
ATOM     14  C   UNL     1       0.060   9.500  20.461  0.00  0.00    +0.000 C 
ENDROOT
BRANCH  10  15
ATOM     15  C   UNL     1       5.132   5.399  16.901  0.00  0.00    +0.000 A 
ATOM     16  C   UNL     1       6.469   5.821  16.858  0.00  0.00    +0.000 A 
ATOM     17  C   UNL     1       7.260   5.510  15.753  0.00  0.00    +0.000 A 
ATOM     18  C   UNL     1       6.721   4.765  14.707  0.00  0.00    +0.000 A 
ATOM     19  C   UNL     1       5.427   4.252  14.814  0.00  0.00    +0.000 A 
ATOM     20  C   UNL     1       4.626   4.562  15.906  0.00  0.00    +0.000 A 
ATOM     21  O   UNL     1       4.880   3.455  13.847  0.00  0.00    +0.000 OA
ATOM     22  C   UNL     1       5.321   3.933  12.577  0.00  0.00    +0.000 C 
ATOM     23  C   UNL     1       6.842   4.000  12.484  0.00  0.00    +0.000 C 
ATOM     24  O   UNL     1       7.499   4.619  13.596  0.00  0.00    +0.000 OA
ENDBRANCH  10  15
BRANCH   1  25
ATOM     25  S   UNL     1       4.825   3.497  19.282  0.00  0.00    +0.000 S 
BRANCH  25  26
ATOM     26  C   UNL     1       3.304   2.479  19.339  0.00  0.00    +0.000 C 
BRANCH  26  28
ATOM     27  N   UNL     1       1.524   3.321  17.376  0.00  0.00    +0.000 NA
ATOM     28  C   UNL     1       2.330   2.939  18.266  0.00  0.00    +0.000 C 
ENDBRANCH  26  28
ENDBRANCH  25  26
ENDBRANCH   1  25
TORSDOF 4
ENDMDL
MODEL 4
REMARK VINA RESULT:      -7.2      3.799      6.186
REMARK  Name = 
REMARK  4 active torsions:
REMARK  status: ('A' for Active; 'I' for Inactive)
REMARK    1  A    between atoms: C_2  and  C_3
REMARK    2  A    between atoms: C_3  and  S_4
REMARK    3  A    between atoms: S_4  and  C_5
REMARK    4  A    between atoms: N_14  and  C_15
REMARK                            x       y       z     vdW  Elec       q    Type
REMARK                         _______ _______ _______ _____ _____    ______ ____
ROOT
ATOM      1  C   UNL     1      -1.810  10.914  18.884  0.00  0.00    +0.000 A 
ATOM      2  N   UNL     1      -2.815  11.709  19.085  0.00  0.00    +0.000 NA
ATOM      3  C   UNL     1      -2.719  12.465  20.207  0.00  0.00    +0.000 A 
ATOM      4  S   UNL     1      -3.922  13.609  20.605  0.00  0.00    +0.000 S 
ATOM      5  C   UNL     1      -3.077  14.088  22.000  0.00  0.00    +0.000 A 
ATOM      6  C   UNL     1      -1.889  13.402  22.172  0.00  0.00    +0.000 A 
ATOM      7  C   UNL     1      -1.695  12.450  21.125  0.00  0.00    +0.000 A 
ATOM      8  C   UNL     1      -0.596  11.528  20.916  0.00  0.00    +0.000 A 
ATOM      9  O   UNL     1       0.315  11.417  21.734  0.00  0.00    +0.000 OA
ATOM     10  N   UNL     1      -0.697  10.783  19.733  0.00  0.00    +0.000 N 
ATOM     11  C   UNL     1      -0.979  13.656  23.339  0.00  0.00    +0.000 C 
ATOM     12  C   UNL     1      -1.333  14.962  24.065  0.00  0.00    +0.000 C 
ATOM     13  C   UNL     1      -2.849  15.116  24.250  0.00  0.00    +0.000 C 
ATOM     14  C   UNL     1      -3.578  15.173  22.899  0.00  0.00    +0.000 C 
ENDROOT
BRANCH  10  15
ATOM     15  C   UNL     1       0.413   9.970  19.405  0.00  0.00    +0.000 A 
ATOM     16  C   UNL     1       1.193  10.293  18.284  0.00  0.00    +0.000 A 
ATOM     17  C   UNL     1       2.196   9.423  17.863  0.00  0.00    +0.000 A 
ATOM     18  C   UNL     1       2.429   8.245  18.569  0.00  0.00    +0.000 A 
ATOM     19  C   UNL     1       1.727   7.991  19.748  0.00  0.00    +0.000 A 
ATOM     20  C   UNL     1       0.718   8.847  20.174  0.00  0.00    +0.000 A 
ATOM     21  O   UNL     1       1.970   6.885  20.514  0.00  0.00    +0.000 OA
ATOM     22  C   UNL     1       2.253   5.794  19.640  0.00  0.00    +0.000 C 
ATOM     23  C   UNL     1       3.400   6.103  18.684  0.00  0.00    +0.000 C 
ATOM     24  O   UNL     1       3.323   7.371  18.022  0.00  0.00    +0.000 OA
ENDBRANCH  10  15
BRANCH   1  25
ATOM     25  S   UNL     1      -1.882  10.001  17.377  0.00  0.00    +0.000 S 
BRANCH  25  26
ATOM     26  C   UNL     1      -3.088  11.069  16.506  0.00  0.00    +0.000 C 
BRANCH  26  28
ATOM     27  N   UNL     1      -3.514  10.114  13.929  0.00  0.00    +0.000 NA
ATOM     28  C   UNL     1      -3.321  10.547  15.098  0.00  0.00    +0.000 C 
ENDBRANCH  26  28
ENDBRANCH  25  26
ENDBRANCH   1  25
TORSDOF 4
ENDMDL
MODEL 5
REMARK VINA RESULT:      -7.2      4.604      9.964
REMARK  Name = 
REMARK  4 active torsions:
REMARK  status: ('A' for Active; 'I' for Inactive)
REMARK    1  A    between atoms: C_2  and  C_3
REMARK    2  A    between atoms: C_3  and  S_4
REMARK    3  A    between atoms: S_4  and  C_5
REMARK    4  A    between atoms: N_14  and  C_15
REMARK                            x       y       z     vdW  Elec       q    Type
REMARK                         _______ _______ _______ _____ _____    ______ ____
ROOT
ATOM      1  C   UNL     1      -0.018  12.471  19.788  0.00  0.00    +0.000 A 
ATOM      2  N   UNL     1       0.686  11.932  18.842  0.00  0.00    +0.000 NA
ATOM      3  C   UNL     1       1.061  10.651  19.079  0.00  0.00    +0.000 A 
ATOM      4  S   UNL     1       1.944   9.761  17.921  0.00  0.00    +0.000 S 
ATOM      5  C   UNL     1       1.956   8.381  18.914  0.00  0.00    +0.000 A 
ATOM      6  C   UNL     1       1.295   8.576  20.112  0.00  0.00    +0.000 A 
ATOM      7  C   UNL     1       0.784   9.906  20.202  0.00  0.00    +0.000 A 
ATOM      8  C   UNL     1       0.034  10.530  21.275  0.00  0.00    +0.000 A 
ATOM      9  O   UNL     1      -0.186   9.942  22.332  0.00  0.00    +0.000 OA
ATOM     10  N   UNL     1      -0.374  11.841  20.994  0.00  0.00    +0.000 N 
ATOM     11  C   UNL     1       1.183   7.495  21.149  0.00  0.00    +0.000 C 
ATOM     12  C   UNL     1       1.547   6.117  20.579  0.00  0.00    +0.000 C 
ATOM     13  C   UNL     1       2.802   6.180  19.697  0.00  0.00    +0.000 C 
ATOM     14  C   UNL     1       2.589   7.097  18.482  0.00  0.00    +0.000 C 
ENDROOT
BRANCH  10  15
ATOM     15  C   UNL     1      -1.227  12.451  21.943  0.00  0.00    +0.000 A 
ATOM     16  C   UNL     1      -2.611  12.229  21.864  0.00  0.00    +0.000 A 
ATOM     17  C   UNL     1      -3.475  12.938  22.696  0.00  0.00    +0.000 A 
ATOM     18  C   UNL     1      -2.957  13.849  23.614  0.00  0.00    +0.000 A 
ATOM     19  C   UNL     1      -1.576  13.975  23.763  0.00  0.00    +0.000 A 
ATOM     20  C   UNL     1      -0.703  13.281  22.934  0.00  0.00    +0.000 A 
ATOM     21  O   UNL     1      -1.020  14.802  24.700  0.00  0.00    +0.000 OA
ATOM     22  C   UNL     1      -1.825  15.976  24.788  0.00  0.00    +0.000 C 
ATOM     23  C   UNL     1      -3.284  15.652  25.092  0.00  0.00    +0.000 C 
ATOM     24  O   UNL     1      -3.861  14.612  24.294  0.00  0.00    +0.000 OA
ENDBRANCH  10  15
BRANCH   1  25
ATOM     25  S   UNL     1      -0.591  14.103  19.444  0.00  0.00    +0.000 S 
BRANCH  25  26
ATOM     26  C   UNL     1       1.040  14.936  19.449  0.00  0.00    +0.000 C 
BRANCH  26  28
ATOM     27  N   UNL     1       2.309  14.522  21.889  0.00  0.00    +0.000 NA
ATOM     28  C   UNL     1       1.734  14.710  20.783  0.00  0.00    +0.000 C 
ENDBRANCH  26  28
ENDBRANCH  25  26
ENDBRANCH   1  25
TORSDOF 4
ENDMDL
MODEL 6
REMARK VINA RESULT:      -7.1      1.792      2.638
REMARK  Name = 
REMARK  4 active torsions:
REMARK  status: ('A' for Active; 'I' for Inactive)
REMARK    1  A    between atoms: C_2  and  C_3
REMARK    2  A    between atoms: C_3  and  S_4
REMARK    3  A    between atoms: S_4  and  C_5
REMARK    4  A    between atoms: N_14  and  C_15
REMARK                            x       y       z     vdW  Elec       q    Type
REMARK                         _______ _______ _______ _____ _____    ______ ____
ROOT
ATOM      1  C   UNL     1       3.919   5.154  19.138  0.00  0.00    +0.000 A 
ATOM      2  N   UNL     1       3.079   5.473  20.073  0.00  0.00    +0.000 NA
ATOM      3  C   UNL     1       2.443   6.655  19.878  0.00  0.00    +0.000 A 
ATOM      4  S   UNL     1       1.260   7.212  20.975  0.00  0.00    +0.000 S 
ATOM      5  C   UNL     1       0.978   8.605  20.045  0.00  0.00    +0.000 A 
ATOM      6  C   UNL     1       1.760   8.659  18.906  0.00  0.00    +0.000 A 
ATOM      7  C   UNL     1       2.618   7.520  18.823  0.00  0.00    +0.000 A 
ATOM      8  C   UNL     1       3.592   7.178  17.805  0.00  0.00    +0.000 A 
ATOM      9  O   UNL     1       3.845   7.940  16.875  0.00  0.00    +0.000 OA
ATOM     10  N   UNL     1       4.210   5.937  18.007  0.00  0.00    +0.000 N 
ATOM     11  C   UNL     1       1.685   9.803  17.936  0.00  0.00    +0.000 C 
ATOM     12  C   UNL     1       0.432  10.662  18.163  0.00  0.00    +0.000 C 
ATOM     13  C   UNL     1       0.189  10.929  19.655  0.00  0.00    +0.000 C 
ATOM     14  C   UNL     1      -0.049   9.623  20.428  0.00  0.00    +0.000 C 
ENDROOT
BRANCH  10  15
ATOM     15  C   UNL     1       5.065   5.485  16.974  0.00  0.00    +0.000 A 
ATOM     16  C   UNL     1       6.392   5.939  16.934  0.00  0.00    +0.000 A 
ATOM     17  C   UNL     1       7.201   5.621  15.845  0.00  0.00    +0.000 A 
ATOM     18  C   UNL     1       6.691   4.839  14.811  0.00  0.00    +0.000 A 
ATOM     19  C   UNL     1       5.410   4.297  14.918  0.00  0.00    +0.000 A 
ATOM     20  C   UNL     1       4.590   4.613  15.995  0.00  0.00    +0.000 A 
ATOM     21  O   UNL     1       4.892   3.465  13.964  0.00  0.00    +0.000 OA
ATOM     22  C   UNL     1       5.334   3.924  12.688  0.00  0.00    +0.000 C 
ATOM     23  C   UNL     1       6.854   4.026  12.608  0.00  0.00    +0.000 C 
ATOM     24  O   UNL     1       7.484   4.687  13.711  0.00  0.00    +0.000 OA
ENDBRANCH  10  15
BRANCH   1  25
ATOM     25  S   UNL     1       4.677   3.574  19.336  0.00  0.00    +0.000 S 
BRANCH  25  26
ATOM     26  C   UNL     1       3.141   2.580  19.415  0.00  0.00    +0.000 C 
BRANCH  26  28
ATOM     27  N   UNL     1       2.112   2.624  21.998  0.00  0.00    +0.000 NA
ATOM     28  C   UNL     1       2.578   2.604  20.827  0.00  0.00    +0.000 C 
ENDBRANCH  26  28
ENDBRANCH  25  26
ENDBRANCH   1  25
TORSDOF 4
ENDMDL
MODEL 7
REMARK VINA RESULT:      -7.1      2.398      3.334
REMARK  Name = 
REMARK  4 active torsions:
REMARK  status: ('A' for Active; 'I' for Inactive)
REMARK    1  A    between atoms: C_2  and  C_3
REMARK    2  A    between atoms: C_3  and  S_4
REMARK    3  A    between atoms: S_4  and  C_5
REMARK    4  A    between atoms: N_14  and  C_15
REMARK                            x       y       z     vdW  Elec       q    Type
REMARK                         _______ _______ _______ _____ _____    ______ ____
ROOT
ATOM      1  C   UNL     1       4.136   4.604  18.682  0.00  0.00    +0.000 A 
ATOM      2  N   UNL     1       3.333   4.865  19.666  0.00  0.00    +0.000 NA
ATOM      3  C   UNL     1       2.748   6.086  19.607  0.00  0.00    +0.000 A 
ATOM      4  S   UNL     1       1.618   6.582  20.786  0.00  0.00    +0.000 S 
ATOM      5  C   UNL     1       1.379   8.073  20.006  0.00  0.00    +0.000 A 
ATOM      6  C   UNL     1       2.137   8.206  18.857  0.00  0.00    +0.000 A 
ATOM      7  C   UNL     1       2.939   7.045  18.638  0.00  0.00    +0.000 A 
ATOM      8  C   UNL     1       3.872   6.763  17.565  0.00  0.00    +0.000 A 
ATOM      9  O   UNL     1       4.139   7.603  16.708  0.00  0.00    +0.000 OA
ATOM     10  N   UNL     1       4.437   5.482  17.626  0.00  0.00    +0.000 N 
ATOM     11  C   UNL     1       2.092   9.443  18.007  0.00  0.00    +0.000 C 
ATOM     12  C   UNL     1       0.887  10.329  18.352  0.00  0.00    +0.000 C 
ATOM     13  C   UNL     1       0.691  10.456  19.869  0.00  0.00    +0.000 C 
ATOM     14  C   UNL     1       0.410   9.091  20.516  0.00  0.00    +0.000 C 
ENDROOT
BRANCH  10  15
ATOM     15  C   UNL     1       5.246   5.098  16.531  0.00  0.00    +0.000 A 
ATOM     16  C   UNL     1       6.581   5.528  16.480  0.00  0.00    +0.000 A 
ATOM     17  C   UNL     1       7.345   5.284  15.340  0.00  0.00    +0.000 A 
ATOM     18  C   UNL     1       6.783   4.598  14.266  0.00  0.00    +0.000 A 
ATOM     19  C   UNL     1       5.494   4.075  14.375  0.00  0.00    +0.000 A 
ATOM     20  C   UNL     1       4.718   4.318  15.502  0.00  0.00    +0.000 A 
ATOM     21  O   UNL     1       4.925   3.333  13.376  0.00  0.00    +0.000 OA
ATOM     22  C   UNL     1       5.334   3.885  12.126  0.00  0.00    +0.000 C 
ATOM     23  C   UNL     1       6.852   3.964  12.000  0.00  0.00    +0.000 C 
ATOM     24  O   UNL     1       7.534   4.520  13.130  0.00  0.00    +0.000 OA
ENDBRANCH  10  15
BRANCH   1  25
ATOM     25  S   UNL     1       4.824   2.980  18.702  0.00  0.00    +0.000 S 
BRANCH  25  26
ATOM     26  C   UNL     1       3.981   2.381  20.213  0.00  0.00    +0.000 C 
BRANCH  26  28
ATOM     27  N   UNL     1       5.764   0.937  21.785  0.00  0.00    +0.000 NA
ATOM     28  C   UNL     1       4.956   1.591  21.073  0.00  0.00    +0.000 C 
ENDBRANCH  26  28
ENDBRANCH  25  26
ENDBRANCH   1  25
TORSDOF 4
ENDMDL
MODEL 8
REMARK VINA RESULT:      -7.0      3.989      9.188
REMARK  Name = 
REMARK  4 active torsions:
REMARK  status: ('A' for Active; 'I' for Inactive)
REMARK    1  A    between atoms: C_2  and  C_3
REMARK    2  A    between atoms: C_3  and  S_4
REMARK    3  A    between atoms: S_4  and  C_5
REMARK    4  A    between atoms: N_14  and  C_15
REMARK                            x       y       z     vdW  Elec       q    Type
REMARK                         _______ _______ _______ _____ _____    ______ ____
ROOT
ATOM      1  C   UNL     1       1.005  11.280  18.922  0.00  0.00    +0.000 A 
ATOM      2  N   UNL     1       1.805  10.575  18.184  0.00  0.00    +0.000 NA
ATOM      3  C   UNL     1       1.971   9.295  18.598  0.00  0.00    +0.000 A 
ATOM      4  S   UNL     1       2.943   8.202  17.718  0.00  0.00    +0.000 S 
ATOM      5  C   UNL     1       2.602   6.942  18.806  0.00  0.00    +0.000 A 
ATOM      6  C   UNL     1       1.755   7.329  19.828  0.00  0.00    +0.000 A 
ATOM      7  C   UNL     1       1.399   8.706  19.702  0.00  0.00    +0.000 A 
ATOM      8  C   UNL     1       0.542   9.513  20.547  0.00  0.00    +0.000 A 
ATOM      9  O   UNL     1       0.057   9.066  21.585  0.00  0.00    +0.000 OA
ATOM     10  N   UNL     1       0.355  10.821  20.081  0.00  0.00    +0.000 N 
ATOM     11  C   UNL     1       1.320   6.381  20.909  0.00  0.00    +0.000 C 
ATOM     12  C   UNL     1       1.617   4.920  20.541  0.00  0.00    +0.000 C 
ATOM     13  C   UNL     1       3.014   4.762  19.925  0.00  0.00    +0.000 C 
ATOM     14  C   UNL     1       3.146   5.562  18.619  0.00  0.00    +0.000 C 
ENDROOT
BRANCH  10  15
ATOM     15  C   UNL     1      -0.583  11.612  20.786  0.00  0.00    +0.000 A 
ATOM     16  C   UNL     1      -0.253  12.093  22.062  0.00  0.00    +0.000 A 
ATOM     17  C   UNL     1      -1.217  12.746  22.828  0.00  0.00    +0.000 A 
ATOM     18  C   UNL     1      -2.497  12.933  22.312  0.00  0.00    +0.000 A 
ATOM     19  C   UNL     1      -2.779  12.555  20.999  0.00  0.00    +0.000 A 
ATOM     20  C   UNL     1      -1.830  11.895  20.228  0.00  0.00    +0.000 A 
ATOM     21  O   UNL     1      -3.999  12.782  20.424  0.00  0.00    +0.000 OA
ATOM     22  C   UNL     1      -5.002  12.588  21.420  0.00  0.00    +0.000 C 
ATOM     23  C   UNL     1      -4.767  13.458  22.651  0.00  0.00    +0.000 C 
ATOM     24  O   UNL     1      -3.430  13.447  23.165  0.00  0.00    +0.000 OA
ENDBRANCH  10  15
BRANCH   1  25
ATOM     25  S   UNL     1       0.708  12.916  18.334  0.00  0.00    +0.000 S 
BRANCH  25  26
ATOM     26  C   UNL     1       2.390  13.582  18.616  0.00  0.00    +0.000 C 
BRANCH  26  28
ATOM     27  N   UNL     1       2.947  13.631  21.340  0.00  0.00    +0.000 NA
ATOM     28  C   UNL     1       2.695  13.608  20.105  0.00  0.00    +0.000 C 
ENDBRANCH  26  28
ENDBRANCH  25  26
ENDBRANCH   1  25
TORSDOF 4
ENDMDL
MODEL 9
REMARK VINA RESULT:      -7.0      2.288      7.468
REMARK  Name = 
REMARK  4 active torsions:
REMARK  status: ('A' for Active; 'I' for Inactive)
REMARK    1  A    between atoms: C_2  and  C_3
REMARK    2  A    between atoms: C_3  and  S_4
REMARK    3  A    between atoms: S_4  and  C_5
REMARK    4  A    between atoms: N_14  and  C_15
REMARK                            x       y       z     vdW  Elec       q    Type
REMARK                         _______ _______ _______ _____ _____    ______ ____
ROOT
ATOM      1  C   UNL     1       0.931   7.730  20.363  0.00  0.00    +0.000 A 
ATOM      2  N   UNL     1       1.488   6.577  20.570  0.00  0.00    +0.000 NA
ATOM      3  C   UNL     1       2.469   6.259  19.689  0.00  0.00    +0.000 A 
ATOM      4  S   UNL     1       3.353   4.807  19.839  0.00  0.00    +0.000 S 
ATOM      5  C   UNL     1       4.307   5.188  18.485  0.00  0.00    +0.000 A 
ATOM      6  C   UNL     1       3.975   6.404  17.918  0.00  0.00    +0.000 A 
ATOM      7  C   UNL     1       2.895   7.017  18.623  0.00  0.00    +0.000 A 
ATOM      8  C   UNL     1       2.237   8.284  18.371  0.00  0.00    +0.000 A 
ATOM      9  O   UNL     1       2.524   8.975  17.396  0.00  0.00    +0.000 OA
ATOM     10  N   UNL     1       1.253   8.610  19.314  0.00  0.00    +0.000 N 
ATOM     11  C   UNL     1       4.683   6.944  16.708  0.00  0.00    +0.000 C 
ATOM     12  C   UNL     1       5.992   6.191  16.430  0.00  0.00    +0.000 C 
ATOM     13  C   UNL     1       5.819   4.674  16.582  0.00  0.00    +0.000 C 
ATOM     14  C   UNL     1       5.410   4.295  18.013  0.00  0.00    +0.000 C 
ENDROOT
BRANCH  10  15
ATOM     15  C   UNL     1       0.675   9.896  19.202  0.00  0.00    +0.000 A 
ATOM     16  C   UNL     1      -0.574  10.035  18.577  0.00  0.00    +0.000 A 
ATOM     17  C   UNL     1      -1.086  11.306  18.327  0.00  0.00    +0.000 A 
ATOM     18  C   UNL     1      -0.363  12.431  18.717  0.00  0.00    +0.000 A 
ATOM     19  C   UNL     1       0.820  12.279  19.441  0.00  0.00    +0.000 A 
ATOM     20  C   UNL     1       1.347  11.017  19.689  0.00  0.00    +0.000 A 
ATOM     21  O   UNL     1       1.528  13.352  19.908  0.00  0.00    +0.000 OA
ATOM     22  C   UNL     1       1.453  14.390  18.934  0.00  0.00    +0.000 C 
ATOM     23  C   UNL     1       0.013  14.751  18.585  0.00  0.00    +0.000 C 
ATOM     24  O   UNL     1      -0.850  13.641  18.315  0.00  0.00    +0.000 OA
ENDBRANCH  10  15
BRANCH   1  25
ATOM     25  S   UNL     1      -0.276   8.192  21.563  0.00  0.00    +0.000 S 
BRANCH  25  26
ATOM     26  C   UNL     1       0.762   9.370  22.505  0.00  0.00    +0.000 C 
BRANCH  26  28
ATOM     27  N   UNL     1      -0.697  11.664  23.090  0.00  0.00    +0.000 NA
ATOM     28  C   UNL     1      -0.036  10.624  22.825  0.00  0.00    +0.000 C 
ENDBRANCH  26  28
ENDBRANCH  25  26
ENDBRANCH   1  25
TORSDOF 4
ENDMDL
