MODEL 1
REMARK VINA RESULT:      -8.2      0.000      0.000
REMARK  Name = 
REMARK  2 active torsions:
REMARK  status: ('A' for Active; 'I' for Inactive)
REMARK    1  A    between atoms: N_3  and  C_4
REMARK    2  A    between atoms: N_14  and  C_15
REMARK                            x       y       z     vdW  Elec       q    Type
REMARK                         _______ _______ _______ _____ _____    ______ ____
ROOT
ATOM      1  O   UNL     1       1.851   6.070  20.881  0.00  0.00    +0.000 OA
ATOM      2  C   UNL     1       2.077   6.671  19.834  0.00  0.00    +0.000 C 
ATOM      3  N   UNL     1       2.625   6.089  18.717  0.00  0.00    +0.000 N 
ATOM      4  N   UNL     1       1.776   8.015  19.720  0.00  0.00    +0.000 N 
ATOM      5  C   UNL     1       1.968   8.887  18.542  0.00  0.00    +0.000 C 
ATOM      6  C   UNL     1       0.753   9.811  18.302  0.00  0.00    +0.000 C 
ATOM      7  N   UNL     1       0.463  10.525  19.552  0.00  0.00    +0.000 N 
ATOM      8  C   UNL     1       0.110   9.617  20.660  0.00  0.00    +0.000 C 
ATOM      9  C   UNL     1       1.323   8.710  20.937  0.00  0.00    +0.000 C 
ATOM     10  H   UNL     1       3.084   6.705  18.069  0.00  0.00    +0.000 HD
ENDROOT
BRANCH   7  11
ATOM     11  C   UNL     1       0.051  11.850  19.571  0.00  0.00    +0.000 A 
ATOM     12  C   UNL     1      -1.248  12.185  19.963  0.00  0.00    +0.000 A 
ATOM     13  C   UNL     1      -1.635  13.511  19.953  0.00  0.00    +0.000 A 
ATOM     14  N   UNL     1      -0.832  14.529  19.594  0.00  0.00    +0.000 NA
ATOM     15  C   UNL     1       0.415  14.235  19.202  0.00  0.00    +0.000 A 
ATOM     16  C   UNL     1       1.238  15.287  18.818  0.00  0.00    +0.000 A 
ATOM     17  C   UNL     1       2.539  15.071  18.373  0.00  0.00    +0.000 A 
ATOM     18 CL   UNL     1       3.528  16.401  17.913  0.00  0.00    +0.000 Cl
ATOM     19  C   UNL     1       3.039  13.789  18.279  0.00  0.00    +0.000 A 
ATOM     20  C   UNL     1       2.221  12.721  18.643  0.00  0.00    +0.000 A 
ATOM     21  C   UNL     1       0.911  12.912  19.152  0.00  0.00    +0.000 A 
ENDBRANCH   7  11
BRANCH   3  22
ATOM     22  C   UNL     1       2.897   4.715  18.548  0.00  0.00    +0.000 A 
ATOM     23  C   UNL     1       2.080   3.853  17.809  0.00  0.00    +0.000 A 
ATOM     24  C   UNL     1       2.373   2.491  17.729  0.00  0.00    +0.000 A 
ATOM     25  C   UNL     1       3.499   1.997  18.370  0.00  0.00    +0.000 A 
ATOM     26  F   UNL     1       3.772   0.688  18.308  0.00  0.00    +0.000 F 
ATOM     27  C   UNL     1       4.347   2.843  19.073  0.00  0.00    +0.000 A 
ATOM     28  C   UNL     1       4.051   4.205  19.158  0.00  0.00    +0.000 A 
ENDBRANCH   3  22
TORSDOF 2
ENDMDL
MODEL 2
REMARK VINA RESULT:      -7.9      4.629      9.414
REMARK  Name = 
REMARK  2 active torsions:
REMARK  status: ('A' for Active; 'I' for Inactive)
REMARK    1  A    between atoms: N_3  and  C_4
REMARK    2  A    between atoms: N_14  and  C_15
REMARK                            x       y       z     vdW  Elec       q    Type
REMARK                         _______ _______ _______ _____ _____    ______ ____
ROOT
ATOM      1  O   UNL     1       0.734  11.442  20.745  0.00  0.00    +0.000 OA
ATOM      2  C   UNL     1       0.961  11.185  19.565  0.00  0.00    +0.000 C 
ATOM      3  N   UNL     1       1.009  12.128  18.568  0.00  0.00    +0.000 N 
ATOM      4  N   UNL     1       1.192   9.881  19.165  0.00  0.00    +0.000 N 
ATOM      5  C   UNL     1       1.490   9.395  17.802  0.00  0.00    +0.000 C 
ATOM      6  C   UNL     1       2.620   8.341  17.798  0.00  0.00    +0.000 C 
ATOM      7  N   UNL     1       2.274   7.290  18.763  0.00  0.00    +0.000 N 
ATOM      8  C   UNL     1       2.153   7.797  20.143  0.00  0.00    +0.000 C 
ATOM      9  C   UNL     1       1.007   8.824  20.174  0.00  0.00    +0.000 C 
ATOM     10  H   UNL     1       0.848  11.801  17.631  0.00  0.00    +0.000 HD
ENDROOT
BRANCH   7  11
ATOM     11  C   UNL     1       2.547   5.949  18.528  0.00  0.00    +0.000 A 
ATOM     12  C   UNL     1       1.858   4.952  19.223  0.00  0.00    +0.000 A 
ATOM     13  C   UNL     1       2.165   3.627  18.981  0.00  0.00    +0.000 A 
ATOM     14  N   UNL     1       3.092   3.215  18.098  0.00  0.00    +0.000 NA
ATOM     15  C   UNL     1       3.776   4.152  17.426  0.00  0.00    +0.000 A 
ATOM     16  C   UNL     1       4.743   3.725  16.524  0.00  0.00    +0.000 A 
ATOM     17  C   UNL     1       5.517   4.629  15.802  0.00  0.00    +0.000 A 
ATOM     18 CL   UNL     1       6.700   4.060  14.690  0.00  0.00    +0.000 Cl
ATOM     19  C   UNL     1       5.355   5.986  15.986  0.00  0.00    +0.000 A 
ATOM     20  C   UNL     1       4.402   6.431  16.900  0.00  0.00    +0.000 A 
ATOM     21  C   UNL     1       3.561   5.537  17.610  0.00  0.00    +0.000 A 
ENDBRANCH   7  11
BRANCH   3  22
ATOM     22  C   UNL     1       0.931  13.525  18.746  0.00  0.00    +0.000 A 
ATOM     23  C   UNL     1      -0.275  14.217  18.894  0.00  0.00    +0.000 A 
ATOM     24  C   UNL     1      -0.286  15.609  19.008  0.00  0.00    +0.000 A 
ATOM     25  C   UNL     1       0.913  16.304  18.997  0.00  0.00    +0.000 A 
ATOM     26  F   UNL     1       0.903  17.639  19.089  0.00  0.00    +0.000 F 
ATOM     27  C   UNL     1       2.124  15.632  18.895  0.00  0.00    +0.000 A 
ATOM     28  C   UNL     1       2.136  14.241  18.775  0.00  0.00    +0.000 A 
ENDBRANCH   3  22
TORSDOF 2
ENDMDL
MODEL 3
REMARK VINA RESULT:      -7.6      0.788      1.238
REMARK  Name = 
REMARK  2 active torsions:
REMARK  status: ('A' for Active; 'I' for Inactive)
REMARK    1  A    between atoms: N_3  and  C_4
REMARK    2  A    between atoms: N_14  and  C_15
REMARK                            x       y       z     vdW  Elec       q    Type
REMARK                         _______ _______ _______ _____ _____    ______ ____
ROOT
ATOM      1  O   UNL     1       1.888   6.511  20.950  0.00  0.00    +0.000 OA
ATOM      2  C   UNL     1       1.954   7.152  19.903  0.00  0.00    +0.000 C 
ATOM      3  N   UNL     1       2.439   6.647  18.722  0.00  0.00    +0.000 N 
ATOM      4  N   UNL     1       1.524   8.465  19.859  0.00  0.00    +0.000 N 
ATOM      5  C   UNL     1       1.519   9.375  18.695  0.00  0.00    +0.000 C 
ATOM      6  C   UNL     1       0.209  10.188  18.600  0.00  0.00    +0.000 C 
ATOM      7  N   UNL     1      -0.019  10.845  19.893  0.00  0.00    +0.000 N 
ATOM      8  C   UNL     1      -0.178   9.886  21.003  0.00  0.00    +0.000 C 
ATOM      9  C   UNL     1       1.133   9.090  21.134  0.00  0.00    +0.000 C 
ATOM     10  H   UNL     1       2.775   7.316  18.052  0.00  0.00    +0.000 HD
ENDROOT
BRANCH   7  11
ATOM     11  C   UNL     1      -0.545  12.126  19.990  0.00  0.00    +0.000 A 
ATOM     12  C   UNL     1      -1.837  12.328  20.483  0.00  0.00    +0.000 A 
ATOM     13  C   UNL     1      -2.341  13.613  20.550  0.00  0.00    +0.000 A 
ATOM     14  N   UNL     1      -1.659  14.711  20.177  0.00  0.00    +0.000 NA
ATOM     15  C   UNL     1      -0.422  14.546  19.689  0.00  0.00    +0.000 A 
ATOM     16  C   UNL     1       0.274  15.680  19.291  0.00  0.00    +0.000 A 
ATOM     17  C   UNL     1       1.555  15.598  18.751  0.00  0.00    +0.000 A 
ATOM     18 CL   UNL     1       2.386  17.027  18.276  0.00  0.00    +0.000 Cl
ATOM     19  C   UNL     1       2.159  14.371  18.574  0.00  0.00    +0.000 A 
ATOM     20  C   UNL     1       1.467  13.221  18.951  0.00  0.00    +0.000 A 
ATOM     21  C   UNL     1       0.184  13.275  19.555  0.00  0.00    +0.000 A 
ENDBRANCH   7  11
BRANCH   3  22
ATOM     22  C   UNL     1       2.816   5.308  18.487  0.00  0.00    +0.000 A 
ATOM     23  C   UNL     1       4.105   4.818  18.720  0.00  0.00    +0.000 A 
ATOM     24  C   UNL     1       4.429   3.495  18.412  0.00  0.00    +0.000 A 
ATOM     25  C   UNL     1       3.455   2.658  17.892  0.00  0.00    +0.000 A 
ATOM     26  F   UNL     1       3.768   1.395  17.579  0.00  0.00    +0.000 F 
ATOM     27  C   UNL     1       2.157   3.113  17.693  0.00  0.00    +0.000 A 
ATOM     28  C   UNL     1       1.834   4.437  17.996  0.00  0.00    +0.000 A 
ENDBRANCH   3  22
TORSDOF 2
ENDMDL
MODEL 4
REMARK VINA RESULT:      -7.6      5.331      9.744
REMARK  Name = 
REMARK  2 active torsions:
REMARK  status: ('A' for Active; 'I' for Inactive)
REMARK    1  A    between atoms: N_3  and  C_4
REMARK    2  A    between atoms: N_14  and  C_15
REMARK                            x       y       z     vdW  Elec       q    Type
REMARK                         _______ _______ _______ _____ _____    ______ ____
ROOT
ATOM      1  O   UNL     1      -0.588  10.318  23.698  0.00  0.00    +0.000 OA
ATOM      2  C   UNL     1      -0.725  10.572  22.504  0.00  0.00    +0.000 C 
ATOM      3  N   UNL     1      -1.428  11.649  22.023  0.00  0.00    +0.000 N 
ATOM      4  N   UNL     1      -0.152   9.758  21.545  0.00  0.00    +0.000 N 
ATOM      5  C   UNL     1      -0.202   9.918  20.077  0.00  0.00    +0.000 C 
ATOM      6  C   UNL     1       1.169   9.651  19.418  0.00  0.00    +0.000 C 
ATOM      7  N   UNL     1       1.655   8.343  19.876  0.00  0.00    +0.000 N 
ATOM      8  C   UNL     1       1.852   8.286  21.337  0.00  0.00    +0.000 C 
ATOM      9  C   UNL     1       0.488   8.515  22.011  0.00  0.00    +0.000 C 
ATOM     10  H   UNL     1      -1.773  11.577  21.082  0.00  0.00    +0.000 HD
ENDROOT
BRANCH   7  11
ATOM     11  C   UNL     1       2.338   7.471  19.040  0.00  0.00    +0.000 A 
ATOM     12  C   UNL     1       3.145   7.962  18.010  0.00  0.00    +0.000 A 
ATOM     13  C   UNL     1       3.798   7.070  17.182  0.00  0.00    +0.000 A 
ATOM     14  N   UNL     1       3.721   5.732  17.301  0.00  0.00    +0.000 NA
ATOM     15  C   UNL     1       2.944   5.234  18.273  0.00  0.00    +0.000 A 
ATOM     16  C   UNL     1       2.854   3.852  18.386  0.00  0.00    +0.000 A 
ATOM     17  C   UNL     1       2.050   3.250  19.351  0.00  0.00    +0.000 A 
ATOM     18 CL   UNL     1       1.972   1.535  19.462  0.00  0.00    +0.000 Cl
ATOM     19  C   UNL     1       1.298   4.022  20.211  0.00  0.00    +0.000 A 
ATOM     20  C   UNL     1       1.363   5.409  20.100  0.00  0.00    +0.000 A 
ATOM     21  C   UNL     1       2.213   6.053  19.164  0.00  0.00    +0.000 A 
ENDBRANCH   7  11
BRANCH   3  22
ATOM     22  C   UNL     1      -1.991  12.684  22.800  0.00  0.00    +0.000 A 
ATOM     23  C   UNL     1      -1.266  13.792  23.249  0.00  0.00    +0.000 A 
ATOM     24  C   UNL     1      -1.868  14.753  24.064  0.00  0.00    +0.000 A 
ATOM     25  C   UNL     1      -3.203  14.614  24.409  0.00  0.00    +0.000 A 
ATOM     26  F   UNL     1      -3.777  15.525  25.204  0.00  0.00    +0.000 F 
ATOM     27  C   UNL     1      -3.953  13.544  23.938  0.00  0.00    +0.000 A 
ATOM     28  C   UNL     1      -3.350  12.580  23.128  0.00  0.00    +0.000 A 
ENDBRANCH   3  22
TORSDOF 2
ENDMDL
MODEL 5
REMARK VINA RESULT:      -7.5      4.595      9.370
REMARK  Name = 
REMARK  2 active torsions:
REMARK  status: ('A' for Active; 'I' for Inactive)
REMARK    1  A    between atoms: N_3  and  C_4
REMARK    2  A    between atoms: N_14  and  C_15
REMARK                            x       y       z     vdW  Elec       q    Type
REMARK                         _______ _______ _______ _____ _____    ______ ____
ROOT
ATOM      1  O   UNL     1       0.727  10.974  21.354  0.00  0.00    +0.000 OA
ATOM      2  C   UNL     1       0.838  10.870  20.135  0.00  0.00    +0.000 C 
ATOM      3  N   UNL     1       0.740  11.925  19.262  0.00  0.00    +0.000 N 
ATOM      4  N   UNL     1       1.081   9.638  19.558  0.00  0.00    +0.000 N 
ATOM      5  C   UNL     1       1.255   9.332  18.123  0.00  0.00    +0.000 C 
ATOM      6  C   UNL     1       2.422   8.350  17.877  0.00  0.00    +0.000 C 
ATOM      7  N   UNL     1       2.225   7.175  18.736  0.00  0.00    +0.000 N 
ATOM      8  C   UNL     1       2.230   7.510  20.172  0.00  0.00    +0.000 C 
ATOM      9  C   UNL     1       1.050   8.461  20.443  0.00  0.00    +0.000 C 
ATOM     10  H   UNL     1       0.495  11.702  18.313  0.00  0.00    +0.000 HD
ENDROOT
BRANCH   7  11
ATOM     11  C   UNL     1       2.529   5.889  18.312  0.00  0.00    +0.000 A 
ATOM     12  C   UNL     1       1.748   4.804  18.719  0.00  0.00    +0.000 A 
ATOM     13  C   UNL     1       2.086   3.533  18.296  0.00  0.00    +0.000 A 
ATOM     14  N   UNL     1       3.130   3.257  17.495  0.00  0.00    +0.000 NA
ATOM     15  C   UNL     1       3.904   4.277  17.099  0.00  0.00    +0.000 A 
ATOM     16  C   UNL     1       4.991   3.987  16.284  0.00  0.00    +0.000 A 
ATOM     17  C   UNL     1       5.860   4.983  15.846  0.00  0.00    +0.000 A 
ATOM     18 CL   UNL     1       7.191   4.584  14.831  0.00  0.00    +0.000 Cl
ATOM     19  C   UNL     1       5.674   6.292  16.238  0.00  0.00    +0.000 A 
ATOM     20  C   UNL     1       4.600   6.597  17.072  0.00  0.00    +0.000 A 
ATOM     21  C   UNL     1       3.665   5.615  17.489  0.00  0.00    +0.000 A 
ENDBRANCH   7  11
BRANCH   3  22
ATOM     22  C   UNL     1       0.622  13.285  19.616  0.00  0.00    +0.000 A 
ATOM     23  C   UNL     1       1.720  14.113  19.872  0.00  0.00    +0.000 A 
ATOM     24  C   UNL     1       1.534  15.436  20.277  0.00  0.00    +0.000 A 
ATOM     25  C   UNL     1       0.248  15.937  20.401  0.00  0.00    +0.000 A 
ATOM     26  F   UNL     1       0.067  17.200  20.804  0.00  0.00    +0.000 F 
ATOM     27  C   UNL     1      -0.856  15.145  20.109  0.00  0.00    +0.000 A 
ATOM     28  C   UNL     1      -0.670  13.819  19.711  0.00  0.00    +0.000 A 
ENDBRANCH   3  22
TORSDOF 2
ENDMDL
MODEL 6
REMARK VINA RESULT:      -7.4      4.583      9.228
REMARK  Name = 
REMARK  2 active torsions:
REMARK  status: ('A' for Active; 'I' for Inactive)
REMARK    1  A    between atoms: N_3  and  C_4
REMARK    2  A    between atoms: N_14  and  C_15
REMARK                            x       y       z     vdW  Elec       q    Type
REMARK                         _______ _______ _______ _____ _____    ______ ____
ROOT
ATOM      1  O   UNL     1       0.963  10.316  22.072  0.00  0.00    +0.000 OA
ATOM      2  C   UNL     1       0.952  10.375  20.845  0.00  0.00    +0.000 C 
ATOM      3  N   UNL     1       0.741  11.529  20.132  0.00  0.00    +0.000 N 
ATOM      4  N   UNL     1       1.163   9.237  20.088  0.00  0.00    +0.000 N 
ATOM      5  C   UNL     1       1.196   9.126  18.615  0.00  0.00    +0.000 C 
ATOM      6  C   UNL     1       2.355   8.227  18.129  0.00  0.00    +0.000 C 
ATOM      7  N   UNL     1       2.274   6.945  18.839  0.00  0.00    +0.000 N 
ATOM      8  C   UNL     1       2.417   7.090  20.300  0.00  0.00    +0.000 C 
ATOM      9  C   UNL     1       1.249   7.955  20.808  0.00  0.00    +0.000 C 
ATOM     10  H   UNL     1       0.406  11.422  19.191  0.00  0.00    +0.000 HD
ENDROOT
BRANCH   7  11
ATOM     11  C   UNL     1       2.563   5.736  18.221  0.00  0.00    +0.000 A 
ATOM     12  C   UNL     1       1.733   4.627  18.408  0.00  0.00    +0.000 A 
ATOM     13  C   UNL     1       2.057   3.432  17.795  0.00  0.00    +0.000 A 
ATOM     14  N   UNL     1       3.131   3.255  17.005  0.00  0.00    +0.000 NA
ATOM     15  C   UNL     1       3.951   4.299  16.819  0.00  0.00    +0.000 A 
ATOM     16  C   UNL     1       5.068   4.109  16.015  0.00  0.00    +0.000 A 
ATOM     17  C   UNL     1       5.985   5.132  15.788  0.00  0.00    +0.000 A 
ATOM     18 CL   UNL     1       7.352   4.859  14.780  0.00  0.00    +0.000 Cl
ATOM     19  C   UNL     1       5.816   6.364  16.383  0.00  0.00    +0.000 A 
ATOM     20  C   UNL     1       4.710   6.565  17.208  0.00  0.00    +0.000 A 
ATOM     21  C   UNL     1       3.730   5.562  17.415  0.00  0.00    +0.000 A 
ENDBRANCH   7  11
BRANCH   3  22
ATOM     22  C   UNL     1       0.628  12.827  20.674  0.00  0.00    +0.000 A 
ATOM     23  C   UNL     1      -0.592  13.408  21.035  0.00  0.00    +0.000 A 
ATOM     24  C   UNL     1      -0.641  14.720  21.510  0.00  0.00    +0.000 A 
ATOM     25  C   UNL     1       0.535  15.440  21.647  0.00  0.00    +0.000 A 
ATOM     26  F   UNL     1       0.488  16.703  22.087  0.00  0.00    +0.000 F 
ATOM     27  C   UNL     1       1.761  14.867  21.335  0.00  0.00    +0.000 A 
ATOM     28  C   UNL     1       1.811  13.558  20.854  0.00  0.00    +0.000 A 
ENDBRANCH   3  22
TORSDOF 2
ENDMDL
MODEL 7
REMARK VINA RESULT:      -7.3      2.083      2.930
REMARK  Name = 
REMARK  2 active torsions:
REMARK  status: ('A' for Active; 'I' for Inactive)
REMARK    1  A    between atoms: N_3  and  C_4
REMARK    2  A    between atoms: N_14  and  C_15
REMARK                            x       y       z     vdW  Elec       q    Type
REMARK                         _______ _______ _______ _____ _____    ______ ____
ROOT
ATOM      1  O   UNL     1       1.706   5.956  20.909  0.00  0.00    +0.000 OA
ATOM      2  C   UNL     1       2.013   6.592  19.904  0.00  0.00    +0.000 C 
ATOM      3  N   UNL     1       2.646   6.049  18.814  0.00  0.00    +0.000 N 
ATOM      4  N   UNL     1       1.722   7.941  19.814  0.00  0.00    +0.000 N 
ATOM      5  C   UNL     1       2.005   8.852  18.686  0.00  0.00    +0.000 C 
ATOM      6  C   UNL     1       0.812   9.788  18.385  0.00  0.00    +0.000 C 
ATOM      7  N   UNL     1       0.425  10.458  19.633  0.00  0.00    +0.000 N 
ATOM      8  C   UNL     1      -0.013   9.513  20.678  0.00  0.00    +0.000 C 
ATOM      9  C   UNL     1       1.175   8.594  21.016  0.00  0.00    +0.000 C 
ATOM     10  H   UNL     1       3.155   6.686  18.226  0.00  0.00    +0.000 HD
ENDROOT
BRANCH   7  11
ATOM     11  C   UNL     1       0.013  11.783  19.665  0.00  0.00    +0.000 A 
ATOM     12  C   UNL     1       0.219  12.618  18.564  0.00  0.00    +0.000 A 
ATOM     13  C   UNL     1      -0.185  13.937  18.633  0.00  0.00    +0.000 A 
ATOM     14  N   UNL     1      -0.786  14.488  19.703  0.00  0.00    +0.000 NA
ATOM     15  C   UNL     1      -0.986  13.712  20.778  0.00  0.00    +0.000 A 
ATOM     16  C   UNL     1      -1.594  14.287  21.887  0.00  0.00    +0.000 A 
ATOM     17  C   UNL     1      -1.817  13.562  23.054  0.00  0.00    +0.000 A 
ATOM     18 CL   UNL     1      -2.579  14.309  24.403  0.00  0.00    +0.000 Cl
ATOM     19  C   UNL     1      -1.413  12.247  23.145  0.00  0.00    +0.000 A 
ATOM     20  C   UNL     1      -0.785  11.660  22.048  0.00  0.00    +0.000 A 
ATOM     21  C   UNL     1      -0.592  12.355  20.826  0.00  0.00    +0.000 A 
ENDBRANCH   7  11
BRANCH   3  22
ATOM     22  C   UNL     1       2.931   4.681  18.619  0.00  0.00    +0.000 A 
ATOM     23  C   UNL     1       2.159   3.841  17.810  0.00  0.00    +0.000 A 
ATOM     24  C   UNL     1       2.459   2.481  17.705  0.00  0.00    +0.000 A 
ATOM     25  C   UNL     1       3.549   1.970  18.392  0.00  0.00    +0.000 A 
ATOM     26  F   UNL     1       3.829   0.664  18.305  0.00  0.00    +0.000 F 
ATOM     27  C   UNL     1       4.355   2.795  19.166  0.00  0.00    +0.000 A 
ATOM     28  C   UNL     1       4.051   4.153  19.276  0.00  0.00    +0.000 A 
ENDBRANCH   3  22
TORSDOF 2
ENDMDL
MODEL 8
REMARK VINA RESULT:      -7.3      4.635      9.255
REMARK  Name = 
REMARK  2 active torsions:
REMARK  status: ('A' for Active; 'I' for Inactive)
REMARK    1  A    between atoms: N_3  and  C_4
REMARK    2  A    between atoms: N_14  and  C_15
REMARK                            x       y       z     vdW  Elec       q    Type
REMARK                         _______ _______ _______ _____ _____    ______ ____
ROOT
ATOM      1  O   UNL     1       0.545  10.860  19.147  0.00  0.00    +0.000 OA
ATOM      2  C   UNL     1       0.851  10.093  20.057  0.00  0.00    +0.000 C 
ATOM      3  N   UNL     1       0.581  10.328  21.382  0.00  0.00    +0.000 N 
ATOM      4  N   UNL     1       1.505   8.907  19.782  0.00  0.00    +0.000 N 
ATOM      5  C   UNL     1       1.934   7.869  20.741  0.00  0.00    +0.000 C 
ATOM      6  C   UNL     1       1.632   6.444  20.227  0.00  0.00    +0.000 C 
ATOM      7  N   UNL     1       2.204   6.309  18.881  0.00  0.00    +0.000 N 
ATOM      8  C   UNL     1       1.620   7.257  17.913  0.00  0.00    +0.000 C 
ATOM      9  C   UNL     1       1.941   8.684  18.392  0.00  0.00    +0.000 C 
ATOM     10  H   UNL     1       1.158   9.847  22.050  0.00  0.00    +0.000 HD
ENDROOT
BRANCH   7  11
ATOM     11  C   UNL     1       2.798   5.133  18.443  0.00  0.00    +0.000 A 
ATOM     12  C   UNL     1       2.403   3.900  18.967  0.00  0.00    +0.000 A 
ATOM     13  C   UNL     1       3.025   2.748  18.525  0.00  0.00    +0.000 A 
ATOM     14  N   UNL     1       4.000   2.725  17.598  0.00  0.00    +0.000 NA
ATOM     15  C   UNL     1       4.407   3.896  17.088  0.00  0.00    +0.000 A 
ATOM     16  C   UNL     1       5.424   3.870  16.141  0.00  0.00    +0.000 A 
ATOM     17  C   UNL     1       5.925   5.041  15.577  0.00  0.00    +0.000 A 
ATOM     18 CL   UNL     1       7.180   4.966  14.404  0.00  0.00    +0.000 Cl
ATOM     19  C   UNL     1       5.433   6.268  15.968  0.00  0.00    +0.000 A 
ATOM     20  C   UNL     1       4.425   6.312  16.930  0.00  0.00    +0.000 A 
ATOM     21  C   UNL     1       3.856   5.136  17.483  0.00  0.00    +0.000 A 
ENDBRANCH   7  11
BRANCH   3  22
ATOM     22  C   UNL     1      -0.181  11.398  21.895  0.00  0.00    +0.000 A 
ATOM     23  C   UNL     1       0.120  12.743  21.656  0.00  0.00    +0.000 A 
ATOM     24  C   UNL     1      -0.639  13.757  22.241  0.00  0.00    +0.000 A 
ATOM     25  C   UNL     1      -1.716  13.423  23.047  0.00  0.00    +0.000 A 
ATOM     26  F   UNL     1      -2.435  14.394  23.623  0.00  0.00    +0.000 F 
ATOM     27  C   UNL     1      -2.059  12.095  23.264  0.00  0.00    +0.000 A 
ATOM     28  C   UNL     1      -1.295  11.080  22.683  0.00  0.00    +0.000 A 
ENDBRANCH   3  22
TORSDOF 2
ENDMDL
MODEL 9
REMARK VINA RESULT:      -7.3      3.332      4.391
REMARK  Name = 
REMARK  2 active torsions:
REMARK  status: ('A' for Active; 'I' for Inactive)
REMARK    1  A    between atoms: N_3  and  C_4
REMARK    2  A    between atoms: N_14  and  C_15
REMARK                            x       y       z     vdW  Elec       q    Type
REMARK                         _______ _______ _______ _____ _____    ______ ____
ROOT
ATOM      1  O   UNL     1       2.208   8.972  17.155  0.00  0.00    +0.000 OA
ATOM      2  C   UNL     1       1.913   8.681  18.312  0.00  0.00    +0.000 C 
ATOM      3  N   UNL     1       2.107   7.439  18.864  0.00  0.00    +0.000 N 
ATOM      4  N   UNL     1       1.352   9.626  19.150  0.00  0.00    +0.000 N 
ATOM      5  C   UNL     1       0.950   9.456  20.562  0.00  0.00    +0.000 C 
ATOM      6  C   UNL     1       1.368  10.662  21.432  0.00  0.00    +0.000 C 
ATOM      7  N   UNL     1       0.867  11.886  20.795  0.00  0.00    +0.000 N 
ATOM      8  C   UNL     1       1.431  12.102  19.449  0.00  0.00    +0.000 C 
ATOM      9  C   UNL     1       0.994  10.926  18.557  0.00  0.00    +0.000 C 
ATOM     10  H   UNL     1       1.533   7.204  19.656  0.00  0.00    +0.000 HD
ENDROOT
BRANCH   7  11
ATOM     11  C   UNL     1       0.373  12.955  21.530  0.00  0.00    +0.000 A 
ATOM     12  C   UNL     1       1.032  14.187  21.525  0.00  0.00    +0.000 A 
ATOM     13  C   UNL     1       0.527  15.226  22.281  0.00  0.00    +0.000 A 
ATOM     14  N   UNL     1      -0.586  15.142  23.033  0.00  0.00    +0.000 NA
ATOM     15  C   UNL     1      -1.232  13.968  23.066  0.00  0.00    +0.000 A 
ATOM     16  C   UNL     1      -2.372  13.878  23.854  0.00  0.00    +0.000 A 
ATOM     17  C   UNL     1      -3.091  12.691  23.966  0.00  0.00    +0.000 A 
ATOM     18 CL   UNL     1      -4.502  12.624  24.947  0.00  0.00    +0.000 Cl
ATOM     19  C   UNL     1      -2.667  11.556  23.308  0.00  0.00    +0.000 A 
ATOM     20  C   UNL     1      -1.514  11.623  22.527  0.00  0.00    +0.000 A 
ATOM     21  C   UNL     1      -0.792  12.831  22.349  0.00  0.00    +0.000 A 
ENDBRANCH   7  11
BRANCH   3  22
ATOM     22  C   UNL     1       2.772   6.356  18.253  0.00  0.00    +0.000 A 
ATOM     23  C   UNL     1       2.182   5.104  18.050  0.00  0.00    +0.000 A 
ATOM     24  C   UNL     1       2.914   4.055  17.492  0.00  0.00    +0.000 A 
ATOM     25  C   UNL     1       4.231   4.267  17.116  0.00  0.00    +0.000 A 
ATOM     26  F   UNL     1       4.940   3.257  16.596  0.00  0.00    +0.000 F 
ATOM     27  C   UNL     1       4.824   5.514  17.270  0.00  0.00    +0.000 A 
ATOM     28  C   UNL     1       4.093   6.562  17.833  0.00  0.00    +0.000 A 
ENDBRANCH   3  22
TORSDOF 2
ENDMDL
