MODEL 1
REMARK VINA RESULT:      -8.6      0.000      0.000
REMARK  Name = 
REMARK  4 active torsions:
REMARK  status: ('A' for Active; 'I' for Inactive)
REMARK    1  A    between atoms: C_1  and  C_2
REMARK    2  A    between atoms: C_5  and  N_6
REMARK    3  A    between atoms: C_8  and  C_9
REMARK    4  A    between atoms: N_11  and  C_12
REMARK                            x       y       z     vdW  Elec       q    Type
REMARK                         _______ _______ _______ _____ _____    ______ ____
ROOT
ATOM      1  N   UNL     1       5.420   5.445  18.722  0.00  0.00    +0.000 N 
ATOM      2  C   UNL     1       5.159   6.231  17.534  0.00  0.00    +0.000 C 
ATOM      3  C   UNL     1       6.524   6.464  16.930  0.00  0.00    +0.000 C 
ATOM      4  C   UNL     1       7.477   6.436  18.107  0.00  0.00    +0.000 C 
ATOM      5  C   UNL     1       6.756   5.586  19.128  0.00  0.00    +0.000 C 
ATOM      6  O   UNL     1       7.324   5.126  20.106  0.00  0.00    +0.000 OA
ENDROOT
BRANCH   1  11
ATOM      7  C   UNL     1       1.262   2.710  21.625  0.00  0.00    +0.000 C 
ATOM      8  C   UNL     1       2.339   3.412  20.855  0.00  0.00    +0.000 A 
ATOM      9  C   UNL     1       3.397   2.703  20.289  0.00  0.00    +0.000 A 
ATOM     10  C   UNL     1       4.405   3.368  19.581  0.00  0.00    +0.000 A 
ATOM     11  C   UNL     1       4.392   4.759  19.427  0.00  0.00    +0.000 A 
ATOM     12  C   UNL     1       3.316   5.460  19.993  0.00  0.00    +0.000 A 
ATOM     13  C   UNL     1       2.300   4.797  20.691  0.00  0.00    +0.000 A 
ENDBRANCH   1  11
BRANCH   3  14
ATOM     14  C   UNL     1       6.863   5.429  15.864  0.00  0.00    +0.000 C 
ATOM     15  O   UNL     1       7.807   4.667  16.064  0.00  0.00    +0.000 OA
ATOM     16  N   UNL     1       6.078   5.460  14.723  0.00  0.00    +0.000 N 
ATOM     17  H   UNL     1       5.454   6.250  14.593  0.00  0.00    +0.000 HD
BRANCH  16  18
ATOM     18  C   UNL     1       6.181   4.581  13.619  0.00  0.00    +0.000 A 
ATOM     19  C   UNL     1       7.394   4.281  12.990  0.00  0.00    +0.000 A 
ATOM     20  C   UNL     1       7.435   3.441  11.872  0.00  0.00    +0.000 A 
ATOM     21  C   UNL     1       6.259   2.887  11.378  0.00  0.00    +0.000 A 
ATOM     22  C   UNL     1       5.059   3.161  12.023  0.00  0.00    +0.000 A 
ATOM     23  F   UNL     1       3.926   2.624  11.547  0.00  0.00    +0.000 F 
ATOM     24  C   UNL     1       5.009   3.988  13.141  0.00  0.00    +0.000 A 
ENDBRANCH  16  18
ENDBRANCH   3  14
TORSDOF 3
ENDMDL
MODEL 2
REMARK VINA RESULT:      -8.6      0.046      1.000
REMARK  Name = 
REMARK  4 active torsions:
REMARK  status: ('A' for Active; 'I' for Inactive)
REMARK    1  A    between atoms: C_1  and  C_2
REMARK    2  A    between atoms: C_5  and  N_6
REMARK    3  A    between atoms: C_8  and  C_9
REMARK    4  A    between atoms: N_11  and  C_12
REMARK                            x       y       z     vdW  Elec       q    Type
REMARK                         _______ _______ _______ _____ _____    ______ ____
ROOT
ATOM      1  N   UNL     1       5.441   5.449  18.726  0.00  0.00    +0.000 N 
ATOM      2  C   UNL     1       5.181   6.236  17.538  0.00  0.00    +0.000 C 
ATOM      3  C   UNL     1       6.545   6.452  16.925  0.00  0.00    +0.000 C 
ATOM      4  C   UNL     1       7.505   6.416  18.098  0.00  0.00    +0.000 C 
ATOM      5  C   UNL     1       6.781   5.577  19.125  0.00  0.00    +0.000 C 
ATOM      6  O   UNL     1       7.349   5.113  20.101  0.00  0.00    +0.000 OA
ENDROOT
BRANCH   1  11
ATOM      7  C   UNL     1       1.258   2.684  21.563  0.00  0.00    +0.000 C 
ATOM      8  C   UNL     1       2.349   3.412  20.840  0.00  0.00    +0.000 A 
ATOM      9  C   UNL     1       2.307   4.797  20.681  0.00  0.00    +0.000 A 
ATOM     10  C   UNL     1       3.326   5.467  19.994  0.00  0.00    +0.000 A 
ATOM     11  C   UNL     1       4.409   4.777  19.439  0.00  0.00    +0.000 A 
ATOM     12  C   UNL     1       4.444   3.385  19.614  0.00  0.00    +0.000 A 
ATOM     13  C   UNL     1       3.433   2.712  20.311  0.00  0.00    +0.000 A 
ENDBRANCH   1  11
BRANCH   3  14
ATOM     14  C   UNL     1       6.867   5.410  15.861  0.00  0.00    +0.000 C 
ATOM     15  O   UNL     1       7.810   4.645  16.052  0.00  0.00    +0.000 OA
ATOM     16  N   UNL     1       6.068   5.439  14.729  0.00  0.00    +0.000 N 
ATOM     17  H   UNL     1       5.446   6.231  14.603  0.00  0.00    +0.000 HD
BRANCH  16  18
ATOM     18  C   UNL     1       6.155   4.554  13.629  0.00  0.00    +0.000 A 
ATOM     19  C   UNL     1       7.363   4.211  13.014  0.00  0.00    +0.000 A 
ATOM     20  C   UNL     1       7.388   3.368  11.898  0.00  0.00    +0.000 A 
ATOM     21  C   UNL     1       6.201   2.853  11.392  0.00  0.00    +0.000 A 
ATOM     22  C   UNL     1       5.003   3.169  12.022  0.00  0.00    +0.000 A 
ATOM     23  F   UNL     1       3.858   2.670  11.535  0.00  0.00    +0.000 F 
ATOM     24  C   UNL     1       4.969   4.001  13.138  0.00  0.00    +0.000 A 
ENDBRANCH  16  18
ENDBRANCH   3  14
TORSDOF 3
ENDMDL
MODEL 3
REMARK VINA RESULT:      -8.4      3.086      4.086
REMARK  Name = 
REMARK  4 active torsions:
REMARK  status: ('A' for Active; 'I' for Inactive)
REMARK    1  A    between atoms: C_1  and  C_2
REMARK    2  A    between atoms: C_5  and  N_6
REMARK    3  A    between atoms: C_8  and  C_9
REMARK    4  A    between atoms: N_11  and  C_12
REMARK                            x       y       z     vdW  Elec       q    Type
REMARK                         _______ _______ _______ _____ _____    ______ ____
ROOT
ATOM      1  N   UNL     1       3.158   5.701  18.525  0.00  0.00    +0.000 N 
ATOM      2  C   UNL     1       4.528   5.429  18.907  0.00  0.00    +0.000 C 
ATOM      3  C   UNL     1       4.933   4.259  18.041  0.00  0.00    +0.000 C 
ATOM      4  C   UNL     1       3.642   3.514  17.770  0.00  0.00    +0.000 C 
ATOM      5  C   UNL     1       2.580   4.580  17.909  0.00  0.00    +0.000 C 
ATOM      6  O   UNL     1       1.439   4.415  17.509  0.00  0.00    +0.000 OA
ENDROOT
BRANCH   1  11
ATOM      7  C   UNL     1       0.499  10.612  19.944  0.00  0.00    +0.000 C 
ATOM      8  C   UNL     1       1.176   9.325  19.579  0.00  0.00    +0.000 A 
ATOM      9  C   UNL     1       1.359   8.317  20.523  0.00  0.00    +0.000 A 
ATOM     10  C   UNL     1       2.003   7.123  20.176  0.00  0.00    +0.000 A 
ATOM     11  C   UNL     1       2.489   6.906  18.882  0.00  0.00    +0.000 A 
ATOM     12  C   UNL     1       2.290   7.925  17.938  0.00  0.00    +0.000 A 
ATOM     13  C   UNL     1       1.635   9.116  18.279  0.00  0.00    +0.000 A 
ENDBRANCH   1  11
BRANCH   3  14
ATOM     14  C   UNL     1       5.641   4.705  16.768  0.00  0.00    +0.000 C 
ATOM     15  O   UNL     1       6.270   5.761  16.783  0.00  0.00    +0.000 OA
ATOM     16  N   UNL     1       5.484   3.876  15.669  0.00  0.00    +0.000 N 
ATOM     17  H   UNL     1       4.792   3.134  15.725  0.00  0.00    +0.000 HD
BRANCH  16  18
ATOM     18  C   UNL     1       6.069   4.064  14.395  0.00  0.00    +0.000 A 
ATOM     19  C   UNL     1       5.610   3.425  13.238  0.00  0.00    +0.000 A 
ATOM     20  C   UNL     1       6.255   3.610  12.011  0.00  0.00    +0.000 A 
ATOM     21  C   UNL     1       7.363   4.446  11.929  0.00  0.00    +0.000 A 
ATOM     22  C   UNL     1       7.800   5.105  13.073  0.00  0.00    +0.000 A 
ATOM     23  F   UNL     1       8.867   5.912  12.993  0.00  0.00    +0.000 F 
ATOM     24  C   UNL     1       7.159   4.933  14.297  0.00  0.00    +0.000 A 
ENDBRANCH  16  18
ENDBRANCH   3  14
TORSDOF 3
ENDMDL
MODEL 4
REMARK VINA RESULT:      -8.4      3.069      4.090
REMARK  Name = 
REMARK  4 active torsions:
REMARK  status: ('A' for Active; 'I' for Inactive)
REMARK    1  A    between atoms: C_1  and  C_2
REMARK    2  A    between atoms: C_5  and  N_6
REMARK    3  A    between atoms: C_8  and  C_9
REMARK    4  A    between atoms: N_11  and  C_12
REMARK                            x       y       z     vdW  Elec       q    Type
REMARK                         _______ _______ _______ _____ _____    ______ ____
ROOT
ATOM      1  N   UNL     1       3.211   5.691  18.506  0.00  0.00    +0.000 N 
ATOM      2  C   UNL     1       4.565   5.425  18.945  0.00  0.00    +0.000 C 
ATOM      3  C   UNL     1       4.993   4.224  18.135  0.00  0.00    +0.000 C 
ATOM      4  C   UNL     1       3.708   3.477  17.844  0.00  0.00    +0.000 C 
ATOM      5  C   UNL     1       2.648   4.552  17.909  0.00  0.00    +0.000 C 
ATOM      6  O   UNL     1       1.521   4.379  17.475  0.00  0.00    +0.000 OA
ENDROOT
BRANCH   1  11
ATOM      7  C   UNL     1       0.437  10.594  19.714  0.00  0.00    +0.000 C 
ATOM      8  C   UNL     1       1.173   9.329  19.395  0.00  0.00    +0.000 A 
ATOM      9  C   UNL     1       1.656   9.082  18.112  0.00  0.00    +0.000 A 
ATOM     10  C   UNL     1       2.333   7.892  17.820  0.00  0.00    +0.000 A 
ATOM     11  C   UNL     1       2.537   6.910  18.797  0.00  0.00    +0.000 A 
ATOM     12  C   UNL     1       2.054   7.175  20.088  0.00  0.00    +0.000 A 
ATOM     13  C   UNL     1       1.387   8.370  20.386  0.00  0.00    +0.000 A 
ENDBRANCH   1  11
BRANCH   3  14
ATOM     14  C   UNL     1       5.749   4.623  16.873  0.00  0.00    +0.000 C 
ATOM     15  O   UNL     1       6.557   5.547  16.938  0.00  0.00    +0.000 OA
ATOM     16  N   UNL     1       5.426   3.912  15.729  0.00  0.00    +0.000 N 
ATOM     17  H   UNL     1       4.613   3.303  15.757  0.00  0.00    +0.000 HD
BRANCH  16  18
ATOM     18  C   UNL     1       6.014   4.079  14.453  0.00  0.00    +0.000 A 
ATOM     19  C   UNL     1       5.551   3.429  13.304  0.00  0.00    +0.000 A 
ATOM     20  C   UNL     1       6.198   3.593  12.075  0.00  0.00    +0.000 A 
ATOM     21  C   UNL     1       7.313   4.418  11.984  0.00  0.00    +0.000 A 
ATOM     22  C   UNL     1       7.754   5.088  13.119  0.00  0.00    +0.000 A 
ATOM     23  F   UNL     1       8.828   5.886  13.030  0.00  0.00    +0.000 F 
ATOM     24  C   UNL     1       7.111   4.938  14.345  0.00  0.00    +0.000 A 
ENDBRANCH  16  18
ENDBRANCH   3  14
TORSDOF 3
ENDMDL
MODEL 5
REMARK VINA RESULT:      -8.1      2.884      3.808
REMARK  Name = 
REMARK  4 active torsions:
REMARK  status: ('A' for Active; 'I' for Inactive)
REMARK    1  A    between atoms: C_1  and  C_2
REMARK    2  A    between atoms: C_5  and  N_6
REMARK    3  A    between atoms: C_8  and  C_9
REMARK    4  A    between atoms: N_11  and  C_12
REMARK                            x       y       z     vdW  Elec       q    Type
REMARK                         _______ _______ _______ _____ _____    ______ ____
ROOT
ATOM      1  N   UNL     1       3.152   5.921  18.759  0.00  0.00    +0.000 N 
ATOM      2  C   UNL     1       4.595   5.850  18.858  0.00  0.00    +0.000 C 
ATOM      3  C   UNL     1       4.970   4.638  18.039  0.00  0.00    +0.000 C 
ATOM      4  C   UNL     1       3.762   3.726  18.125  0.00  0.00    +0.000 C 
ATOM      5  C   UNL     1       2.617   4.676  18.391  0.00  0.00    +0.000 C 
ATOM      6  O   UNL     1       1.452   4.338  18.265  0.00  0.00    +0.000 OA
ENDROOT
BRANCH   1  11
ATOM      7  C   UNL     1       0.212  10.639  20.270  0.00  0.00    +0.000 C 
ATOM      8  C   UNL     1       0.962   9.402  19.881  0.00  0.00    +0.000 A 
ATOM      9  C   UNL     1       1.186   8.378  20.799  0.00  0.00    +0.000 A 
ATOM     10  C   UNL     1       1.898   7.231  20.430  0.00  0.00    +0.000 A 
ATOM     11  C   UNL     1       2.414   7.077  19.138  0.00  0.00    +0.000 A 
ATOM     12  C   UNL     1       2.174   8.111  18.220  0.00  0.00    +0.000 A 
ATOM     13  C   UNL     1       1.452   9.254  18.583  0.00  0.00    +0.000 A 
ENDBRANCH   1  11
BRANCH   3  14
ATOM     14  C   UNL     1       5.337   5.005  16.606  0.00  0.00    +0.000 C 
ATOM     15  O   UNL     1       5.073   6.135  16.202  0.00  0.00    +0.000 OA
ATOM     16  N   UNL     1       5.923   3.996  15.858  0.00  0.00    +0.000 N 
ATOM     17  H   UNL     1       5.920   3.055  16.239  0.00  0.00    +0.000 HD
BRANCH  16  18
ATOM     18  C   UNL     1       6.378   4.109  14.523  0.00  0.00    +0.000 A 
ATOM     19  C   UNL     1       7.381   5.001  14.128  0.00  0.00    +0.000 A 
ATOM     20  C   UNL     1       7.761   5.105  12.786  0.00  0.00    +0.000 A 
ATOM     21  C   UNL     1       7.144   4.310  11.827  0.00  0.00    +0.000 A 
ATOM     22  C   UNL     1       6.170   3.402  12.225  0.00  0.00    +0.000 A 
ATOM     23  F   UNL     1       5.578   2.633  11.300  0.00  0.00    +0.000 F 
ATOM     24  C   UNL     1       5.791   3.285  13.559  0.00  0.00    +0.000 A 
ENDBRANCH  16  18
ENDBRANCH   3  14
TORSDOF 3
ENDMDL
MODEL 6
REMARK VINA RESULT:      -8.1      2.908      3.844
REMARK  Name = 
REMARK  4 active torsions:
REMARK  status: ('A' for Active; 'I' for Inactive)
REMARK    1  A    between atoms: C_1  and  C_2
REMARK    2  A    between atoms: C_5  and  N_6
REMARK    3  A    between atoms: C_8  and  C_9
REMARK    4  A    between atoms: N_11  and  C_12
REMARK                            x       y       z     vdW  Elec       q    Type
REMARK                         _______ _______ _______ _____ _____    ______ ____
ROOT
ATOM      1  N   UNL     1       3.148   5.974  18.699  0.00  0.00    +0.000 N 
ATOM      2  C   UNL     1       4.585   5.874  18.846  0.00  0.00    +0.000 C 
ATOM      3  C   UNL     1       4.963   4.662  18.027  0.00  0.00    +0.000 C 
ATOM      4  C   UNL     1       3.735   3.774  18.062  0.00  0.00    +0.000 C 
ATOM      5  C   UNL     1       2.601   4.744  18.300  0.00  0.00    +0.000 C 
ATOM      6  O   UNL     1       1.434   4.431  18.131  0.00  0.00    +0.000 OA
ENDROOT
BRANCH   1  11
ATOM      7  C   UNL     1       0.158  10.662  20.209  0.00  0.00    +0.000 C 
ATOM      8  C   UNL     1       0.950   9.453  19.812  0.00  0.00    +0.000 A 
ATOM      9  C   UNL     1       1.456   9.317  18.521  0.00  0.00    +0.000 A 
ATOM     10  C   UNL     1       2.184   8.179  18.156  0.00  0.00    +0.000 A 
ATOM     11  C   UNL     1       2.421   7.141  19.065  0.00  0.00    +0.000 A 
ATOM     12  C   UNL     1       1.914   7.295  20.365  0.00  0.00    +0.000 A 
ATOM     13  C   UNL     1       1.196   8.438  20.737  0.00  0.00    +0.000 A 
ENDBRANCH   1  11
BRANCH   3  14
ATOM     14  C   UNL     1       5.386   5.036  16.612  0.00  0.00    +0.000 C 
ATOM     15  O   UNL     1       5.253   6.202  16.246  0.00  0.00    +0.000 OA
ATOM     16  N   UNL     1       5.866   3.995  15.833  0.00  0.00    +0.000 N 
ATOM     17  H   UNL     1       5.755   3.047  16.179  0.00  0.00    +0.000 HD
BRANCH  16  18
ATOM     18  C   UNL     1       6.347   4.103  14.507  0.00  0.00    +0.000 A 
ATOM     19  C   UNL     1       7.364   4.987  14.129  0.00  0.00    +0.000 A 
ATOM     20  C   UNL     1       7.770   5.087  12.795  0.00  0.00    +0.000 A 
ATOM     21  C   UNL     1       7.165   4.296  11.825  0.00  0.00    +0.000 A 
ATOM     22  C   UNL     1       6.176   3.396  12.205  0.00  0.00    +0.000 A 
ATOM     23  F   UNL     1       5.595   2.632  11.269  0.00  0.00    +0.000 F 
ATOM     24  C   UNL     1       5.771   3.283  13.532  0.00  0.00    +0.000 A 
ENDBRANCH  16  18
ENDBRANCH   3  14
TORSDOF 3
ENDMDL
MODEL 7
REMARK VINA RESULT:      -8.0      2.178      7.082
REMARK  Name = 
REMARK  4 active torsions:
REMARK  status: ('A' for Active; 'I' for Inactive)
REMARK    1  A    between atoms: C_1  and  C_2
REMARK    2  A    between atoms: C_5  and  N_6
REMARK    3  A    between atoms: C_8  and  C_9
REMARK    4  A    between atoms: N_11  and  C_12
REMARK                            x       y       z     vdW  Elec       q    Type
REMARK                         _______ _______ _______ _____ _____    ______ ____
ROOT
ATOM      1  N   UNL     1       6.338   5.475  15.793  0.00  0.00    +0.000 N 
ATOM      2  C   UNL     1       7.114   5.155  16.973  0.00  0.00    +0.000 C 
ATOM      3  C   UNL     1       6.380   5.838  18.103  0.00  0.00    +0.000 C 
ATOM      4  C   UNL     1       5.702   7.030  17.457  0.00  0.00    +0.000 C 
ATOM      5  C   UNL     1       5.540   6.609  16.015  0.00  0.00    +0.000 C 
ATOM      6  O   UNL     1       4.803   7.203  15.244  0.00  0.00    +0.000 OA
ENDROOT
BRANCH   1  11
ATOM      7  C   UNL     1       7.023   2.654  10.817  0.00  0.00    +0.000 C 
ATOM      8  C   UNL     1       6.843   3.403  12.102  0.00  0.00    +0.000 A 
ATOM      9  C   UNL     1       7.717   4.425  12.467  0.00  0.00    +0.000 A 
ATOM     10  C   UNL     1       7.547   5.112  13.675  0.00  0.00    +0.000 A 
ATOM     11  C   UNL     1       6.508   4.792  14.556  0.00  0.00    +0.000 A 
ATOM     12  C   UNL     1       5.629   3.768  14.173  0.00  0.00    +0.000 A 
ATOM     13  C   UNL     1       5.789   3.087  12.959  0.00  0.00    +0.000 A 
ENDBRANCH   1  11
BRANCH   3  14
ATOM     14  C   UNL     1       5.401   4.902  18.800  0.00  0.00    +0.000 C 
ATOM     15  O   UNL     1       5.839   3.889  19.341  0.00  0.00    +0.000 OA
ATOM     16  N   UNL     1       4.066   5.269  18.733  0.00  0.00    +0.000 N 
ATOM     17  H   UNL     1       3.808   6.023  18.103  0.00  0.00    +0.000 HD
BRANCH  16  18
ATOM     18  C   UNL     1       2.984   4.580  19.330  0.00  0.00    +0.000 A 
ATOM     19  C   UNL     1       2.628   4.729  20.674  0.00  0.00    +0.000 A 
ATOM     20  C   UNL     1       1.578   3.988  21.226  0.00  0.00    +0.000 A 
ATOM     21  C   UNL     1       0.867   3.095  20.431  0.00  0.00    +0.000 A 
ATOM     22  C   UNL     1       1.202   2.971  19.088  0.00  0.00    +0.000 A 
ATOM     23  F   UNL     1       0.515   2.111  18.322  0.00  0.00    +0.000 F 
ATOM     24  C   UNL     1       2.240   3.710  18.528  0.00  0.00    +0.000 A 
ENDBRANCH  16  18
ENDBRANCH   3  14
TORSDOF 3
ENDMDL
MODEL 8
REMARK VINA RESULT:      -7.9      1.126      1.160
REMARK  Name = 
REMARK  4 active torsions:
REMARK  status: ('A' for Active; 'I' for Inactive)
REMARK    1  A    between atoms: C_1  and  C_2
REMARK    2  A    between atoms: C_5  and  N_6
REMARK    3  A    between atoms: C_8  and  C_9
REMARK    4  A    between atoms: N_11  and  C_12
REMARK                            x       y       z     vdW  Elec       q    Type
REMARK                         _______ _______ _______ _____ _____    ______ ____
ROOT
ATOM      1  N   UNL     1       5.131   5.675  18.663  0.00  0.00    +0.000 N 
ATOM      2  C   UNL     1       4.755   6.870  17.935  0.00  0.00    +0.000 C 
ATOM      3  C   UNL     1       5.953   7.171  17.065  0.00  0.00    +0.000 C 
ATOM      4  C   UNL     1       7.136   6.610  17.829  0.00  0.00    +0.000 C 
ATOM      5  C   UNL     1       6.526   5.519  18.678  0.00  0.00    +0.000 C 
ATOM      6  O   UNL     1       7.207   4.673  19.234  0.00  0.00    +0.000 OA
ENDROOT
BRANCH   1  11
ATOM      7  C   UNL     1       1.313   2.508  21.594  0.00  0.00    +0.000 C 
ATOM      8  C   UNL     1       2.301   3.324  20.816  0.00  0.00    +0.000 A 
ATOM      9  C   UNL     1       3.337   2.716  20.110  0.00  0.00    +0.000 A 
ATOM     10  C   UNL     1       4.262   3.486  19.395  0.00  0.00    +0.000 A 
ATOM     11  C   UNL     1       4.186   4.884  19.374  0.00  0.00    +0.000 A 
ATOM     12  C   UNL     1       3.133   5.483  20.082  0.00  0.00    +0.000 A 
ATOM     13  C   UNL     1       2.199   4.714  20.787  0.00  0.00    +0.000 A 
ENDBRANCH   1  11
BRANCH   3  14
ATOM     14  C   UNL     1       5.811   6.579  15.668  0.00  0.00    +0.000 C 
ATOM     15  O   UNL     1       4.873   6.947  14.966  0.00  0.00    +0.000 OA
ATOM     16  N   UNL     1       6.759   5.631  15.318  0.00  0.00    +0.000 N 
ATOM     17  H   UNL     1       7.371   5.274  16.046  0.00  0.00    +0.000 HD
BRANCH  16  18
ATOM     18  C   UNL     1       6.852   4.970  14.071  0.00  0.00    +0.000 A 
ATOM     19  C   UNL     1       7.797   5.303  13.095  0.00  0.00    +0.000 A 
ATOM     20  C   UNL     1       7.816   4.649  11.859  0.00  0.00    +0.000 A 
ATOM     21  C   UNL     1       6.890   3.646  11.592  0.00  0.00    +0.000 A 
ATOM     22  C   UNL     1       5.971   3.294  12.573  0.00  0.00    +0.000 A 
ATOM     23  F   UNL     1       5.080   2.326  12.316  0.00  0.00    +0.000 F 
ATOM     24  C   UNL     1       5.951   3.934  13.810  0.00  0.00    +0.000 A 
ENDBRANCH  16  18
ENDBRANCH   3  14
TORSDOF 3
ENDMDL
MODEL 9
REMARK VINA RESULT:      -7.9      2.191      7.096
REMARK  Name = 
REMARK  4 active torsions:
REMARK  status: ('A' for Active; 'I' for Inactive)
REMARK    1  A    between atoms: C_1  and  C_2
REMARK    2  A    between atoms: C_5  and  N_6
REMARK    3  A    between atoms: C_8  and  C_9
REMARK    4  A    between atoms: N_11  and  C_12
REMARK                            x       y       z     vdW  Elec       q    Type
REMARK                         _______ _______ _______ _____ _____    ______ ____
ROOT
ATOM      1  N   UNL     1       6.304   5.491  15.831  0.00  0.00    +0.000 N 
ATOM      2  C   UNL     1       7.085   5.185  17.012  0.00  0.00    +0.000 C 
ATOM      3  C   UNL     1       6.338   5.854  18.141  0.00  0.00    +0.000 C 
ATOM      4  C   UNL     1       5.637   7.033  17.495  0.00  0.00    +0.000 C 
ATOM      5  C   UNL     1       5.485   6.609  16.052  0.00  0.00    +0.000 C 
ATOM      6  O   UNL     1       4.737   7.190  15.282  0.00  0.00    +0.000 OA
ENDROOT
BRANCH   1  11
ATOM      7  C   UNL     1       7.055   2.798  10.794  0.00  0.00    +0.000 C 
ATOM      8  C   UNL     1       6.863   3.483  12.112  0.00  0.00    +0.000 A 
ATOM      9  C   UNL     1       5.833   3.108  12.974  0.00  0.00    +0.000 A 
ATOM     10  C   UNL     1       5.654   3.761  14.199  0.00  0.00    +0.000 A 
ATOM     11  C   UNL     1       6.489   4.812  14.595  0.00  0.00    +0.000 A 
ATOM     12  C   UNL     1       7.527   5.174  13.723  0.00  0.00    +0.000 A 
ATOM     13  C   UNL     1       7.717   4.514  12.502  0.00  0.00    +0.000 A 
ENDBRANCH   1  11
BRANCH   3  14
ATOM     14  C   UNL     1       5.376   4.899  18.837  0.00  0.00    +0.000 C 
ATOM     15  O   UNL     1       5.828   3.879  19.350  0.00  0.00    +0.000 OA
ATOM     16  N   UNL     1       4.038   5.260  18.801  0.00  0.00    +0.000 N 
ATOM     17  H   UNL     1       3.765   6.024  18.190  0.00  0.00    +0.000 HD
BRANCH  16  18
ATOM     18  C   UNL     1       2.971   4.554  19.403  0.00  0.00    +0.000 A 
ATOM     19  C   UNL     1       2.687   4.613  20.772  0.00  0.00    +0.000 A 
ATOM     20  C   UNL     1       1.647   3.858  21.323  0.00  0.00    +0.000 A 
ATOM     21  C   UNL     1       0.875   3.040  20.506  0.00  0.00    +0.000 A 
ATOM     22  C   UNL     1       1.137   3.005  19.141  0.00  0.00    +0.000 A 
ATOM     23  F   UNL     1       0.391   2.219  18.354  0.00  0.00    +0.000 F 
ATOM     24  C   UNL     1       2.165   3.760  18.582  0.00  0.00    +0.000 A 
ENDBRANCH  16  18
ENDBRANCH   3  14
TORSDOF 3
ENDMDL
