MODEL 1
REMARK VINA RESULT:      -7.2      0.000      0.000
REMARK  Name = 
REMARK  6 active torsions:
REMARK  status: ('A' for Active; 'I' for Inactive)
REMARK    1  A    between atoms: C_2  and  O_3
REMARK    2  A    between atoms: C_2  and  C_4
REMARK    3  A    between atoms: C_4  and  C_5
REMARK    4  A    between atoms: C_5  and  C_6
REMARK    5  A    between atoms: CA_7  and  C_8
REMARK    6  A    between atoms: C_8  and  OXT_10
REMARK                            x       y       z     vdW  Elec       q    Type
REMARK                         _______ _______ _______ _____ _____    ______ ____
ROOT
ATOM      1  C   UNL     1       3.574   4.425  19.310  0.00  0.00    +0.000 A 
ATOM      2  CA  UNL     1       4.394   3.324  19.603  0.00  0.00    +0.000 A 
ATOM      3  N   UNL     1       5.453   3.377  18.729  0.00  0.00    +0.000 N 
ATOM      4  C   UNL     1       5.337   4.415  17.849  0.00  0.00    +0.000 A 
ATOM      5  C   UNL     1       6.168   4.729  16.766  0.00  0.00    +0.000 A 
ATOM      6  C   UNL     1       5.875   5.866  16.023  0.00  0.00    +0.000 A 
ATOM      7  C   UNL     1       4.822   6.690  16.395  0.00  0.00    +0.000 A 
ATOM      8  C   UNL     1       4.009   6.380  17.505  0.00  0.00    +0.000 A 
ATOM      9  I   UNL     1       2.619   7.863  18.017  0.00  0.00    +0.000 I 
ATOM     10  C   UNL     1       4.223   5.172  18.231  0.00  0.00    +0.000 A 
ATOM     11  H   UNL     1       6.203   2.697  18.724  0.00  0.00    +0.000 HD
ENDROOT
BRANCH   2  12
ATOM     12  C   UNL     1       4.388   2.249  20.574  0.00  0.00    +0.000 C 
ATOM     13  O   UNL     1       3.616   2.189  21.517  0.00  0.00    +0.000 OA
BRANCH  12  14
ATOM     14  OXT UNL     1       5.352   1.323  20.379  0.00  0.00    +0.000 OA
ATOM     15  HXT UNL     1       6.120   1.439  20.959  0.00  0.00    +0.000 HD
ENDBRANCH  12  14
ENDBRANCH   2  12
BRANCH   1  16
ATOM     16  C   UNL     1       2.243   4.746  19.940  0.00  0.00    +0.000 C 
BRANCH  16  17
ATOM     17  C   UNL     1       1.149   3.707  19.709  0.00  0.00    +0.000 C 
BRANCH  17  19
ATOM     18  O   UNL     1       1.053   4.011  17.310  0.00  0.00    +0.000 OA
ATOM     19  C   UNL     1       1.172   3.260  18.268  0.00  0.00    +0.000 C 
BRANCH  19  20
ATOM     20  O   UNL     1       1.386   1.935  18.122  0.00  0.00    +0.000 OA
ATOM     21  H   UNL     1       1.730   1.676  17.246  0.00  0.00    +0.000 HD
ENDBRANCH  19  20
ENDBRANCH  17  19
ENDBRANCH  16  17
ENDBRANCH   1  16
TORSDOF 6
ENDMDL
MODEL 2
REMARK VINA RESULT:      -7.2      0.810      1.007
REMARK  Name = 
REMARK  6 active torsions:
REMARK  status: ('A' for Active; 'I' for Inactive)
REMARK    1  A    between atoms: C_2  and  O_3
REMARK    2  A    between atoms: C_2  and  C_4
REMARK    3  A    between atoms: C_4  and  C_5
REMARK    4  A    between atoms: C_5  and  C_6
REMARK    5  A    between atoms: CA_7  and  C_8
REMARK    6  A    between atoms: C_8  and  OXT_10
REMARK                            x       y       z     vdW  Elec       q    Type
REMARK                         _______ _______ _______ _____ _____    ______ ____
ROOT
ATOM      1  C   UNL     1       3.613   4.461  19.253  0.00  0.00    +0.000 A 
ATOM      2  CA  UNL     1       4.420   3.353  19.551  0.00  0.00    +0.000 A 
ATOM      3  N   UNL     1       5.481   3.392  18.678  0.00  0.00    +0.000 N 
ATOM      4  C   UNL     1       5.379   4.429  17.796  0.00  0.00    +0.000 A 
ATOM      5  C   UNL     1       6.214   4.731  16.713  0.00  0.00    +0.000 A 
ATOM      6  C   UNL     1       5.935   5.869  15.966  0.00  0.00    +0.000 A 
ATOM      7  C   UNL     1       4.891   6.705  16.335  0.00  0.00    +0.000 A 
ATOM      8  C   UNL     1       4.073   6.407  17.444  0.00  0.00    +0.000 A 
ATOM      9  I   UNL     1       2.698   7.906  17.950  0.00  0.00    +0.000 I 
ATOM     10  C   UNL     1       4.272   5.199  18.173  0.00  0.00    +0.000 A 
ATOM     11  H   UNL     1       6.224   2.704  18.676  0.00  0.00    +0.000 HD
ENDROOT
BRANCH   2  12
ATOM     12  C   UNL     1       4.401   2.280  20.525  0.00  0.00    +0.000 C 
ATOM     13  O   UNL     1       3.629   2.233  21.468  0.00  0.00    +0.000 OA
BRANCH  12  14
ATOM     14  OXT UNL     1       5.353   1.342  20.332  0.00  0.00    +0.000 OA
ATOM     15  HXT UNL     1       6.212   1.712  20.075  0.00  0.00    +0.000 HD
ENDBRANCH  12  14
ENDBRANCH   2  12
BRANCH   1  16
ATOM     16  C   UNL     1       2.284   4.799  19.881  0.00  0.00    +0.000 C 
BRANCH  16  17
ATOM     17  C   UNL     1       1.061   4.317  19.106  0.00  0.00    +0.000 C 
BRANCH  17  19
ATOM     18  O   UNL     1       0.352   2.021  18.812  0.00  0.00    +0.000 OA
ATOM     19  C   UNL     1       0.689   2.927  19.562  0.00  0.00    +0.000 C 
BRANCH  19  20
ATOM     20  O   UNL     1       0.809   2.751  20.895  0.00  0.00    +0.000 OA
ATOM     21  H   UNL     1       0.184   3.277  21.430  0.00  0.00    +0.000 HD
ENDBRANCH  19  20
ENDBRANCH  17  19
ENDBRANCH  16  17
ENDBRANCH   1  16
TORSDOF 6
ENDMDL
MODEL 3
REMARK VINA RESULT:      -7.1      1.581      2.069
REMARK  Name = 
REMARK  6 active torsions:
REMARK  status: ('A' for Active; 'I' for Inactive)
REMARK    1  A    between atoms: C_2  and  O_3
REMARK    2  A    between atoms: C_2  and  C_4
REMARK    3  A    between atoms: C_4  and  C_5
REMARK    4  A    between atoms: C_5  and  C_6
REMARK    5  A    between atoms: CA_7  and  C_8
REMARK    6  A    between atoms: C_8  and  OXT_10
REMARK                            x       y       z     vdW  Elec       q    Type
REMARK                         _______ _______ _______ _____ _____    ______ ____
ROOT
ATOM      1  C   UNL     1       3.043   4.106  18.117  0.00  0.00    +0.000 A 
ATOM      2  CA  UNL     1       3.616   2.828  18.033  0.00  0.00    +0.000 A 
ATOM      3  N   UNL     1       4.719   2.943  17.221  0.00  0.00    +0.000 N 
ATOM      4  C   UNL     1       4.862   4.209  16.730  0.00  0.00    +0.000 A 
ATOM      5  C   UNL     1       5.805   4.679  15.806  0.00  0.00    +0.000 A 
ATOM      6  C   UNL     1       5.784   6.028  15.477  0.00  0.00    +0.000 A 
ATOM      7  C   UNL     1       4.887   6.884  16.100  0.00  0.00    +0.000 A 
ATOM      8  C   UNL     1       3.960   6.406  17.049  0.00  0.00    +0.000 A 
ATOM      9  I   UNL     1       2.850   7.895  18.022  0.00  0.00    +0.000 I 
ATOM     10  C   UNL     1       3.892   5.012  17.340  0.00  0.00    +0.000 A 
ATOM     11  H   UNL     1       5.324   2.164  16.993  0.00  0.00    +0.000 HD
ENDROOT
BRANCH   2  12
ATOM     12  C   UNL     1       3.341   1.522  18.598  0.00  0.00    +0.000 C 
ATOM     13  O   UNL     1       2.268   1.205  19.083  0.00  0.00    +0.000 OA
BRANCH  12  14
ATOM     14  OXT UNL     1       4.400   0.684  18.592  0.00  0.00    +0.000 OA
ATOM     15  HXT UNL     1       4.538   0.244  17.738  0.00  0.00    +0.000 HD
ENDBRANCH  12  14
ENDBRANCH   2  12
BRANCH   1  16
ATOM     16  C   UNL     1       1.760   4.471  18.821  0.00  0.00    +0.000 C 
BRANCH  16  17
ATOM     17  C   UNL     1       1.911   4.827  20.298  0.00  0.00    +0.000 C 
BRANCH  17  19
ATOM     18  O   UNL     1       2.172   3.314  22.169  0.00  0.00    +0.000 OA
ATOM     19  C   UNL     1       1.579   3.623  21.144  0.00  0.00    +0.000 C 
BRANCH  19  20
ATOM     20  O   UNL     1       0.516   2.925  20.690  0.00  0.00    +0.000 OA
ATOM     21  H   UNL     1       0.722   2.014  20.406  0.00  0.00    +0.000 HD
ENDBRANCH  19  20
ENDBRANCH  17  19
ENDBRANCH  16  17
ENDBRANCH   1  16
TORSDOF 6
ENDMDL
MODEL 4
REMARK VINA RESULT:      -7.1      1.468      1.820
REMARK  Name = 
REMARK  6 active torsions:
REMARK  status: ('A' for Active; 'I' for Inactive)
REMARK    1  A    between atoms: C_2  and  O_3
REMARK    2  A    between atoms: C_2  and  C_4
REMARK    3  A    between atoms: C_4  and  C_5
REMARK    4  A    between atoms: C_5  and  C_6
REMARK    5  A    between atoms: CA_7  and  C_8
REMARK    6  A    between atoms: C_8  and  OXT_10
REMARK                            x       y       z     vdW  Elec       q    Type
REMARK                         _______ _______ _______ _____ _____    ______ ____
ROOT
ATOM      1  C   UNL     1       3.815   4.348  18.804  0.00  0.00    +0.000 A 
ATOM      2  CA  UNL     1       4.698   3.323  19.176  0.00  0.00    +0.000 A 
ATOM      3  N   UNL     1       5.956   3.733  18.805  0.00  0.00    +0.000 N 
ATOM      4  C   UNL     1       5.932   4.938  18.164  0.00  0.00    +0.000 A 
ATOM      5  C   UNL     1       6.998   5.623  17.566  0.00  0.00    +0.000 A 
ATOM      6  C   UNL     1       6.743   6.866  16.999  0.00  0.00    +0.000 A 
ATOM      7  C   UNL     1       5.476   7.425  17.085  0.00  0.00    +0.000 A 
ATOM      8  C   UNL     1       4.417   6.739  17.714  0.00  0.00    +0.000 A 
ATOM      9  I   UNL     1       2.651   7.851  17.922  0.00  0.00    +0.000 I 
ATOM     10  C   UNL     1       4.620   5.423  18.223  0.00  0.00    +0.000 A 
ATOM     11  H   UNL     1       6.789   3.179  18.961  0.00  0.00    +0.000 HD
ENDROOT
BRANCH   2  12
ATOM     12  C   UNL     1       4.587   2.043  19.845  0.00  0.00    +0.000 C 
ATOM     13  O   UNL     1       4.901   1.855  21.009  0.00  0.00    +0.000 OA
BRANCH  12  14
ATOM     14  OXT UNL     1       4.147   1.042  19.053  0.00  0.00    +0.000 OA
ATOM     15  HXT UNL     1       3.221   0.801  19.213  0.00  0.00    +0.000 HD
ENDBRANCH  12  14
ENDBRANCH   2  12
BRANCH   1  16
ATOM     16  C   UNL     1       2.311   4.324  18.920  0.00  0.00    +0.000 C 
BRANCH  16  17
ATOM     17  C   UNL     1       1.759   4.771  20.272  0.00  0.00    +0.000 C 
BRANCH  17  19
ATOM     18  O   UNL     1       2.163   3.320  22.166  0.00  0.00    +0.000 OA
ATOM     19  C   UNL     1       1.530   3.564  21.148  0.00  0.00    +0.000 C 
BRANCH  19  20
ATOM     20  O   UNL     1       0.511   2.784  20.729  0.00  0.00    +0.000 OA
ATOM     21  H   UNL     1      -0.231   3.271  20.326  0.00  0.00    +0.000 HD
ENDBRANCH  19  20
ENDBRANCH  17  19
ENDBRANCH  16  17
ENDBRANCH   1  16
TORSDOF 6
ENDMDL
MODEL 5
REMARK VINA RESULT:      -6.9      2.230      3.073
REMARK  Name = 
REMARK  6 active torsions:
REMARK  status: ('A' for Active; 'I' for Inactive)
REMARK    1  A    between atoms: C_2  and  O_3
REMARK    2  A    between atoms: C_2  and  C_4
REMARK    3  A    between atoms: C_4  and  C_5
REMARK    4  A    between atoms: C_5  and  C_6
REMARK    5  A    between atoms: CA_7  and  C_8
REMARK    6  A    between atoms: C_8  and  OXT_10
REMARK                            x       y       z     vdW  Elec       q    Type
REMARK                         _______ _______ _______ _____ _____    ______ ____
ROOT
ATOM      1  C   UNL     1       3.416   4.169  19.416  0.00  0.00    +0.000 A 
ATOM      2  CA  UNL     1       2.398   4.266  20.376  0.00  0.00    +0.000 A 
ATOM      3  N   UNL     1       1.856   5.523  20.250  0.00  0.00    +0.000 N 
ATOM      4  C   UNL     1       2.501   6.264  19.302  0.00  0.00    +0.000 A 
ATOM      5  C   UNL     1       2.292   7.607  18.962  0.00  0.00    +0.000 A 
ATOM      6  C   UNL     1       3.048   8.147  17.929  0.00  0.00    +0.000 A 
ATOM      7  C   UNL     1       3.936   7.348  17.224  0.00  0.00    +0.000 A 
ATOM      8  C   UNL     1       4.119   5.990  17.556  0.00  0.00    +0.000 A 
ATOM      9  I   UNL     1       5.342   4.918  16.232  0.00  0.00    +0.000 I 
ATOM     10  C   UNL     1       3.430   5.429  18.670  0.00  0.00    +0.000 A 
ATOM     11  H   UNL     1       1.094   5.859  20.826  0.00  0.00    +0.000 HD
ENDROOT
BRANCH   2  12
ATOM     12  C   UNL     1       1.815   3.389  21.371  0.00  0.00    +0.000 C 
ATOM     13  O   UNL     1       2.377   3.065  22.405  0.00  0.00    +0.000 OA
BRANCH  12  14
ATOM     14  OXT UNL     1       0.598   2.908  21.038  0.00  0.00    +0.000 OA
ATOM     15  HXT UNL     1       0.334   3.122  20.130  0.00  0.00    +0.000 HD
ENDBRANCH  12  14
ENDBRANCH   2  12
BRANCH   1  16
ATOM     16  C   UNL     1       4.363   3.011  19.224  0.00  0.00    +0.000 C 
BRANCH  16  17
ATOM     17  C   UNL     1       3.729   1.743  18.656  0.00  0.00    +0.000 C 
BRANCH  17  19
ATOM     18  O   UNL     1       2.401   2.750  16.901  0.00  0.00    +0.000 OA
ATOM     19  C   UNL     1       2.452   2.097  17.934  0.00  0.00    +0.000 C 
BRANCH  19  20
ATOM     20  O   UNL     1       1.348   1.577  18.513  0.00  0.00    +0.000 OA
ATOM     21  H   UNL     1       0.691   1.224  17.884  0.00  0.00    +0.000 HD
ENDBRANCH  19  20
ENDBRANCH  17  19
ENDBRANCH  16  17
ENDBRANCH   1  16
TORSDOF 6
ENDMDL
MODEL 6
REMARK VINA RESULT:      -6.8      2.993      4.261
REMARK  Name = 
REMARK  6 active torsions:
REMARK  status: ('A' for Active; 'I' for Inactive)
REMARK    1  A    between atoms: C_2  and  O_3
REMARK    2  A    between atoms: C_2  and  C_4
REMARK    3  A    between atoms: C_4  and  C_5
REMARK    4  A    between atoms: C_5  and  C_6
REMARK    5  A    between atoms: CA_7  and  C_8
REMARK    6  A    between atoms: C_8  and  OXT_10
REMARK                            x       y       z     vdW  Elec       q    Type
REMARK                         _______ _______ _______ _____ _____    ______ ____
ROOT
ATOM      1  C   UNL     1       2.389   5.902  19.032  0.00  0.00    +0.000 A 
ATOM      2  CA  UNL     1       2.403   7.305  19.028  0.00  0.00    +0.000 A 
ATOM      3  N   UNL     1       3.300   7.687  18.060  0.00  0.00    +0.000 N 
ATOM      4  C   UNL     1       3.910   6.614  17.476  0.00  0.00    +0.000 A 
ATOM      5  C   UNL     1       4.938   6.613  16.525  0.00  0.00    +0.000 A 
ATOM      6  C   UNL     1       5.382   5.389  16.040  0.00  0.00    +0.000 A 
ATOM      7  C   UNL     1       4.772   4.213  16.453  0.00  0.00    +0.000 A 
ATOM      8  C   UNL     1       3.719   4.227  17.390  0.00  0.00    +0.000 A 
ATOM      9  I   UNL     1       2.801   2.369  17.709  0.00  0.00    +0.000 I 
ATOM     10  C   UNL     1       3.303   5.458  17.978  0.00  0.00    +0.000 A 
ATOM     11  H   UNL     1       3.504   8.655  17.842  0.00  0.00    +0.000 HD
ENDROOT
BRANCH   2  12
ATOM     12  C   UNL     1       1.706   8.358  19.740  0.00  0.00    +0.000 C 
ATOM     13  O   UNL     1       1.159   9.301  19.193  0.00  0.00    +0.000 OA
BRANCH  12  14
ATOM     14  OXT UNL     1       1.752   8.238  21.084  0.00  0.00    +0.000 OA
ATOM     15  HXT UNL     1       1.109   8.801  21.544  0.00  0.00    +0.000 HD
ENDBRANCH  12  14
ENDBRANCH   2  12
BRANCH   1  16
ATOM     16  C   UNL     1       1.627   5.014  19.984  0.00  0.00    +0.000 C 
BRANCH  16  17
ATOM     17  C   UNL     1       2.407   4.567  21.217  0.00  0.00    +0.000 C 
BRANCH  17  19
ATOM     18  O   UNL     1       2.812   2.348  22.094  0.00  0.00    +0.000 OA
ATOM     19  C   UNL     1       2.054   3.137  21.547  0.00  0.00    +0.000 C 
BRANCH  19  20
ATOM     20  O   UNL     1       0.785   2.810  21.222  0.00  0.00    +0.000 OA
ATOM     21  H   UNL     1       0.547   1.882  21.409  0.00  0.00    +0.000 HD
ENDBRANCH  19  20
ENDBRANCH  17  19
ENDBRANCH  16  17
ENDBRANCH   1  16
TORSDOF 6
ENDMDL
MODEL 7
REMARK VINA RESULT:      -6.8      3.526      5.299
REMARK  Name = 
REMARK  6 active torsions:
REMARK  status: ('A' for Active; 'I' for Inactive)
REMARK    1  A    between atoms: C_2  and  O_3
REMARK    2  A    between atoms: C_2  and  C_4
REMARK    3  A    between atoms: C_4  and  C_5
REMARK    4  A    between atoms: C_5  and  C_6
REMARK    5  A    between atoms: CA_7  and  C_8
REMARK    6  A    between atoms: C_8  and  OXT_10
REMARK                            x       y       z     vdW  Elec       q    Type
REMARK                         _______ _______ _______ _____ _____    ______ ____
ROOT
ATOM      1  C   UNL     1       5.282   5.717  17.545  0.00  0.00    +0.000 A 
ATOM      2  CA  UNL     1       6.054   4.652  17.055  0.00  0.00    +0.000 A 
ATOM      3  N   UNL     1       5.206   3.578  16.926  0.00  0.00    +0.000 N 
ATOM      4  C   UNL     1       3.943   3.869  17.357  0.00  0.00    +0.000 A 
ATOM      5  C   UNL     1       2.844   3.008  17.464  0.00  0.00    +0.000 A 
ATOM      6  C   UNL     1       1.635   3.539  17.896  0.00  0.00    +0.000 A 
ATOM      7  C   UNL     1       1.521   4.898  18.152  0.00  0.00    +0.000 A 
ATOM      8  C   UNL     1       2.628   5.761  18.015  0.00  0.00    +0.000 A 
ATOM      9  I   UNL     1       2.186   7.798  18.242  0.00  0.00    +0.000 I 
ATOM     10  C   UNL     1       3.905   5.234  17.665  0.00  0.00    +0.000 A 
ATOM     11  H   UNL     1       5.505   2.672  16.587  0.00  0.00    +0.000 HD
ENDROOT
BRANCH   2  12
ATOM     12  C   UNL     1       7.433   4.461  16.654  0.00  0.00    +0.000 C 
ATOM     13  O   UNL     1       7.829   4.585  15.507  0.00  0.00    +0.000 OA
BRANCH  12  14
ATOM     14  OXT UNL     1       8.252   4.080  17.657  0.00  0.00    +0.000 OA
ATOM     15  HXT UNL     1       9.186   4.038  17.398  0.00  0.00    +0.000 HD
ENDBRANCH  12  14
ENDBRANCH   2  12
BRANCH   1  16
ATOM     16  C   UNL     1       5.784   7.084  17.936  0.00  0.00    +0.000 C 
BRANCH  16  17
ATOM     17  C   UNL     1       7.033   7.553  17.192  0.00  0.00    +0.000 C 
BRANCH  17  19
ATOM     18  O   UNL     1       8.572   9.062  18.292  0.00  0.00    +0.000 OA
ATOM     19  C   UNL     1       8.099   7.939  18.188  0.00  0.00    +0.000 C 
BRANCH  19  20
ATOM     20  O   UNL     1       8.461   6.926  19.005  0.00  0.00    +0.000 OA
ATOM     21  H   UNL     1       8.655   7.197  19.922  0.00  0.00    +0.000 HD
ENDBRANCH  19  20
ENDBRANCH  17  19
ENDBRANCH  16  17
ENDBRANCH   1  16
TORSDOF 6
ENDMDL
MODEL 8
REMARK VINA RESULT:      -6.8      3.003      5.037
REMARK  Name = 
REMARK  6 active torsions:
REMARK  status: ('A' for Active; 'I' for Inactive)
REMARK    1  A    between atoms: C_2  and  O_3
REMARK    2  A    between atoms: C_2  and  C_4
REMARK    3  A    between atoms: C_4  and  C_5
REMARK    4  A    between atoms: C_5  and  C_6
REMARK    5  A    between atoms: CA_7  and  C_8
REMARK    6  A    between atoms: C_8  and  OXT_10
REMARK                            x       y       z     vdW  Elec       q    Type
REMARK                         _______ _______ _______ _____ _____    ______ ____
ROOT
ATOM      1  C   UNL     1       5.044   5.315  16.944  0.00  0.00    +0.000 A 
ATOM      2  CA  UNL     1       5.553   4.324  16.092  0.00  0.00    +0.000 A 
ATOM      3  N   UNL     1       4.734   3.228  16.229  0.00  0.00    +0.000 N 
ATOM      4  C   UNL     1       3.758   3.433  17.162  0.00  0.00    +0.000 A 
ATOM      5  C   UNL     1       2.806   2.521  17.634  0.00  0.00    +0.000 A 
ATOM      6  C   UNL     1       1.878   2.967  18.568  0.00  0.00    +0.000 A 
ATOM      7  C   UNL     1       1.871   4.297  18.964  0.00  0.00    +0.000 A 
ATOM      8  C   UNL     1       2.818   5.213  18.461  0.00  0.00    +0.000 A 
ATOM      9  I   UNL     1       2.495   7.207  19.024  0.00  0.00    +0.000 I 
ATOM     10  C   UNL     1       3.842   4.768  17.575  0.00  0.00    +0.000 A 
ATOM     11  H   UNL     1       4.873   2.364  15.720  0.00  0.00    +0.000 HD
ENDROOT
BRANCH   2  12
ATOM     12  C   UNL     1       6.646   4.221  15.146  0.00  0.00    +0.000 C 
ATOM     13  O   UNL     1       7.708   4.808  15.270  0.00  0.00    +0.000 OA
BRANCH  12  14
ATOM     14  OXT UNL     1       6.376   3.449  14.072  0.00  0.00    +0.000 OA
ATOM     15  HXT UNL     1       6.887   3.692  13.284  0.00  0.00    +0.000 HD
ENDBRANCH  12  14
ENDBRANCH   2  12
BRANCH   1  16
ATOM     16  C   UNL     1       5.653   6.668  17.212  0.00  0.00    +0.000 C 
BRANCH  16  17
ATOM     17  C   UNL     1       7.071   6.640  17.777  0.00  0.00    +0.000 C 
BRANCH  17  19
ATOM     18  O   UNL     1       6.600   5.428  19.819  0.00  0.00    +0.000 OA
ATOM     19  C   UNL     1       7.202   5.499  18.756  0.00  0.00    +0.000 C 
BRANCH  19  20
ATOM     20  O   UNL     1       8.024   4.517  18.327  0.00  0.00    +0.000 OA
ATOM     21  H   UNL     1       8.718   4.813  17.709  0.00  0.00    +0.000 HD
ENDBRANCH  19  20
ENDBRANCH  17  19
ENDBRANCH  16  17
ENDBRANCH   1  16
TORSDOF 6
ENDMDL
MODEL 9
REMARK VINA RESULT:      -6.8      1.356      1.595
REMARK  Name = 
REMARK  6 active torsions:
REMARK  status: ('A' for Active; 'I' for Inactive)
REMARK    1  A    between atoms: C_2  and  O_3
REMARK    2  A    between atoms: C_2  and  C_4
REMARK    3  A    between atoms: C_4  and  C_5
REMARK    4  A    between atoms: C_5  and  C_6
REMARK    5  A    between atoms: CA_7  and  C_8
REMARK    6  A    between atoms: C_8  and  OXT_10
REMARK                            x       y       z     vdW  Elec       q    Type
REMARK                         _______ _______ _______ _____ _____    ______ ____
ROOT
ATOM      1  C   UNL     1       3.703   4.334  18.336  0.00  0.00    +0.000 A 
ATOM      2  CA  UNL     1       4.519   3.246  18.679  0.00  0.00    +0.000 A 
ATOM      3  N   UNL     1       5.818   3.660  18.512  0.00  0.00    +0.000 N 
ATOM      4  C   UNL     1       5.890   4.935  18.027  0.00  0.00    +0.000 A 
ATOM      5  C   UNL     1       7.031   5.655  17.648  0.00  0.00    +0.000 A 
ATOM      6  C   UNL     1       6.865   6.964  17.214  0.00  0.00    +0.000 A 
ATOM      7  C   UNL     1       5.606   7.547  17.220  0.00  0.00    +0.000 A 
ATOM      8  C   UNL     1       4.468   6.821  17.630  0.00  0.00    +0.000 A 
ATOM      9  I   UNL     1       2.707   7.952  17.766  0.00  0.00    +0.000 I 
ATOM     10  C   UNL     1       4.589   5.448  17.991  0.00  0.00    +0.000 A 
ATOM     11  H   UNL     1       6.619   3.067  18.694  0.00  0.00    +0.000 HD
ENDROOT
BRANCH   2  12
ATOM     12  C   UNL     1       4.309   1.897  19.166  0.00  0.00    +0.000 C 
ATOM     13  O   UNL     1       3.462   1.139  18.723  0.00  0.00    +0.000 OA
BRANCH  12  14
ATOM     14  OXT UNL     1       5.106   1.554  20.201  0.00  0.00    +0.000 OA
ATOM     15  HXT UNL     1       6.050   1.691  20.023  0.00  0.00    +0.000 HD
ENDBRANCH  12  14
ENDBRANCH   2  12
BRANCH   1  16
ATOM     16  C   UNL     1       2.196   4.342  18.271  0.00  0.00    +0.000 C 
BRANCH  16  17
ATOM     17  C   UNL     1       1.490   4.408  19.623  0.00  0.00    +0.000 C 
BRANCH  17  19
ATOM     18  O   UNL     1       0.335   2.366  19.027  0.00  0.00    +0.000 OA
ATOM     19  C   UNL     1       0.794   3.097  19.894  0.00  0.00    +0.000 C 
BRANCH  19  20
ATOM     20  O   UNL     1       0.763   2.767  21.204  0.00  0.00    +0.000 OA
ATOM     21  H   UNL     1       0.780   1.808  21.379  0.00  0.00    +0.000 HD
ENDBRANCH  19  20
ENDBRANCH  17  19
ENDBRANCH  16  17
ENDBRANCH   1  16
TORSDOF 6
ENDMDL
