MODEL 1
REMARK VINA RESULT:      -7.7      0.000      0.000
REMARK  Name = 
REMARK  13 active torsions:
REMARK  status: ('A' for Active; 'I' for Inactive)
REMARK    1  A    between atoms: C_1  and  C_2
REMARK    2  A    between atoms: C_2  and  N_3
REMARK    3  A    between atoms: N_3  and  C_4
REMARK    4  A    between atoms: N_3  and  C_30
REMARK    5  A    between atoms: C_4  and  C_5
REMARK    6  A    between atoms: C_6  and  C_7
REMARK    7  A    between atoms: C_12  and  S_13
REMARK    8  A    between atoms: S_13  and  N_16
REMARK    9  A    between atoms: N_16  and  C_17
REMARK   10  A    between atoms: C_22  and  C_23
REMARK   11  A    between atoms: C_23  and  O_25
REMARK   12  A    between atoms: C_30  and  C_31
REMARK   13  A    between atoms: C_31  and  O_32
REMARK                            x       y       z     vdW  Elec       q    Type
REMARK                         _______ _______ _______ _____ _____    ______ ____
ROOT
ATOM      1  S   UNL     1       3.234   6.201  18.888  0.00  0.00    +0.000 S 
ATOM      2  O   UNL     1       4.488   5.933  19.576  0.00  0.00    +0.000 OA
ATOM      3  O   UNL     1       3.256   6.692  17.531  0.00  0.00    +0.000 OA
ENDROOT
BRANCH   1   9
ATOM      4  C   UNL     1       2.353   3.632  18.089  0.00  0.00    +0.000 A 
ATOM      5  C   UNL     1       1.549   2.493  18.331  0.00  0.00    +0.000 A 
ATOM      6  C   UNL     1       0.724   2.384  19.455  0.00  0.00    +0.000 A 
ATOM      7  C   UNL     1       0.705   3.407  20.392  0.00  0.00    +0.000 A 
ATOM      8  C   UNL     1       1.473   4.556  20.175  0.00  0.00    +0.000 A 
ATOM      9  C   UNL     1       2.272   4.691  19.014  0.00  0.00    +0.000 A 
BRANCH   4  11
ATOM     10  C   UNL     1       4.680   3.442  17.148  0.00  0.00    +0.000 C 
ATOM     11  C   UNL     1       3.342   3.526  17.002  0.00  0.00    +0.000 C 
BRANCH  10  12
ATOM     12  C   UNL     1       5.650   3.541  15.997  0.00  0.00    +0.000 C 
BRANCH  12  13
ATOM     13  N   UNL     1       6.054   4.920  15.641  0.00  0.00    +0.000 NA
BRANCH  13  15
ATOM     14  C   UNL     1       6.356   3.902  13.316  0.00  0.00    +0.000 C 
ATOM     15  C   UNL     1       6.798   4.929  14.356  0.00  0.00    +0.000 C 
ENDBRANCH  13  15
BRANCH  13  16
ATOM     16  C   UNL     1       6.928   5.467  16.721  0.00  0.00    +0.000 C 
BRANCH  16  17
ATOM     17  C   UNL     1       6.623   6.931  17.091  0.00  0.00    +0.000 C 
BRANCH  17  18
ATOM     18  O   UNL     1       7.801   7.726  16.996  0.00  0.00    +0.000 OA
ATOM     19  H   UNL     1       7.932   7.873  16.038  0.00  0.00    +0.000 HD
ENDBRANCH  17  18
ENDBRANCH  16  17
ENDBRANCH  13  16
ENDBRANCH  12  13
ENDBRANCH  10  12
ENDBRANCH   4  11
ENDBRANCH   1   9
BRANCH   1  20
ATOM     20  N   UNL     1       2.445   7.299  19.854  0.00  0.00    +0.000 N 
ATOM     21  H   UNL     1       2.193   6.935  20.776  0.00  0.00    +0.000 HD
BRANCH  20  22
ATOM     22  C   UNL     1       1.725   8.453  19.420  0.00  0.00    +0.000 A 
ATOM     23  C   UNL     1       2.004   9.000  18.169  0.00  0.00    +0.000 A 
ATOM     24  C   UNL     1       1.610  10.315  17.870  0.00  0.00    +0.000 A 
ATOM     25  C   UNL     1       0.978  11.132  18.830  0.00  0.00    +0.000 A 
ATOM     26  C   UNL     1       0.695  10.585  20.091  0.00  0.00    +0.000 A 
ATOM     27  C   UNL     1       0.999   9.221  20.347  0.00  0.00    +0.000 A 
ATOM     28  C   UNL     1       0.266  11.457  21.243  0.00  0.00    +0.000 C 
ATOM     29  C   UNL     1      -0.032  12.923  20.975  0.00  0.00    +0.000 C 
ATOM     30  C   UNL     1      -0.128  13.361  19.524  0.00  0.00    +0.000 C 
ATOM     31  C   UNL     1       0.701  12.575  18.508  0.00  0.00    +0.000 C 
BRANCH  27  32
ATOM     32  C   UNL     1       0.526   8.596  21.597  0.00  0.00    +0.000 C 
ATOM     33  O   UNL     1      -0.592   8.149  21.804  0.00  0.00    +0.000 OA
BRANCH  32  34
ATOM     34  O   UNL     1       1.467   8.575  22.558  0.00  0.00    +0.000 OA
ATOM     35  H   UNL     1       1.679   9.528  22.655  0.00  0.00    +0.000 HD
ENDBRANCH  32  34
ENDBRANCH  27  32
ENDBRANCH  20  22
ENDBRANCH   1  20
TORSDOF 12
ENDMDL
MODEL 2
REMARK VINA RESULT:      -7.4      1.801      2.976
REMARK  Name = 
REMARK  13 active torsions:
REMARK  status: ('A' for Active; 'I' for Inactive)
REMARK    1  A    between atoms: C_1  and  C_2
REMARK    2  A    between atoms: C_2  and  N_3
REMARK    3  A    between atoms: N_3  and  C_4
REMARK    4  A    between atoms: N_3  and  C_30
REMARK    5  A    between atoms: C_4  and  C_5
REMARK    6  A    between atoms: C_6  and  C_7
REMARK    7  A    between atoms: C_12  and  S_13
REMARK    8  A    between atoms: S_13  and  N_16
REMARK    9  A    between atoms: N_16  and  C_17
REMARK   10  A    between atoms: C_22  and  C_23
REMARK   11  A    between atoms: C_23  and  O_25
REMARK   12  A    between atoms: C_30  and  C_31
REMARK   13  A    between atoms: C_31  and  O_32
REMARK                            x       y       z     vdW  Elec       q    Type
REMARK                         _______ _______ _______ _____ _____    ______ ____
ROOT
ATOM      1  S   UNL     1       1.799   5.439  20.558  0.00  0.00    +0.000 S 
ATOM      2  O   UNL     1       0.350   5.515  20.669  0.00  0.00    +0.000 OA
ATOM      3  O   UNL     1       2.587   5.122  21.725  0.00  0.00    +0.000 OA
ENDROOT
BRANCH   1   9
ATOM      4  C   UNL     1       3.061   4.533  18.192  0.00  0.00    +0.000 A 
ATOM      5  C   UNL     1       3.234   3.523  17.216  0.00  0.00    +0.000 A 
ATOM      6  C   UNL     1       2.546   2.307  17.269  0.00  0.00    +0.000 A 
ATOM      7  C   UNL     1       1.683   2.053  18.325  0.00  0.00    +0.000 A 
ATOM      8  C   UNL     1       1.474   3.038  19.296  0.00  0.00    +0.000 A 
ATOM      9  C   UNL     1       2.131   4.289  19.221  0.00  0.00    +0.000 A 
BRANCH   4  11
ATOM     10  C   UNL     1       4.577   6.186  17.046  0.00  0.00    +0.000 C 
ATOM     11  C   UNL     1       4.008   5.663  18.152  0.00  0.00    +0.000 C 
BRANCH  10  12
ATOM     12  C   UNL     1       5.689   7.203  17.086  0.00  0.00    +0.000 C 
BRANCH  12  13
ATOM     13  N   UNL     1       7.048   6.647  16.900  0.00  0.00    +0.000 NA
BRANCH  13  15
ATOM     14  C   UNL     1       7.154   4.960  14.982  0.00  0.00    +0.000 C 
ATOM     15  C   UNL     1       6.974   5.226  16.474  0.00  0.00    +0.000 C 
ENDBRANCH  13  15
BRANCH  13  16
ATOM     16  C   UNL     1       7.794   6.737  18.191  0.00  0.00    +0.000 C 
BRANCH  16  17
ATOM     17  C   UNL     1       7.929   5.392  18.929  0.00  0.00    +0.000 C 
BRANCH  17  18
ATOM     18  O   UNL     1       7.775   5.576  20.333  0.00  0.00    +0.000 OA
ATOM     19  H   UNL     1       8.344   4.894  20.743  0.00  0.00    +0.000 HD
ENDBRANCH  17  18
ENDBRANCH  16  17
ENDBRANCH  13  16
ENDBRANCH  12  13
ENDBRANCH  10  12
ENDBRANCH   4  11
ENDBRANCH   1   9
BRANCH   1  20
ATOM     20  N   UNL     1       2.260   6.925  19.975  0.00  0.00    +0.000 N 
ATOM     21  H   UNL     1       3.190   6.935  19.551  0.00  0.00    +0.000 HD
BRANCH  20  22
ATOM     22  C   UNL     1       1.740   8.195  20.373  0.00  0.00    +0.000 A 
ATOM     23  C   UNL     1       1.476   8.432  21.720  0.00  0.00    +0.000 A 
ATOM     24  C   UNL     1       0.633   9.489  22.098  0.00  0.00    +0.000 A 
ATOM     25  C   UNL     1      -0.008  10.301  21.139  0.00  0.00    +0.000 A 
ATOM     26  C   UNL     1       0.255  10.066  19.781  0.00  0.00    +0.000 A 
ATOM     27  C   UNL     1       1.193   9.064  19.414  0.00  0.00    +0.000 A 
ATOM     28  C   UNL     1      -0.579  10.705  18.700  0.00  0.00    +0.000 C 
ATOM     29  C   UNL     1      -1.603  11.756  19.097  0.00  0.00    +0.000 C 
ATOM     30  C   UNL     1      -1.546  12.282  20.521  0.00  0.00    +0.000 C 
ATOM     31  C   UNL     1      -1.009  11.330  21.590  0.00  0.00    +0.000 C 
BRANCH  27  32
ATOM     32  C   UNL     1       1.616   8.950  18.004  0.00  0.00    +0.000 C 
ATOM     33  O   UNL     1       1.598   7.937  17.323  0.00  0.00    +0.000 OA
BRANCH  32  34
ATOM     34  O   UNL     1       2.073  10.112  17.502  0.00  0.00    +0.000 OA
ATOM     35  H   UNL     1       1.767  10.758  18.174  0.00  0.00    +0.000 HD
ENDBRANCH  32  34
ENDBRANCH  27  32
ENDBRANCH  20  22
ENDBRANCH   1  20
TORSDOF 12
ENDMDL
MODEL 3
REMARK VINA RESULT:      -7.3      3.433      5.868
REMARK  Name = 
REMARK  13 active torsions:
REMARK  status: ('A' for Active; 'I' for Inactive)
REMARK    1  A    between atoms: C_1  and  C_2
REMARK    2  A    between atoms: C_2  and  N_3
REMARK    3  A    between atoms: N_3  and  C_4
REMARK    4  A    between atoms: N_3  and  C_30
REMARK    5  A    between atoms: C_4  and  C_5
REMARK    6  A    between atoms: C_6  and  C_7
REMARK    7  A    between atoms: C_12  and  S_13
REMARK    8  A    between atoms: S_13  and  N_16
REMARK    9  A    between atoms: N_16  and  C_17
REMARK   10  A    between atoms: C_22  and  C_23
REMARK   11  A    between atoms: C_23  and  O_25
REMARK   12  A    between atoms: C_30  and  C_31
REMARK   13  A    between atoms: C_31  and  O_32
REMARK                            x       y       z     vdW  Elec       q    Type
REMARK                         _______ _______ _______ _____ _____    ______ ____
ROOT
ATOM      1  S   UNL     1       0.597   9.297  21.448  0.00  0.00    +0.000 S 
ATOM      2  O   UNL     1      -0.745   8.741  21.356  0.00  0.00    +0.000 OA
ATOM      3  O   UNL     1       1.402   9.029  22.615  0.00  0.00    +0.000 OA
ENDROOT
BRANCH   1   9
ATOM      4  C   UNL     1       1.974   7.504  19.745  0.00  0.00    +0.000 A 
ATOM      5  C   UNL     1       2.596   7.244  18.501  0.00  0.00    +0.000 A 
ATOM      6  C   UNL     1       2.662   8.201  17.483  0.00  0.00    +0.000 A 
ATOM      7  C   UNL     1       2.075   9.444  17.672  0.00  0.00    +0.000 A 
ATOM      8  C   UNL     1       1.469   9.741  18.898  0.00  0.00    +0.000 A 
ATOM      9  C   UNL     1       1.443   8.793  19.948  0.00  0.00    +0.000 A 
BRANCH   4  11
ATOM     10  C   UNL     1       2.499   5.215  20.653  0.00  0.00    +0.000 C 
ATOM     11  C   UNL     1       1.768   6.349  20.637  0.00  0.00    +0.000 C 
BRANCH  10  12
ATOM     12  C   UNL     1       2.115   3.991  21.446  0.00  0.00    +0.000 C 
BRANCH  12  13
ATOM     13  N   UNL     1       2.003   2.746  20.653  0.00  0.00    +0.000 NA
BRANCH  13  15
ATOM     14  C   UNL     1       4.468   2.071  20.711  0.00  0.00    +0.000 C 
ATOM     15  C   UNL     1       3.255   2.501  19.891  0.00  0.00    +0.000 C 
ENDBRANCH  13  15
BRANCH  13  16
ATOM     16  C   UNL     1       0.863   2.876  19.698  0.00  0.00    +0.000 C 
BRANCH  16  17
ATOM     17  C   UNL     1       1.270   2.754  18.217  0.00  0.00    +0.000 C 
BRANCH  17  18
ATOM     18  O   UNL     1       1.107   4.001  17.550  0.00  0.00    +0.000 OA
ATOM     19  H   UNL     1       1.929   4.497  17.734  0.00  0.00    +0.000 HD
ENDBRANCH  17  18
ENDBRANCH  16  17
ENDBRANCH  13  16
ENDBRANCH  12  13
ENDBRANCH  10  12
ENDBRANCH   4  11
ENDBRANCH   1   9
BRANCH   1  20
ATOM     20  N   UNL     1       0.387  10.939  21.295  0.00  0.00    +0.000 N 
ATOM     21  H   UNL     1       1.260  11.462  21.196  0.00  0.00    +0.000 HD
BRANCH  20  22
ATOM     22  C   UNL     1      -0.750  11.695  21.711  0.00  0.00    +0.000 A 
ATOM     23  C   UNL     1      -1.156  11.640  23.043  0.00  0.00    +0.000 A 
ATOM     24  C   UNL     1      -2.451  12.046  23.403  0.00  0.00    +0.000 A 
ATOM     25  C   UNL     1      -3.388  12.466  22.437  0.00  0.00    +0.000 A 
ATOM     26  C   UNL     1      -2.984  12.523  21.094  0.00  0.00    +0.000 A 
ATOM     27  C   UNL     1      -1.640  12.214  20.755  0.00  0.00    +0.000 A 
ATOM     28  C   UNL     1      -3.986  12.706  19.983  0.00  0.00    +0.000 C 
ATOM     29  C   UNL     1      -5.431  13.008  20.348  0.00  0.00    +0.000 C 
ATOM     30  C   UNL     1      -5.725  13.361  21.795  0.00  0.00    +0.000 C 
ATOM     31  C   UNL     1      -4.804  12.758  22.856  0.00  0.00    +0.000 C 
BRANCH  27  32
ATOM     32  C   UNL     1      -1.165  12.463  19.380  0.00  0.00    +0.000 C 
ATOM     33  O   UNL     1      -0.719  13.515  18.947  0.00  0.00    +0.000 OA
BRANCH  32  34
ATOM     34  O   UNL     1      -1.292  11.387  18.582  0.00  0.00    +0.000 OA
ATOM     35  H   UNL     1      -0.513  10.850  18.841  0.00  0.00    +0.000 HD
ENDBRANCH  32  34
ENDBRANCH  27  32
ENDBRANCH  20  22
ENDBRANCH   1  20
TORSDOF 12
ENDMDL
MODEL 4
REMARK VINA RESULT:      -7.1      1.880      2.635
REMARK  Name = 
REMARK  13 active torsions:
REMARK  status: ('A' for Active; 'I' for Inactive)
REMARK    1  A    between atoms: C_1  and  C_2
REMARK    2  A    between atoms: C_2  and  N_3
REMARK    3  A    between atoms: N_3  and  C_4
REMARK    4  A    between atoms: N_3  and  C_30
REMARK    5  A    between atoms: C_4  and  C_5
REMARK    6  A    between atoms: C_6  and  C_7
REMARK    7  A    between atoms: C_12  and  S_13
REMARK    8  A    between atoms: S_13  and  N_16
REMARK    9  A    between atoms: N_16  and  C_17
REMARK   10  A    between atoms: C_22  and  C_23
REMARK   11  A    between atoms: C_23  and  O_25
REMARK   12  A    between atoms: C_30  and  C_31
REMARK   13  A    between atoms: C_31  and  O_32
REMARK                            x       y       z     vdW  Elec       q    Type
REMARK                         _______ _______ _______ _____ _____    ______ ____
ROOT
ATOM      1  S   UNL     1       2.180   7.080  19.205  0.00  0.00    +0.000 S 
ATOM      2  O   UNL     1       3.236   7.261  20.189  0.00  0.00    +0.000 OA
ATOM      3  O   UNL     1       2.284   7.728  17.920  0.00  0.00    +0.000 OA
ENDROOT
BRANCH   1   9
ATOM      4  C   UNL     1       2.691   4.530  18.088  0.00  0.00    +0.000 A 
ATOM      5  C   UNL     1       2.442   3.137  18.073  0.00  0.00    +0.000 A 
ATOM      6  C   UNL     1       1.552   2.527  18.963  0.00  0.00    +0.000 A 
ATOM      7  C   UNL     1       0.905   3.295  19.920  0.00  0.00    +0.000 A 
ATOM      8  C   UNL     1       1.114   4.677  19.950  0.00  0.00    +0.000 A 
ATOM      9  C   UNL     1       1.977   5.306  19.021  0.00  0.00    +0.000 A 
BRANCH   4  11
ATOM     10  C   UNL     1       4.964   5.547  17.719  0.00  0.00    +0.000 C 
ATOM     11  C   UNL     1       3.814   5.011  17.263  0.00  0.00    +0.000 C 
BRANCH  10  12
ATOM     12  C   UNL     1       5.985   6.206  16.825  0.00  0.00    +0.000 C 
BRANCH  12  13
ATOM     13  N   UNL     1       7.252   5.456  16.670  0.00  0.00    +0.000 NA
BRANCH  13  15
ATOM     14  C   UNL     1       6.325   4.727  14.402  0.00  0.00    +0.000 C 
ATOM     15  C   UNL     1       7.093   4.368  15.671  0.00  0.00    +0.000 C 
ENDBRANCH  13  15
BRANCH  13  16
ATOM     16  C   UNL     1       7.635   4.865  17.986  0.00  0.00    +0.000 C 
BRANCH  16  17
ATOM     17  C   UNL     1       8.094   5.902  19.028  0.00  0.00    +0.000 C 
BRANCH  17  18
ATOM     18  O   UNL     1       7.746   5.478  20.342  0.00  0.00    +0.000 OA
ATOM     19  H   UNL     1       6.790   5.663  20.425  0.00  0.00    +0.000 HD
ENDBRANCH  17  18
ENDBRANCH  16  17
ENDBRANCH  13  16
ENDBRANCH  12  13
ENDBRANCH  10  12
ENDBRANCH   4  11
ENDBRANCH   1   9
BRANCH   1  20
ATOM     20  N   UNL     1       0.796   7.597  19.967  0.00  0.00    +0.000 N 
ATOM     21  H   UNL     1      -0.058   7.151  19.625  0.00  0.00    +0.000 HD
BRANCH  20  22
ATOM     22  C   UNL     1       0.620   8.826  20.671  0.00  0.00    +0.000 A 
ATOM     23  C   UNL     1       0.661   8.828  22.064  0.00  0.00    +0.000 A 
ATOM     24  C   UNL     1       0.127   9.909  22.785  0.00  0.00    +0.000 A 
ATOM     25  C   UNL     1      -0.507  10.987  22.135  0.00  0.00    +0.000 A 
ATOM     26  C   UNL     1      -0.550  10.991  20.732  0.00  0.00    +0.000 A 
ATOM     27  C   UNL     1       0.087   9.947  20.010  0.00  0.00    +0.000 A 
ATOM     28  C   UNL     1      -1.427  11.959  19.979  0.00  0.00    +0.000 C 
ATOM     29  C   UNL     1      -2.132  13.059  20.756  0.00  0.00    +0.000 C 
ATOM     30  C   UNL     1      -1.711  13.272  22.199  0.00  0.00    +0.000 C 
ATOM     31  C   UNL     1      -1.184  12.052  22.955  0.00  0.00    +0.000 C 
BRANCH  27  32
ATOM     32  C   UNL     1       0.211  10.052  18.543  0.00  0.00    +0.000 C 
ATOM     33  O   UNL     1      -0.613   9.687  17.719  0.00  0.00    +0.000 OA
BRANCH  32  34
ATOM     34  O   UNL     1       1.382  10.591  18.157  0.00  0.00    +0.000 OA
ATOM     35  H   UNL     1       1.159  11.545  18.107  0.00  0.00    +0.000 HD
ENDBRANCH  32  34
ENDBRANCH  27  32
ENDBRANCH  20  22
ENDBRANCH   1  20
TORSDOF 12
ENDMDL
MODEL 5
REMARK VINA RESULT:      -7.1      1.231      1.518
REMARK  Name = 
REMARK  13 active torsions:
REMARK  status: ('A' for Active; 'I' for Inactive)
REMARK    1  A    between atoms: C_1  and  C_2
REMARK    2  A    between atoms: C_2  and  N_3
REMARK    3  A    between atoms: N_3  and  C_4
REMARK    4  A    between atoms: N_3  and  C_30
REMARK    5  A    between atoms: C_4  and  C_5
REMARK    6  A    between atoms: C_6  and  C_7
REMARK    7  A    between atoms: C_12  and  S_13
REMARK    8  A    between atoms: S_13  and  N_16
REMARK    9  A    between atoms: N_16  and  C_17
REMARK   10  A    between atoms: C_22  and  C_23
REMARK   11  A    between atoms: C_23  and  O_25
REMARK   12  A    between atoms: C_30  and  C_31
REMARK   13  A    between atoms: C_31  and  O_32
REMARK                            x       y       z     vdW  Elec       q    Type
REMARK                         _______ _______ _______ _____ _____    ______ ____
ROOT
ATOM      1  S   UNL     1       2.351   7.411  18.339  0.00  0.00    +0.000 S 
ATOM      2  O   UNL     1       3.721   7.678  17.926  0.00  0.00    +0.000 OA
ATOM      3  O   UNL     1       1.289   7.469  17.364  0.00  0.00    +0.000 OA
ENDROOT
BRANCH   1   9
ATOM      4  C   UNL     1       2.883   4.640  18.567  0.00  0.00    +0.000 A 
ATOM      5  C   UNL     1       2.869   3.459  19.347  0.00  0.00    +0.000 A 
ATOM      6  C   UNL     1       2.418   3.443  20.671  0.00  0.00    +0.000 A 
ATOM      7  C   UNL     1       1.995   4.623  21.265  0.00  0.00    +0.000 A 
ATOM      8  C   UNL     1       1.978   5.804  20.517  0.00  0.00    +0.000 A 
ATOM      9  C   UNL     1       2.388   5.816  19.162  0.00  0.00    +0.000 A 
BRANCH   4  11
ATOM     10  C   UNL     1       4.528   3.667  16.928  0.00  0.00    +0.000 C 
ATOM     11  C   UNL     1       3.592   4.573  17.276  0.00  0.00    +0.000 C 
BRANCH  10  12
ATOM     12  C   UNL     1       5.361   3.772  15.676  0.00  0.00    +0.000 C 
BRANCH  12  13
ATOM     13  N   UNL     1       6.315   4.903  15.656  0.00  0.00    +0.000 NA
BRANCH  13  15
ATOM     14  C   UNL     1       6.567   4.005  13.275  0.00  0.00    +0.000 C 
ATOM     15  C   UNL     1       7.093   4.905  14.391  0.00  0.00    +0.000 C 
ENDBRANCH  13  15
BRANCH  13  16
ATOM     16  C   UNL     1       7.253   4.772  16.810  0.00  0.00    +0.000 C 
BRANCH  16  17
ATOM     17  C   UNL     1       7.457   6.077  17.602  0.00  0.00    +0.000 C 
BRANCH  17  18
ATOM     18  O   UNL     1       6.297   6.899  17.517  0.00  0.00    +0.000 OA
ATOM     19  H   UNL     1       5.727   6.611  18.258  0.00  0.00    +0.000 HD
ENDBRANCH  17  18
ENDBRANCH  16  17
ENDBRANCH  13  16
ENDBRANCH  12  13
ENDBRANCH  10  12
ENDBRANCH   4  11
ENDBRANCH   1   9
BRANCH   1  20
ATOM     20  N   UNL     1       2.048   8.513  19.545  0.00  0.00    +0.000 N 
ATOM     21  H   UNL     1       2.412   8.238  20.460  0.00  0.00    +0.000 HD
BRANCH  20  22
ATOM     22  C   UNL     1       1.022   9.506  19.553  0.00  0.00    +0.000 A 
ATOM     23  C   UNL     1       0.917  10.388  18.480  0.00  0.00    +0.000 A 
ATOM     24  C   UNL     1       0.194  11.584  18.617  0.00  0.00    +0.000 A 
ATOM     25  C   UNL     1      -0.396  11.953  19.844  0.00  0.00    +0.000 A 
ATOM     26  C   UNL     1      -0.293  11.068  20.928  0.00  0.00    +0.000 A 
ATOM     27  C   UNL     1       0.347   9.812  20.747  0.00  0.00    +0.000 A 
ATOM     28  C   UNL     1      -0.662  11.496  22.325  0.00  0.00    +0.000 C 
ATOM     29  C   UNL     1      -1.320  12.852  22.521  0.00  0.00    +0.000 C 
ATOM     30  C   UNL     1      -1.799  13.580  21.277  0.00  0.00    +0.000 C 
ATOM     31  C   UNL     1      -1.039  13.306  19.979  0.00  0.00    +0.000 C 
BRANCH  27  32
ATOM     32  C   UNL     1       0.282   8.806  21.825  0.00  0.00    +0.000 C 
ATOM     33  O   UNL     1      -0.704   8.168  22.162  0.00  0.00    +0.000 OA
BRANCH  32  34
ATOM     34  O   UNL     1       1.456   8.650  22.464  0.00  0.00    +0.000 OA
ATOM     35  H   UNL     1       1.281   9.097  23.320  0.00  0.00    +0.000 HD
ENDBRANCH  32  34
ENDBRANCH  27  32
ENDBRANCH  20  22
ENDBRANCH   1  20
TORSDOF 12
ENDMDL
MODEL 6
REMARK VINA RESULT:      -7.1      1.305      1.936
REMARK  Name = 
REMARK  13 active torsions:
REMARK  status: ('A' for Active; 'I' for Inactive)
REMARK    1  A    between atoms: C_1  and  C_2
REMARK    2  A    between atoms: C_2  and  N_3
REMARK    3  A    between atoms: N_3  and  C_4
REMARK    4  A    between atoms: N_3  and  C_30
REMARK    5  A    between atoms: C_4  and  C_5
REMARK    6  A    between atoms: C_6  and  C_7
REMARK    7  A    between atoms: C_12  and  S_13
REMARK    8  A    between atoms: S_13  and  N_16
REMARK    9  A    between atoms: N_16  and  C_17
REMARK   10  A    between atoms: C_22  and  C_23
REMARK   11  A    between atoms: C_23  and  O_25
REMARK   12  A    between atoms: C_30  and  C_31
REMARK   13  A    between atoms: C_31  and  O_32
REMARK                            x       y       z     vdW  Elec       q    Type
REMARK                         _______ _______ _______ _____ _____    ______ ____
ROOT
ATOM      1  S   UNL     1       2.710   6.656  18.865  0.00  0.00    +0.000 S 
ATOM      2  O   UNL     1       4.138   6.770  19.121  0.00  0.00    +0.000 OA
ATOM      3  O   UNL     1       2.198   6.930  17.544  0.00  0.00    +0.000 OA
ENDROOT
BRANCH   1   9
ATOM      4  C   UNL     1       2.419   3.850  18.642  0.00  0.00    +0.000 A 
ATOM      5  C   UNL     1       2.021   2.619  19.216  0.00  0.00    +0.000 A 
ATOM      6  C   UNL     1       1.500   2.531  20.511  0.00  0.00    +0.000 A 
ATOM      7  C   UNL     1       1.392   3.678  21.284  0.00  0.00    +0.000 A 
ATOM      8  C   UNL     1       1.758   4.913  20.741  0.00  0.00    +0.000 A 
ATOM      9  C   UNL     1       2.240   5.013  19.414  0.00  0.00    +0.000 A 
BRANCH   4  11
ATOM     10  C   UNL     1       4.502   3.733  17.232  0.00  0.00    +0.000 C 
ATOM     11  C   UNL     1       3.161   3.778  17.370  0.00  0.00    +0.000 C 
BRANCH  10  12
ATOM     12  C   UNL     1       5.206   3.866  15.905  0.00  0.00    +0.000 C 
BRANCH  12  13
ATOM     13  N   UNL     1       6.461   4.650  15.943  0.00  0.00    +0.000 NA
BRANCH  13  15
ATOM     14  C   UNL     1       7.331   6.638  17.294  0.00  0.00    +0.000 C 
ATOM     15  C   UNL     1       6.206   6.014  16.473  0.00  0.00    +0.000 C 
ENDBRANCH  13  15
BRANCH  13  16
ATOM     16  C   UNL     1       7.014   4.754  14.560  0.00  0.00    +0.000 C 
BRANCH  16  17
ATOM     17  C   UNL     1       6.298   3.860  13.531  0.00  0.00    +0.000 C 
BRANCH  17  18
ATOM     18  O   UNL     1       6.908   3.984  12.251  0.00  0.00    +0.000 OA
ATOM     19  H   UNL     1       6.205   4.332  11.667  0.00  0.00    +0.000 HD
ENDBRANCH  17  18
ENDBRANCH  16  17
ENDBRANCH  13  16
ENDBRANCH  12  13
ENDBRANCH  10  12
ENDBRANCH   4  11
ENDBRANCH   1   9
BRANCH   1  20
ATOM     20  N   UNL     1       2.000   7.695  19.952  0.00  0.00    +0.000 N 
ATOM     21  H   UNL     1       1.779   7.265  20.853  0.00  0.00    +0.000 HD
BRANCH  20  22
ATOM     22  C   UNL     1       1.299   8.900  19.645  0.00  0.00    +0.000 A 
ATOM     23  C   UNL     1       1.507   9.516  18.413  0.00  0.00    +0.000 A 
ATOM     24  C   UNL     1       1.146  10.860  18.226  0.00  0.00    +0.000 A 
ATOM     25  C   UNL     1       0.620  11.636  19.278  0.00  0.00    +0.000 A 
ATOM     26  C   UNL     1       0.408  11.020  20.522  0.00  0.00    +0.000 A 
ATOM     27  C   UNL     1       0.675   9.633  20.669  0.00  0.00    +0.000 A 
ATOM     28  C   UNL     1       0.101  11.832  21.755  0.00  0.00    +0.000 C 
ATOM     29  C   UNL     1      -0.155  13.322  21.600  0.00  0.00    +0.000 C 
ATOM     30  C   UNL     1      -0.339  13.855  20.190  0.00  0.00    +0.000 C 
ATOM     31  C   UNL     1       0.380  13.106  19.067  0.00  0.00    +0.000 C 
BRANCH  27  32
ATOM     32  C   UNL     1       0.270   8.946  21.911  0.00  0.00    +0.000 C 
ATOM     33  O   UNL     1       0.734   9.132  23.026  0.00  0.00    +0.000 OA
BRANCH  32  34
ATOM     34  O   UNL     1      -0.691   8.026  21.709  0.00  0.00    +0.000 OA
ATOM     35  H   UNL     1      -0.284   7.220  22.092  0.00  0.00    +0.000 HD
ENDBRANCH  32  34
ENDBRANCH  27  32
ENDBRANCH  20  22
ENDBRANCH   1  20
TORSDOF 12
ENDMDL
MODEL 7
REMARK VINA RESULT:      -7.0      1.016      1.182
REMARK  Name = 
REMARK  13 active torsions:
REMARK  status: ('A' for Active; 'I' for Inactive)
REMARK    1  A    between atoms: C_1  and  C_2
REMARK    2  A    between atoms: C_2  and  N_3
REMARK    3  A    between atoms: N_3  and  C_4
REMARK    4  A    between atoms: N_3  and  C_30
REMARK    5  A    between atoms: C_4  and  C_5
REMARK    6  A    between atoms: C_6  and  C_7
REMARK    7  A    between atoms: C_12  and  S_13
REMARK    8  A    between atoms: S_13  and  N_16
REMARK    9  A    between atoms: N_16  and  C_17
REMARK   10  A    between atoms: C_22  and  C_23
REMARK   11  A    between atoms: C_23  and  O_25
REMARK   12  A    between atoms: C_30  and  C_31
REMARK   13  A    between atoms: C_31  and  O_32
REMARK                            x       y       z     vdW  Elec       q    Type
REMARK                         _______ _______ _______ _____ _____    ______ ____
ROOT
ATOM      1  S   UNL     1       2.721   6.434  18.816  0.00  0.00    +0.000 S 
ATOM      2  O   UNL     1       4.103   6.872  18.693  0.00  0.00    +0.000 OA
ATOM      3  O   UNL     1       1.901   6.320  17.634  0.00  0.00    +0.000 OA
ENDROOT
BRANCH   1   9
ATOM      4  C   UNL     1       3.615   3.806  19.374  0.00  0.00    +0.000 A 
ATOM      5  C   UNL     1       3.566   2.653  20.192  0.00  0.00    +0.000 A 
ATOM      6  C   UNL     1       2.749   2.575  21.325  0.00  0.00    +0.000 A 
ATOM      7  C   UNL     1       1.977   3.668  21.690  0.00  0.00    +0.000 A 
ATOM      8  C   UNL     1       1.988   4.817  20.892  0.00  0.00    +0.000 A 
ATOM      9  C   UNL     1       2.775   4.883  19.719  0.00  0.00    +0.000 A 
BRANCH   4  11
ATOM     10  C   UNL     1       4.500   3.828  17.017  0.00  0.00    +0.000 C 
ATOM     11  C   UNL     1       4.678   3.850  18.353  0.00  0.00    +0.000 C 
BRANCH  10  12
ATOM     12  C   UNL     1       5.629   3.670  16.030  0.00  0.00    +0.000 C 
BRANCH  12  13
ATOM     13  N   UNL     1       6.224   4.939  15.557  0.00  0.00    +0.000 NA
BRANCH  13  15
ATOM     14  C   UNL     1       6.097   3.765  13.289  0.00  0.00    +0.000 C 
ATOM     15  C   UNL     1       6.802   4.768  14.199  0.00  0.00    +0.000 C 
ENDBRANCH  13  15
BRANCH  13  16
ATOM     16  C   UNL     1       7.303   5.356  16.502  0.00  0.00    +0.000 C 
BRANCH  16  17
ATOM     17  C   UNL     1       6.978   6.635  17.296  0.00  0.00    +0.000 C 
BRANCH  17  18
ATOM     18  O   UNL     1       7.831   7.702  16.896  0.00  0.00    +0.000 OA
ATOM     19  H   UNL     1       7.230   8.449  16.700  0.00  0.00    +0.000 HD
ENDBRANCH  17  18
ENDBRANCH  16  17
ENDBRANCH  13  16
ENDBRANCH  12  13
ENDBRANCH  10  12
ENDBRANCH   4  11
ENDBRANCH   1   9
BRANCH   1  20
ATOM     20  N   UNL     1       2.022   7.519  19.864  0.00  0.00    +0.000 N 
ATOM     21  H   UNL     1       1.757   7.115  20.765  0.00  0.00    +0.000 HD
BRANCH  20  22
ATOM     22  C   UNL     1       1.380   8.746  19.515  0.00  0.00    +0.000 A 
ATOM     23  C   UNL     1       1.642   9.326  18.276  0.00  0.00    +0.000 A 
ATOM     24  C   UNL     1       1.343  10.680  18.054  0.00  0.00    +0.000 A 
ATOM     25  C   UNL     1       0.826  11.499  19.078  0.00  0.00    +0.000 A 
ATOM     26  C   UNL     1       0.560  10.920  20.328  0.00  0.00    +0.000 A 
ATOM     27  C   UNL     1       0.764   9.526  20.510  0.00  0.00    +0.000 A 
ATOM     28  C   UNL     1       0.259  11.770  21.536  0.00  0.00    +0.000 C 
ATOM     29  C   UNL     1       0.070  13.266  21.345  0.00  0.00    +0.000 C 
ATOM     30  C   UNL     1      -0.059  13.775  19.921  0.00  0.00    +0.000 C 
ATOM     31  C   UNL     1       0.654  12.974  18.831  0.00  0.00    +0.000 C 
BRANCH  27  32
ATOM     32  C   UNL     1       0.301   8.883  21.755  0.00  0.00    +0.000 C 
ATOM     33  O   UNL     1       0.759   9.060  22.874  0.00  0.00    +0.000 OA
BRANCH  32  34
ATOM     34  O   UNL     1      -0.707   8.017  21.551  0.00  0.00    +0.000 OA
ATOM     35  H   UNL     1      -1.463   8.482  21.969  0.00  0.00    +0.000 HD
ENDBRANCH  32  34
ENDBRANCH  27  32
ENDBRANCH  20  22
ENDBRANCH   1  20
TORSDOF 12
ENDMDL
MODEL 8
REMARK VINA RESULT:      -6.9      4.048      5.845
REMARK  Name = 
REMARK  13 active torsions:
REMARK  status: ('A' for Active; 'I' for Inactive)
REMARK    1  A    between atoms: C_1  and  C_2
REMARK    2  A    between atoms: C_2  and  N_3
REMARK    3  A    between atoms: N_3  and  C_4
REMARK    4  A    between atoms: N_3  and  C_30
REMARK    5  A    between atoms: C_4  and  C_5
REMARK    6  A    between atoms: C_6  and  C_7
REMARK    7  A    between atoms: C_12  and  S_13
REMARK    8  A    between atoms: S_13  and  N_16
REMARK    9  A    between atoms: N_16  and  C_17
REMARK   10  A    between atoms: C_22  and  C_23
REMARK   11  A    between atoms: C_23  and  O_25
REMARK   12  A    between atoms: C_30  and  C_31
REMARK   13  A    between atoms: C_31  and  O_32
REMARK                            x       y       z     vdW  Elec       q    Type
REMARK                         _______ _______ _______ _____ _____    ______ ____
ROOT
ATOM      1  S   UNL     1       0.928  11.500  18.829  0.00  0.00    +0.000 S 
ATOM      2  O   UNL     1       0.852  12.796  19.487  0.00  0.00    +0.000 OA
ATOM      3  O   UNL     1       2.039  11.208  17.957  0.00  0.00    +0.000 OA
ENDROOT
BRANCH   1   9
ATOM      4  C   UNL     1       1.266   8.956  20.023  0.00  0.00    +0.000 A 
ATOM      5  C   UNL     1       1.107   8.108  21.145  0.00  0.00    +0.000 A 
ATOM      6  C   UNL     1       0.533   8.551  22.341  0.00  0.00    +0.000 A 
ATOM      7  C   UNL     1       0.128   9.873  22.459  0.00  0.00    +0.000 A 
ATOM      8  C   UNL     1       0.254  10.732  21.363  0.00  0.00    +0.000 A 
ATOM      9  C   UNL     1       0.789  10.276  20.135  0.00  0.00    +0.000 A 
BRANCH   4  11
ATOM     10  C   UNL     1       2.331   7.142  18.640  0.00  0.00    +0.000 C 
ATOM     11  C   UNL     1       2.089   8.440  18.914  0.00  0.00    +0.000 C 
BRANCH  10  12
ATOM     12  C   UNL     1       3.341   6.682  17.619  0.00  0.00    +0.000 C 
BRANCH  12  13
ATOM     13  N   UNL     1       3.974   5.377  17.913  0.00  0.00    +0.000 NA
BRANCH  13  15
ATOM     14  C   UNL     1       2.336   3.513  17.295  0.00  0.00    +0.000 C 
ATOM     15  C   UNL     1       2.956   4.398  18.374  0.00  0.00    +0.000 C 
ENDBRANCH  13  15
BRANCH  13  16
ATOM     16  C   UNL     1       5.000   5.561  18.981  0.00  0.00    +0.000 C 
BRANCH  16  17
ATOM     17  C   UNL     1       5.907   4.335  19.194  0.00  0.00    +0.000 C 
BRANCH  17  18
ATOM     18  O   UNL     1       6.656   4.057  18.015  0.00  0.00    +0.000 OA
ATOM     19  H   UNL     1       6.143   4.459  17.287  0.00  0.00    +0.000 HD
ENDBRANCH  17  18
ENDBRANCH  16  17
ENDBRANCH  13  16
ENDBRANCH  12  13
ENDBRANCH  10  12
ENDBRANCH   4  11
ENDBRANCH   1   9
BRANCH   1  20
ATOM     20  N   UNL     1      -0.489  11.377  17.969  0.00  0.00    +0.000 N 
ATOM     21  H   UNL     1      -0.355  11.202  16.971  0.00  0.00    +0.000 HD
BRANCH  20  22
ATOM     22  C   UNL     1      -1.763  11.900  18.346  0.00  0.00    +0.000 A 
ATOM     23  C   UNL     1      -1.883  12.610  19.539  0.00  0.00    +0.000 A 
ATOM     24  C   UNL     1      -3.147  12.804  20.120  0.00  0.00    +0.000 A 
ATOM     25  C   UNL     1      -4.313  12.250  19.552  0.00  0.00    +0.000 A 
ATOM     26  C   UNL     1      -4.197  11.535  18.350  0.00  0.00    +0.000 A 
ATOM     27  C   UNL     1      -2.930  11.436  17.715  0.00  0.00    +0.000 A 
ATOM     28  C   UNL     1      -5.336  10.699  17.824  0.00  0.00    +0.000 C 
ATOM     29  C   UNL     1      -6.683  10.783  18.523  0.00  0.00    +0.000 C 
ATOM     30  C   UNL     1      -6.871  11.890  19.544  0.00  0.00    +0.000 C 
ATOM     31  C   UNL     1      -5.622  12.368  20.285  0.00  0.00    +0.000 C 
BRANCH  27  32
ATOM     32  C   UNL     1      -2.843  10.857  16.360  0.00  0.00    +0.000 C 
ATOM     33  O   UNL     1      -2.450   9.736  16.076  0.00  0.00    +0.000 OA
BRANCH  32  34
ATOM     34  O   UNL     1      -3.229  11.717  15.400  0.00  0.00    +0.000 OA
ATOM     35  H   UNL     1      -4.007  11.258  15.017  0.00  0.00    +0.000 HD
ENDBRANCH  32  34
ENDBRANCH  27  32
ENDBRANCH  20  22
ENDBRANCH   1  20
TORSDOF 12
ENDMDL
MODEL 9
REMARK VINA RESULT:      -6.9      1.071      1.268
REMARK  Name = 
REMARK  13 active torsions:
REMARK  status: ('A' for Active; 'I' for Inactive)
REMARK    1  A    between atoms: C_1  and  C_2
REMARK    2  A    between atoms: C_2  and  N_3
REMARK    3  A    between atoms: N_3  and  C_4
REMARK    4  A    between atoms: N_3  and  C_30
REMARK    5  A    between atoms: C_4  and  C_5
REMARK    6  A    between atoms: C_6  and  C_7
REMARK    7  A    between atoms: C_12  and  S_13
REMARK    8  A    between atoms: S_13  and  N_16
REMARK    9  A    between atoms: N_16  and  C_17
REMARK   10  A    between atoms: C_22  and  C_23
REMARK   11  A    between atoms: C_23  and  O_25
REMARK   12  A    between atoms: C_30  and  C_31
REMARK   13  A    between atoms: C_31  and  O_32
REMARK                            x       y       z     vdW  Elec       q    Type
REMARK                         _______ _______ _______ _____ _____    ______ ____
ROOT
ATOM      1  S   UNL     1       2.712   6.652  18.916  0.00  0.00    +0.000 S 
ATOM      2  O   UNL     1       4.141   6.768  19.163  0.00  0.00    +0.000 OA
ATOM      3  O   UNL     1       2.196   6.896  17.590  0.00  0.00    +0.000 OA
ENDROOT
BRANCH   1   9
ATOM      4  C   UNL     1       2.283   3.861  18.709  0.00  0.00    +0.000 A 
ATOM      5  C   UNL     1       1.903   2.641  19.317  0.00  0.00    +0.000 A 
ATOM      6  C   UNL     1       1.528   2.561  20.662  0.00  0.00    +0.000 A 
ATOM      7  C   UNL     1       1.555   3.703  21.450  0.00  0.00    +0.000 A 
ATOM      8  C   UNL     1       1.908   4.928  20.877  0.00  0.00    +0.000 A 
ATOM      9  C   UNL     1       2.240   5.023  19.504  0.00  0.00    +0.000 A 
BRANCH   4  11
ATOM     10  C   UNL     1       4.159   4.021  17.038  0.00  0.00    +0.000 C 
ATOM     11  C   UNL     1       2.874   3.774  17.362  0.00  0.00    +0.000 C 
BRANCH  10  12
ATOM     12  C   UNL     1       4.656   4.113  15.617  0.00  0.00    +0.000 C 
BRANCH  12  13
ATOM     13  N   UNL     1       5.714   5.123  15.392  0.00  0.00    +0.000 NA
BRANCH  13  15
ATOM     14  C   UNL     1       6.277   3.842  13.253  0.00  0.00    +0.000 C 
ATOM     15  C   UNL     1       6.767   4.582  14.495  0.00  0.00    +0.000 C 
ENDBRANCH  13  15
BRANCH  13  16
ATOM     16  C   UNL     1       6.326   5.490  16.704  0.00  0.00    +0.000 C 
BRANCH  16  17
ATOM     17  C   UNL     1       7.550   4.637  17.083  0.00  0.00    +0.000 C 
BRANCH  17  18
ATOM     18  O   UNL     1       7.446   4.184  18.429  0.00  0.00    +0.000 OA
ATOM     19  H   UNL     1       6.849   4.823  18.867  0.00  0.00    +0.000 HD
ENDBRANCH  17  18
ENDBRANCH  16  17
ENDBRANCH  13  16
ENDBRANCH  12  13
ENDBRANCH  10  12
ENDBRANCH   4  11
ENDBRANCH   1   9
BRANCH   1  20
ATOM     20  N   UNL     1       2.008   7.717  19.980  0.00  0.00    +0.000 N 
ATOM     21  H   UNL     1       1.920   7.355  20.933  0.00  0.00    +0.000 HD
BRANCH  20  22
ATOM     22  C   UNL     1       1.160   8.817  19.649  0.00  0.00    +0.000 A 
ATOM     23  C   UNL     1       1.140   9.293  18.340  0.00  0.00    +0.000 A 
ATOM     24  C   UNL     1       0.631  10.572  18.062  0.00  0.00    +0.000 A 
ATOM     25  C   UNL     1       0.181  11.426  19.089  0.00  0.00    +0.000 A 
ATOM     26  C   UNL     1       0.200  10.952  20.410  0.00  0.00    +0.000 A 
ATOM     27  C   UNL     1       0.614   9.617  20.667  0.00  0.00    +0.000 A 
ATOM     28  C   UNL     1      -0.013  11.880  21.578  0.00  0.00    +0.000 C 
ATOM     29  C   UNL     1      -0.428  13.316  21.300  0.00  0.00    +0.000 C 
ATOM     30  C   UNL     1      -0.851  13.657  19.883  0.00  0.00    +0.000 C 
ATOM     31  C   UNL     1      -0.223  12.837  18.756  0.00  0.00    +0.000 C 
BRANCH  27  32
ATOM     32  C   UNL     1       0.448   9.057  22.022  0.00  0.00    +0.000 C 
ATOM     33  O   UNL     1       1.228   9.175  22.955  0.00  0.00    +0.000 OA
BRANCH  32  34
ATOM     34  O   UNL     1      -0.683   8.341  22.155  0.00  0.00    +0.000 OA
ATOM     35  H   UNL     1      -1.207   8.901  22.768  0.00  0.00    +0.000 HD
ENDBRANCH  32  34
ENDBRANCH  27  32
ENDBRANCH  20  22
ENDBRANCH   1  20
TORSDOF 12
ENDMDL
