MODEL 1
REMARK VINA RESULT:      -7.7      0.000      0.000
REMARK  Name = 
REMARK  12 active torsions:
REMARK  status: ('A' for Active; 'I' for Inactive)
REMARK    1  A    between atoms: C_1  and  C_2
REMARK    2  A    between atoms: C_2  and  C_3
REMARK    3  A    between atoms: C_3  and  C_4
REMARK    4  A    between atoms: C_4  and  C_5
REMARK    5  A    between atoms: C_5  and  C_6
REMARK    6  A    between atoms: C_6  and  C_7
REMARK    7  A    between atoms: C_15  and  C_16
REMARK    8  A    between atoms: C_16  and  O_18
REMARK    9  A    between atoms: O_18  and  C_19
REMARK   10  A    between atoms: C_19  and  C_20
REMARK   11  A    between atoms: C_27  and  O_28
REMARK   12  A    between atoms: O_28  and  C_29
REMARK                            x       y       z     vdW  Elec       q    Type
REMARK                         _______ _______ _______ _____ _____    ______ ____
ROOT
ATOM      1  C   UNL     1       4.750   4.435  17.099  0.00  0.00    +0.000 A 
ATOM      2  N   UNL     1       3.938   3.730  17.957  0.00  0.00    +0.000 N 
ATOM      3  C   UNL     1       3.141   4.592  18.699  0.00  0.00    +0.000 A 
ATOM      4  C   UNL     1       2.225   4.331  19.727  0.00  0.00    +0.000 A 
ATOM      5  C   UNL     1       1.553   5.424  20.320  0.00  0.00    +0.000 A 
ATOM      6  C   UNL     1       1.742   6.746  19.879  0.00  0.00    +0.000 A 
ATOM      7  C   UNL     1       2.621   6.962  18.793  0.00  0.00    +0.000 A 
ATOM      8  C   UNL     1       3.374   5.872  18.246  0.00  0.00    +0.000 A 
ATOM      9  C   UNL     1       4.421   5.777  17.238  0.00  0.00    +0.000 A 
ATOM     10  C   UNL     1       2.747   8.346  18.238  0.00  0.00    +0.000 C 
ATOM     11  N   UNL     1       1.783   9.280  18.741  0.00  0.00    +0.000 NA
ATOM     12  C   UNL     1       0.534   9.496  17.992  0.00  0.00    +0.000 C 
ATOM     13  C   UNL     1      -0.792   9.628  18.841  0.00  0.00    +0.000 C 
ATOM     14  C   UNL     1      -0.521  10.535  20.031  0.00  0.00    +0.000 A 
ATOM     15  C   UNL     1      -1.262  11.729  20.132  0.00  0.00    +0.000 A 
ATOM     16  C   UNL     1      -0.575  12.933  20.255  0.00  0.00    +0.000 A 
ATOM     17  C   UNL     1       0.816  12.895  20.326  0.00  0.00    +0.000 A 
ATOM     18  C   UNL     1       1.488  11.668  20.504  0.00  0.00    +0.000 A 
ATOM     19  C   UNL     1       0.801  10.433  20.487  0.00  0.00    +0.000 A 
ATOM     20  C   UNL     1       1.589   9.123  20.162  0.00  0.00    +0.000 C 
ATOM     21  O   UNL     1       1.033   7.801  20.474  0.00  0.00    +0.000 OA
ATOM     22  H   UNL     1       3.943   2.719  18.064  0.00  0.00    +0.000 HD
ENDROOT
BRANCH   9  23
ATOM     23  C   UNL     1       5.075   6.886  16.542  0.00  0.00    +0.000 C 
ATOM     24  O   UNL     1       4.854   7.166  15.372  0.00  0.00    +0.000 OA
BRANCH  23  25
ATOM     25  O   UNL     1       6.011   7.503  17.316  0.00  0.00    +0.000 OA
BRANCH  25  26
ATOM     26  C   UNL     1       7.343   6.998  17.154  0.00  0.00    +0.000 C 
ATOM     27  C   UNL     1       7.762   6.429  18.499  0.00  0.00    +0.000 C 
ENDBRANCH  25  26
ENDBRANCH  23  25
ENDBRANCH   9  23
BRANCH  16  28
ATOM     28  O   UNL     1      -1.148  14.170  20.121  0.00  0.00    +0.000 OA
ATOM     29  C   UNL     1      -2.430  14.310  20.732  0.00  0.00    +0.000 C 
ENDBRANCH  16  28
BRANCH   1  30
ATOM     30  C   UNL     1       5.855   3.791  16.295  0.00  0.00    +0.000 C 
BRANCH  30  31
ATOM     31  C   UNL     1       5.562   3.981  14.803  0.00  0.00    +0.000 C 
BRANCH  31  32
ATOM     32  C   UNL     1       6.711   4.587  13.994  0.00  0.00    +0.000 C 
BRANCH  32  33
ATOM     33  C   UNL     1       6.722   3.956  12.595  0.00  0.00    +0.000 C 
BRANCH  33  35
ATOM     34  C   UNL     1       5.654   1.979  11.477  0.00  0.00    +0.000 C 
ATOM     35  C   UNL     1       5.405   3.274  12.239  0.00  0.00    +0.000 C 
ENDBRANCH  33  35
ENDBRANCH  32  33
ENDBRANCH  31  32
ENDBRANCH  30  31
ENDBRANCH   1  30
TORSDOF 9
ENDMDL
MODEL 2
REMARK VINA RESULT:      -6.6      2.848      5.082
REMARK  Name = 
REMARK  12 active torsions:
REMARK  status: ('A' for Active; 'I' for Inactive)
REMARK    1  A    between atoms: C_1  and  C_2
REMARK    2  A    between atoms: C_2  and  C_3
REMARK    3  A    between atoms: C_3  and  C_4
REMARK    4  A    between atoms: C_4  and  C_5
REMARK    5  A    between atoms: C_5  and  C_6
REMARK    6  A    between atoms: C_6  and  C_7
REMARK    7  A    between atoms: C_15  and  C_16
REMARK    8  A    between atoms: C_16  and  O_18
REMARK    9  A    between atoms: O_18  and  C_19
REMARK   10  A    between atoms: C_19  and  C_20
REMARK   11  A    between atoms: C_27  and  O_28
REMARK   12  A    between atoms: O_28  and  C_29
REMARK                            x       y       z     vdW  Elec       q    Type
REMARK                         _______ _______ _______ _____ _____    ______ ____
ROOT
ATOM      1  C   UNL     1       1.794   6.816  20.042  0.00  0.00    +0.000 A 
ATOM      2  N   UNL     1       1.155   7.018  21.244  0.00  0.00    +0.000 N 
ATOM      3  C   UNL     1       0.914   8.369  21.452  0.00  0.00    +0.000 A 
ATOM      4  C   UNL     1       0.358   9.039  22.550  0.00  0.00    +0.000 A 
ATOM      5  C   UNL     1       0.243  10.446  22.490  0.00  0.00    +0.000 A 
ATOM      6  C   UNL     1       0.623  11.178  21.352  0.00  0.00    +0.000 A 
ATOM      7  C   UNL     1       1.114  10.462  20.236  0.00  0.00    +0.000 A 
ATOM      8  C   UNL     1       1.319   9.045  20.322  0.00  0.00    +0.000 A 
ATOM      9  C   UNL     1       1.903   8.057  19.426  0.00  0.00    +0.000 A 
ATOM     10  C   UNL     1       1.416  11.214  18.978  0.00  0.00    +0.000 C 
ATOM     11  N   UNL     1       0.963  12.573  18.973  0.00  0.00    +0.000 NA
ATOM     12  C   UNL     1      -0.356  12.889  18.403  0.00  0.00    +0.000 C 
ATOM     13  C   UNL     1      -1.236  13.944  19.183  0.00  0.00    +0.000 C 
ATOM     14  C   UNL     1      -0.351  15.110  19.592  0.00  0.00    +0.000 A 
ATOM     15  C   UNL     1      -0.665  16.386  19.085  0.00  0.00    +0.000 A 
ATOM     16  C   UNL     1       0.320  17.097  18.407  0.00  0.00    +0.000 A 
ATOM     17  C   UNL     1       1.591  16.533  18.308  0.00  0.00    +0.000 A 
ATOM     18  C   UNL     1       1.928  15.395  19.070  0.00  0.00    +0.000 A 
ATOM     19  C   UNL     1       0.968  14.711  19.851  0.00  0.00    +0.000 A 
ATOM     20  C   UNL     1       1.220  13.218  20.238  0.00  0.00    +0.000 C 
ATOM     21  O   UNL     1       0.465  12.573  21.319  0.00  0.00    +0.000 OA
ATOM     22  H   UNL     1       0.924   6.284  21.909  0.00  0.00    +0.000 HD
ENDROOT
BRANCH   9  23
ATOM     23  C   UNL     1       2.561   8.312  18.145  0.00  0.00    +0.000 C 
ATOM     24  O   UNL     1       1.986   8.803  17.183  0.00  0.00    +0.000 OA
BRANCH  23  25
ATOM     25  O   UNL     1       3.847   7.860  18.123  0.00  0.00    +0.000 OA
BRANCH  25  26
ATOM     26  C   UNL     1       4.171   7.046  16.988  0.00  0.00    +0.000 C 
ATOM     27  C   UNL     1       5.356   6.186  17.392  0.00  0.00    +0.000 C 
ENDBRANCH  25  26
ENDBRANCH  23  25
ENDBRANCH   9  23
BRANCH  16  28
ATOM     28  O   UNL     1       0.091  18.224  17.663  0.00  0.00    +0.000 OA
ATOM     29  C   UNL     1       0.948  18.386  16.535  0.00  0.00    +0.000 C 
ENDBRANCH  16  28
BRANCH   1  30
ATOM     30  C   UNL     1       2.351   5.478  19.618  0.00  0.00    +0.000 C 
BRANCH  30  31
ATOM     31  C   UNL     1       2.154   4.472  20.757  0.00  0.00    +0.000 C 
BRANCH  31  32
ATOM     32  C   UNL     1       1.018   3.470  20.542  0.00  0.00    +0.000 C 
BRANCH  32  33
ATOM     33  C   UNL     1       1.060   2.973  19.091  0.00  0.00    +0.000 C 
BRANCH  33  35
ATOM     34  C   UNL     1       3.103   2.274  17.811  0.00  0.00    +0.000 C 
ATOM     35  C   UNL     1       2.087   1.866  18.870  0.00  0.00    +0.000 C 
ENDBRANCH  33  35
ENDBRANCH  32  33
ENDBRANCH  31  32
ENDBRANCH  30  31
ENDBRANCH   1  30
TORSDOF 9
ENDMDL
MODEL 3
REMARK VINA RESULT:      -6.6      3.782      7.586
REMARK  Name = 
REMARK  12 active torsions:
REMARK  status: ('A' for Active; 'I' for Inactive)
REMARK    1  A    between atoms: C_1  and  C_2
REMARK    2  A    between atoms: C_2  and  C_3
REMARK    3  A    between atoms: C_3  and  C_4
REMARK    4  A    between atoms: C_4  and  C_5
REMARK    5  A    between atoms: C_5  and  C_6
REMARK    6  A    between atoms: C_6  and  C_7
REMARK    7  A    between atoms: C_15  and  C_16
REMARK    8  A    between atoms: C_16  and  O_18
REMARK    9  A    between atoms: O_18  and  C_19
REMARK   10  A    between atoms: C_19  and  C_20
REMARK   11  A    between atoms: C_27  and  O_28
REMARK   12  A    between atoms: O_28  and  C_29
REMARK                            x       y       z     vdW  Elec       q    Type
REMARK                         _______ _______ _______ _____ _____    ______ ____
ROOT
ATOM      1  C   UNL     1       0.512  10.226  18.553  0.00  0.00    +0.000 A 
ATOM      2  N   UNL     1      -0.306  10.135  17.450  0.00  0.00    +0.000 N 
ATOM      3  C   UNL     1      -1.565  10.650  17.729  0.00  0.00    +0.000 A 
ATOM      4  C   UNL     1      -2.724  10.704  16.942  0.00  0.00    +0.000 A 
ATOM      5  C   UNL     1      -3.886  11.285  17.499  0.00  0.00    +0.000 A 
ATOM      6  C   UNL     1      -3.897  11.845  18.788  0.00  0.00    +0.000 A 
ATOM      7  C   UNL     1      -2.691  11.835  19.525  0.00  0.00    +0.000 A 
ATOM      8  C   UNL     1      -1.533  11.168  19.004  0.00  0.00    +0.000 A 
ATOM      9  C   UNL     1      -0.211  10.879  19.543  0.00  0.00    +0.000 A 
ATOM     10  C   UNL     1      -2.655  12.528  20.851  0.00  0.00    +0.000 C 
ATOM     11  N   UNL     1      -3.811  13.325  21.138  0.00  0.00    +0.000 NA
ATOM     12  C   UNL     1      -3.795  14.759  20.808  0.00  0.00    +0.000 C 
ATOM     13  C   UNL     1      -5.116  15.362  20.186  0.00  0.00    +0.000 C 
ATOM     14  C   UNL     1      -6.309  14.835  20.967  0.00  0.00    +0.000 A 
ATOM     15  C   UNL     1      -7.125  15.769  21.635  0.00  0.00    +0.000 A 
ATOM     16  C   UNL     1      -7.353  15.604  22.997  0.00  0.00    +0.000 A 
ATOM     17  C   UNL     1      -6.805  14.489  23.628  0.00  0.00    +0.000 A 
ATOM     18  C   UNL     1      -6.239  13.445  22.867  0.00  0.00    +0.000 A 
ATOM     19  C   UNL     1      -6.089  13.542  21.465  0.00  0.00    +0.000 A 
ATOM     20  C   UNL     1      -5.025  12.651  20.746  0.00  0.00    +0.000 C 
ATOM     21  O   UNL     1      -5.063  12.440  19.293  0.00  0.00    +0.000 OA
ATOM     22  H   UNL     1      -0.041   9.716  16.563  0.00  0.00    +0.000 HD
ENDROOT
BRANCH   9  23
ATOM     23  C   UNL     1       0.263  11.145  20.901  0.00  0.00    +0.000 C 
ATOM     24  O   UNL     1       0.979  12.097  21.186  0.00  0.00    +0.000 OA
BRANCH  23  25
ATOM     25  O   UNL     1      -0.109  10.174  21.781  0.00  0.00    +0.000 OA
BRANCH  25  26
ATOM     26  C   UNL     1       0.965   9.336  22.229  0.00  0.00    +0.000 C 
ATOM     27  C   UNL     1       0.787   7.992  21.543  0.00  0.00    +0.000 C 
ENDBRANCH  25  26
ENDBRANCH  23  25
ENDBRANCH   9  23
BRANCH  16  28
ATOM     28  O   UNL     1      -7.917  16.552  23.810  0.00  0.00    +0.000 OA
ATOM     29  C   UNL     1      -7.770  17.897  23.358  0.00  0.00    +0.000 C 
ENDBRANCH  16  28
BRANCH   1  30
ATOM     30  C   UNL     1       1.879   9.587  18.620  0.00  0.00    +0.000 C 
BRANCH  30  31
ATOM     31  C   UNL     1       1.835   8.237  17.897  0.00  0.00    +0.000 C 
BRANCH  31  32
ATOM     32  C   UNL     1       3.168   7.485  17.857  0.00  0.00    +0.000 C 
BRANCH  32  33
ATOM     33  C   UNL     1       3.025   6.176  18.644  0.00  0.00    +0.000 C 
BRANCH  33  35
ATOM     34  C   UNL     1       2.875   3.930  17.532  0.00  0.00    +0.000 C 
ATOM     35  C   UNL     1       2.102   5.169  17.963  0.00  0.00    +0.000 C 
ENDBRANCH  33  35
ENDBRANCH  32  33
ENDBRANCH  31  32
ENDBRANCH  30  31
ENDBRANCH   1  30
TORSDOF 9
ENDMDL
MODEL 4
REMARK VINA RESULT:      -6.5      3.351      7.283
REMARK  Name = 
REMARK  12 active torsions:
REMARK  status: ('A' for Active; 'I' for Inactive)
REMARK    1  A    between atoms: C_1  and  C_2
REMARK    2  A    between atoms: C_2  and  C_3
REMARK    3  A    between atoms: C_3  and  C_4
REMARK    4  A    between atoms: C_4  and  C_5
REMARK    5  A    between atoms: C_5  and  C_6
REMARK    6  A    between atoms: C_6  and  C_7
REMARK    7  A    between atoms: C_15  and  C_16
REMARK    8  A    between atoms: C_16  and  O_18
REMARK    9  A    between atoms: O_18  and  C_19
REMARK   10  A    between atoms: C_19  and  C_20
REMARK   11  A    between atoms: C_27  and  O_28
REMARK   12  A    between atoms: O_28  and  C_29
REMARK                            x       y       z     vdW  Elec       q    Type
REMARK                         _______ _______ _______ _____ _____    ______ ____
ROOT
ATOM      1  C   UNL     1       0.824   9.937  18.436  0.00  0.00    +0.000 A 
ATOM      2  N   UNL     1      -0.158   9.876  17.474  0.00  0.00    +0.000 N 
ATOM      3  C   UNL     1      -1.304  10.535  17.899  0.00  0.00    +0.000 A 
ATOM      4  C   UNL     1      -2.559  10.670  17.289  0.00  0.00    +0.000 A 
ATOM      5  C   UNL     1      -3.561  11.398  17.970  0.00  0.00    +0.000 A 
ATOM      6  C   UNL     1      -3.320  12.023  19.206  0.00  0.00    +0.000 A 
ATOM      7  C   UNL     1      -2.022  11.925  19.757  0.00  0.00    +0.000 A 
ATOM      8  C   UNL     1      -1.027  11.113  19.118  0.00  0.00    +0.000 A 
ATOM      9  C   UNL     1       0.327  10.713  19.475  0.00  0.00    +0.000 A 
ATOM     10  C   UNL     1      -1.717  12.678  21.014  0.00  0.00    +0.000 C 
ATOM     11  N   UNL     1      -2.733  13.606  21.413  0.00  0.00    +0.000 NA
ATOM     12  C   UNL     1      -2.629  15.012  20.988  0.00  0.00    +0.000 C 
ATOM     13  C   UNL     1      -3.965  15.717  20.527  0.00  0.00    +0.000 C 
ATOM     14  C   UNL     1      -5.070  15.360  21.509  0.00  0.00    +0.000 A 
ATOM     15  C   UNL     1      -5.680  16.409  22.225  0.00  0.00    +0.000 A 
ATOM     16  C   UNL     1      -5.712  16.341  23.614  0.00  0.00    +0.000 A 
ATOM     17  C   UNL     1      -5.184  15.209  24.231  0.00  0.00    +0.000 A 
ATOM     18  C   UNL     1      -4.845  14.072  23.468  0.00  0.00    +0.000 A 
ATOM     19  C   UNL     1      -4.902  14.080  22.056  0.00  0.00    +0.000 A 
ATOM     20  C   UNL     1      -4.052  13.045  21.250  0.00  0.00    +0.000 C 
ATOM     21  O   UNL     1      -4.332  12.764  19.836  0.00  0.00    +0.000 OA
ATOM     22  H   UNL     1      -0.074   9.385  16.587  0.00  0.00    +0.000 HD
ENDROOT
BRANCH   9  23
ATOM     23  C   UNL     1       1.027  10.999  20.728  0.00  0.00    +0.000 C 
ATOM     24  O   UNL     1       1.535  12.084  20.979  0.00  0.00    +0.000 OA
BRANCH  23  25
ATOM     25  O   UNL     1       1.121   9.903  21.531  0.00  0.00    +0.000 OA
BRANCH  25  26
ATOM     26  C   UNL     1      -0.140   9.327  21.901  0.00  0.00    +0.000 C 
ATOM     27  C   UNL     1      -0.559   9.991  23.201  0.00  0.00    +0.000 C 
ENDBRANCH  25  26
ENDBRANCH  23  25
ENDBRANCH   9  23
BRANCH  16  28
ATOM     28  O   UNL     1      -6.050  17.384  24.435  0.00  0.00    +0.000 OA
ATOM     29  C   UNL     1      -5.019  17.810  25.323  0.00  0.00    +0.000 C 
ENDBRANCH  16  28
BRANCH   1  30
ATOM     30  C   UNL     1       2.117   9.162  18.344  0.00  0.00    +0.000 C 
BRANCH  30  31
ATOM     31  C   UNL     1       1.921   7.786  18.989  0.00  0.00    +0.000 C 
BRANCH  31  32
ATOM     32  C   UNL     1       2.425   6.606  18.154  0.00  0.00    +0.000 C 
BRANCH  32  33
ATOM     33  C   UNL     1       3.630   5.973  18.862  0.00  0.00    +0.000 C 
BRANCH  33  35
ATOM     34  C   UNL     1       4.820   6.628  16.750  0.00  0.00    +0.000 C 
ATOM     35  C   UNL     1       4.773   5.638  17.907  0.00  0.00    +0.000 C 
ENDBRANCH  33  35
ENDBRANCH  32  33
ENDBRANCH  31  32
ENDBRANCH  30  31
ENDBRANCH   1  30
TORSDOF 9
ENDMDL
MODEL 5
REMARK VINA RESULT:      -6.5      3.706      7.187
REMARK  Name = 
REMARK  12 active torsions:
REMARK  status: ('A' for Active; 'I' for Inactive)
REMARK    1  A    between atoms: C_1  and  C_2
REMARK    2  A    between atoms: C_2  and  C_3
REMARK    3  A    between atoms: C_3  and  C_4
REMARK    4  A    between atoms: C_4  and  C_5
REMARK    5  A    between atoms: C_5  and  C_6
REMARK    6  A    between atoms: C_6  and  C_7
REMARK    7  A    between atoms: C_15  and  C_16
REMARK    8  A    between atoms: C_16  and  O_18
REMARK    9  A    between atoms: O_18  and  C_19
REMARK   10  A    between atoms: C_19  and  C_20
REMARK   11  A    between atoms: C_27  and  O_28
REMARK   12  A    between atoms: O_28  and  C_29
REMARK                            x       y       z     vdW  Elec       q    Type
REMARK                         _______ _______ _______ _____ _____    ______ ____
ROOT
ATOM      1  C   UNL     1       0.884   9.768  18.449  0.00  0.00    +0.000 A 
ATOM      2  N   UNL     1      -0.060   9.752  17.448  0.00  0.00    +0.000 N 
ATOM      3  C   UNL     1      -1.206  10.429  17.842  0.00  0.00    +0.000 A 
ATOM      4  C   UNL     1      -2.431  10.608  17.186  0.00  0.00    +0.000 A 
ATOM      5  C   UNL     1      -3.442  11.346  17.842  0.00  0.00    +0.000 A 
ATOM      6  C   UNL     1      -3.237  11.938  19.101  0.00  0.00    +0.000 A 
ATOM      7  C   UNL     1      -1.965  11.795  19.701  0.00  0.00    +0.000 A 
ATOM      8  C   UNL     1      -0.965  10.973  19.084  0.00  0.00    +0.000 A 
ATOM      9  C   UNL     1       0.364  10.533  19.486  0.00  0.00    +0.000 A 
ATOM     10  C   UNL     1      -1.694  12.513  20.985  0.00  0.00    +0.000 C 
ATOM     11  N   UNL     1      -2.703  13.457  21.365  0.00  0.00    +0.000 NA
ATOM     12  C   UNL     1      -2.549  14.868  20.977  0.00  0.00    +0.000 C 
ATOM     13  C   UNL     1      -3.848  15.617  20.479  0.00  0.00    +0.000 C 
ATOM     14  C   UNL     1      -5.000  15.266  21.408  0.00  0.00    +0.000 A 
ATOM     15  C   UNL     1      -5.614  16.313  22.122  0.00  0.00    +0.000 A 
ATOM     16  C   UNL     1      -5.703  16.215  23.507  0.00  0.00    +0.000 A 
ATOM     17  C   UNL     1      -5.227  15.057  24.119  0.00  0.00    +0.000 A 
ATOM     18  C   UNL     1      -4.885  13.929  23.344  0.00  0.00    +0.000 A 
ATOM     19  C   UNL     1      -4.885  13.970  21.931  0.00  0.00    +0.000 A 
ATOM     20  C   UNL     1      -4.027  12.932  21.136  0.00  0.00    +0.000 C 
ATOM     21  O   UNL     1      -4.257  12.689  19.707  0.00  0.00    +0.000 OA
ATOM     22  H   UNL     1       0.049   9.279  16.554  0.00  0.00    +0.000 HD
ENDROOT
BRANCH   9  23
ATOM     23  C   UNL     1       1.019  10.774  20.772  0.00  0.00    +0.000 C 
ATOM     24  O   UNL     1       1.481  11.860  21.094  0.00  0.00    +0.000 OA
BRANCH  23  25
ATOM     25  O   UNL     1       1.129   9.639  21.518  0.00  0.00    +0.000 OA
BRANCH  25  26
ATOM     26  C   UNL     1      -0.121   9.102  21.970  0.00  0.00    +0.000 C 
ATOM     27  C   UNL     1      -0.525   9.906  23.194  0.00  0.00    +0.000 C 
ENDBRANCH  25  26
ENDBRANCH  23  25
ENDBRANCH   9  23
BRANCH  16  28
ATOM     28  O   UNL     1      -6.050  17.248  24.338  0.00  0.00    +0.000 OA
ATOM     29  C   UNL     1      -5.041  17.638  25.267  0.00  0.00    +0.000 C 
ENDBRANCH  16  28
BRANCH   1  30
ATOM     30  C   UNL     1       2.161   8.963  18.392  0.00  0.00    +0.000 C 
BRANCH  30  31
ATOM     31  C   UNL     1       1.862   7.521  18.813  0.00  0.00    +0.000 C 
BRANCH  31  32
ATOM     32  C   UNL     1       2.832   6.475  18.261  0.00  0.00    +0.000 C 
BRANCH  32  33
ATOM     33  C   UNL     1       2.049   5.202  17.915  0.00  0.00    +0.000 C 
BRANCH  33  35
ATOM     34  C   UNL     1       2.485   2.754  17.566  0.00  0.00    +0.000 C 
ATOM     35  C   UNL     1       2.674   3.939  18.503  0.00  0.00    +0.000 C 
ENDBRANCH  33  35
ENDBRANCH  32  33
ENDBRANCH  31  32
ENDBRANCH  30  31
ENDBRANCH   1  30
TORSDOF 9
ENDMDL
MODEL 6
REMARK VINA RESULT:      -6.4      3.795      6.920
REMARK  Name = 
REMARK  12 active torsions:
REMARK  status: ('A' for Active; 'I' for Inactive)
REMARK    1  A    between atoms: C_1  and  C_2
REMARK    2  A    between atoms: C_2  and  C_3
REMARK    3  A    between atoms: C_3  and  C_4
REMARK    4  A    between atoms: C_4  and  C_5
REMARK    5  A    between atoms: C_5  and  C_6
REMARK    6  A    between atoms: C_6  and  C_7
REMARK    7  A    between atoms: C_15  and  C_16
REMARK    8  A    between atoms: C_16  and  O_18
REMARK    9  A    between atoms: O_18  and  C_19
REMARK   10  A    between atoms: C_19  and  C_20
REMARK   11  A    between atoms: C_27  and  O_28
REMARK   12  A    between atoms: O_28  and  C_29
REMARK                            x       y       z     vdW  Elec       q    Type
REMARK                         _______ _______ _______ _____ _____    ______ ____
ROOT
ATOM      1  C   UNL     1       1.189   9.119  19.398  0.00  0.00    +0.000 A 
ATOM      2  N   UNL     1       1.066   8.489  20.614  0.00  0.00    +0.000 N 
ATOM      3  C   UNL     1       0.345   9.274  21.504  0.00  0.00    +0.000 A 
ATOM      4  C   UNL     1       0.035   9.072  22.856  0.00  0.00    +0.000 A 
ATOM      5  C   UNL     1      -0.718  10.062  23.527  0.00  0.00    +0.000 A 
ATOM      6  C   UNL     1      -1.199  11.208  22.869  0.00  0.00    +0.000 A 
ATOM      7  C   UNL     1      -0.926  11.343  21.488  0.00  0.00    +0.000 A 
ATOM      8  C   UNL     1      -0.087  10.389  20.822  0.00  0.00    +0.000 A 
ATOM      9  C   UNL     1       0.470  10.305  19.479  0.00  0.00    +0.000 A 
ATOM     10  C   UNL     1      -1.526  12.497  20.749  0.00  0.00    +0.000 C 
ATOM     11  N   UNL     1      -2.505  13.236  21.490  0.00  0.00    +0.000 NA
ATOM     12  C   UNL     1      -3.928  12.887  21.348  0.00  0.00    +0.000 C 
ATOM     13  C   UNL     1      -4.797  12.887  22.667  0.00  0.00    +0.000 C 
ATOM     14  C   UNL     1      -4.456  14.128  23.477  0.00  0.00    +0.000 A 
ATOM     15  C   UNL     1      -5.486  15.055  23.728  0.00  0.00    +0.000 A 
ATOM     16  C   UNL     1      -5.291  16.384  23.367  0.00  0.00    +0.000 A 
ATOM     17  C   UNL     1      -4.061  16.747  22.821  0.00  0.00    +0.000 A 
ATOM     18  C   UNL     1      -2.974  15.848  22.852  0.00  0.00    +0.000 A 
ATOM     19  C   UNL     1      -3.120  14.519  23.311  0.00  0.00    +0.000 A 
ATOM     20  C   UNL     1      -2.089  13.436  22.857  0.00  0.00    +0.000 C 
ATOM     21  O   UNL     1      -1.970  12.154  23.563  0.00  0.00    +0.000 OA
ATOM     22  H   UNL     1       1.478   7.588  20.847  0.00  0.00    +0.000 HD
ENDROOT
BRANCH   9  23
ATOM     23  C   UNL     1       0.370  11.309  18.421  0.00  0.00    +0.000 C 
ATOM     24  O   UNL     1       1.258  12.116  18.178  0.00  0.00    +0.000 OA
BRANCH  23  25
ATOM     25  O   UNL     1      -0.846  11.297  17.807  0.00  0.00    +0.000 OA
BRANCH  25  26
ATOM     26  C   UNL     1      -1.330   9.989  17.474  0.00  0.00    +0.000 C 
ATOM     27  C   UNL     1      -2.587  10.186  16.645  0.00  0.00    +0.000 C 
ENDBRANCH  25  26
ENDBRANCH  23  25
ENDBRANCH   9  23
BRANCH  16  28
ATOM     28  O   UNL     1      -6.280  17.331  23.329  0.00  0.00    +0.000 OA
ATOM     29  C   UNL     1      -7.335  17.064  22.407  0.00  0.00    +0.000 C 
ENDBRANCH  16  28
BRANCH   1  30
ATOM     30  C   UNL     1       2.071   8.601  18.287  0.00  0.00    +0.000 C 
BRANCH  30  31
ATOM     31  C   UNL     1       2.794   7.339  18.769  0.00  0.00    +0.000 C 
BRANCH  31  32
ATOM     32  C   UNL     1       2.837   6.194  17.755  0.00  0.00    +0.000 C 
BRANCH  32  33
ATOM     33  C   UNL     1       2.142   4.967  18.360  0.00  0.00    +0.000 C 
BRANCH  33  35
ATOM     34  C   UNL     1       0.994   4.127  20.428  0.00  0.00    +0.000 C 
ATOM     35  C   UNL     1       2.133   4.979  19.886  0.00  0.00    +0.000 C 
ENDBRANCH  33  35
ENDBRANCH  32  33
ENDBRANCH  31  32
ENDBRANCH  30  31
ENDBRANCH   1  30
TORSDOF 9
ENDMDL
MODEL 7
REMARK VINA RESULT:      -6.3      3.909      7.611
REMARK  Name = 
REMARK  12 active torsions:
REMARK  status: ('A' for Active; 'I' for Inactive)
REMARK    1  A    between atoms: C_1  and  C_2
REMARK    2  A    between atoms: C_2  and  C_3
REMARK    3  A    between atoms: C_3  and  C_4
REMARK    4  A    between atoms: C_4  and  C_5
REMARK    5  A    between atoms: C_5  and  C_6
REMARK    6  A    between atoms: C_6  and  C_7
REMARK    7  A    between atoms: C_15  and  C_16
REMARK    8  A    between atoms: C_16  and  O_18
REMARK    9  A    between atoms: O_18  and  C_19
REMARK   10  A    between atoms: C_19  and  C_20
REMARK   11  A    between atoms: C_27  and  O_28
REMARK   12  A    between atoms: O_28  and  C_29
REMARK                            x       y       z     vdW  Elec       q    Type
REMARK                         _______ _______ _______ _____ _____    ______ ____
ROOT
ATOM      1  C   UNL     1       0.424   9.772  19.032  0.00  0.00    +0.000 A 
ATOM      2  N   UNL     1       0.645   9.329  20.316  0.00  0.00    +0.000 N 
ATOM      3  C   UNL     1      -0.075  10.088  21.229  0.00  0.00    +0.000 A 
ATOM      4  C   UNL     1      -0.106  10.045  22.629  0.00  0.00    +0.000 A 
ATOM      5  C   UNL     1      -0.937  10.963  23.310  0.00  0.00    +0.000 A 
ATOM      6  C   UNL     1      -1.760  11.875  22.627  0.00  0.00    +0.000 A 
ATOM      7  C   UNL     1      -1.755  11.842  21.214  0.00  0.00    +0.000 A 
ATOM      8  C   UNL     1      -0.848  10.977  20.516  0.00  0.00    +0.000 A 
ATOM      9  C   UNL     1      -0.515  10.793  19.110  0.00  0.00    +0.000 A 
ATOM     10  C   UNL     1      -2.707  12.727  20.473  0.00  0.00    +0.000 C 
ATOM     11  N   UNL     1      -3.689  13.368  21.297  0.00  0.00    +0.000 NA
ATOM     12  C   UNL     1      -5.004  12.732  21.475  0.00  0.00    +0.000 C 
ATOM     13  C   UNL     1      -5.622  12.769  22.929  0.00  0.00    +0.000 C 
ATOM     14  C   UNL     1      -5.434  14.164  23.503  0.00  0.00    +0.000 A 
ATOM     15  C   UNL     1      -6.587  14.901  23.838  0.00  0.00    +0.000 A 
ATOM     16  C   UNL     1      -6.751  16.169  23.290  0.00  0.00    +0.000 A 
ATOM     17  C   UNL     1      -5.738  16.674  22.477  0.00  0.00    +0.000 A 
ATOM     18  C   UNL     1      -4.490  16.020  22.403  0.00  0.00    +0.000 A 
ATOM     19  C   UNL     1      -4.262  14.777  23.037  0.00  0.00    +0.000 A 
ATOM     20  C   UNL     1      -3.108  13.857  22.523  0.00  0.00    +0.000 C 
ATOM     21  O   UNL     1      -2.595  12.750  23.340  0.00  0.00    +0.000 OA
ATOM     22  H   UNL     1       1.277   8.574  20.569  0.00  0.00    +0.000 HD
ENDROOT
BRANCH   9  23
ATOM     23  C   UNL     1      -1.006  11.581  17.979  0.00  0.00    +0.000 C 
ATOM     24  O   UNL     1      -0.821  12.786  17.872  0.00  0.00    +0.000 OA
BRANCH  23  25
ATOM     25  O   UNL     1      -1.759  10.839  17.119  0.00  0.00    +0.000 OA
BRANCH  25  26
ATOM     26  C   UNL     1      -3.058  11.384  16.846  0.00  0.00    +0.000 C 
ATOM     27  C   UNL     1      -3.397  11.005  15.415  0.00  0.00    +0.000 C 
ENDBRANCH  25  26
ENDBRANCH  23  25
ENDBRANCH   9  23
BRANCH  16  28
ATOM     28  O   UNL     1      -7.917  16.888  23.333  0.00  0.00    +0.000 OA
ATOM     29  C   UNL     1      -7.916  18.084  22.557  0.00  0.00    +0.000 C 
ENDBRANCH  16  28
BRANCH   1  30
ATOM     30  C   UNL     1       1.203   9.268  17.840  0.00  0.00    +0.000 C 
BRANCH  30  31
ATOM     31  C   UNL     1       2.365   8.399  18.334  0.00  0.00    +0.000 C 
BRANCH  31  32
ATOM     32  C   UNL     1       2.224   6.905  18.034  0.00  0.00    +0.000 C 
BRANCH  32  33
ATOM     33  C   UNL     1       2.911   6.106  19.150  0.00  0.00    +0.000 C 
BRANCH  33  35
ATOM     34  C   UNL     1       2.494   4.016  17.823  0.00  0.00    +0.000 C 
ATOM     35  C   UNL     1       3.506   4.789  18.659  0.00  0.00    +0.000 C 
ENDBRANCH  33  35
ENDBRANCH  32  33
ENDBRANCH  31  32
ENDBRANCH  30  31
ENDBRANCH   1  30
TORSDOF 9
ENDMDL
MODEL 8
REMARK VINA RESULT:      -6.3      3.161      6.281
REMARK  Name = 
REMARK  12 active torsions:
REMARK  status: ('A' for Active; 'I' for Inactive)
REMARK    1  A    between atoms: C_1  and  C_2
REMARK    2  A    between atoms: C_2  and  C_3
REMARK    3  A    between atoms: C_3  and  C_4
REMARK    4  A    between atoms: C_4  and  C_5
REMARK    5  A    between atoms: C_5  and  C_6
REMARK    6  A    between atoms: C_6  and  C_7
REMARK    7  A    between atoms: C_15  and  C_16
REMARK    8  A    between atoms: C_16  and  O_18
REMARK    9  A    between atoms: O_18  and  C_19
REMARK   10  A    between atoms: C_19  and  C_20
REMARK   11  A    between atoms: C_27  and  O_28
REMARK   12  A    between atoms: O_28  and  C_29
REMARK                            x       y       z     vdW  Elec       q    Type
REMARK                         _______ _______ _______ _____ _____    ______ ____
ROOT
ATOM      1  C   UNL     1       1.518   9.269  19.052  0.00  0.00    +0.000 A 
ATOM      2  N   UNL     1       1.267   8.441  20.122  0.00  0.00    +0.000 N 
ATOM      3  C   UNL     1       0.606   9.129  21.131  0.00  0.00    +0.000 A 
ATOM      4  C   UNL     1       0.216   8.718  22.413  0.00  0.00    +0.000 A 
ATOM      5  C   UNL     1      -0.442   9.651  23.246  0.00  0.00    +0.000 A 
ATOM      6  C   UNL     1      -0.753  10.951  22.811  0.00  0.00    +0.000 A 
ATOM      7  C   UNL     1      -0.406  11.308  21.488  0.00  0.00    +0.000 A 
ATOM      8  C   UNL     1       0.341  10.399  20.668  0.00  0.00    +0.000 A 
ATOM      9  C   UNL     1       0.943  10.499  19.345  0.00  0.00    +0.000 A 
ATOM     10  C   UNL     1      -0.830  12.647  20.972  0.00  0.00    +0.000 C 
ATOM     11  N   UNL     1      -1.745  13.350  21.821  0.00  0.00    +0.000 NA
ATOM     12  C   UNL     1      -3.192  13.217  21.586  0.00  0.00    +0.000 C 
ATOM     13  C   UNL     1      -4.112  13.077  22.862  0.00  0.00    +0.000 C 
ATOM     14  C   UNL     1      -3.661  14.091  23.902  0.00  0.00    +0.000 A 
ATOM     15  C   UNL     1      -4.583  15.076  24.306  0.00  0.00    +0.000 A 
ATOM     16  C   UNL     1      -4.214  16.415  24.211  0.00  0.00    +0.000 A 
ATOM     17  C   UNL     1      -2.927  16.715  23.770  0.00  0.00    +0.000 A 
ATOM     18  C   UNL     1      -1.958  15.698  23.650  0.00  0.00    +0.000 A 
ATOM     19  C   UNL     1      -2.281  14.335  23.842  0.00  0.00    +0.000 A 
ATOM     20  C   UNL     1      -1.369  13.235  23.209  0.00  0.00    +0.000 C 
ATOM     21  O   UNL     1      -1.435  11.839  23.658  0.00  0.00    +0.000 OA
ATOM     22  H   UNL     1       1.558   7.469  20.186  0.00  0.00    +0.000 HD
ENDROOT
BRANCH   9  23
ATOM     23  C   UNL     1       1.011  11.689  18.498  0.00  0.00    +0.000 C 
ATOM     24  O   UNL     1       0.046  12.134  17.890  0.00  0.00    +0.000 OA
BRANCH  23  25
ATOM     25  O   UNL     1       2.277  12.182  18.396  0.00  0.00    +0.000 OA
BRANCH  25  26
ATOM     26  C   UNL     1       2.531  13.339  19.205  0.00  0.00    +0.000 C 
ATOM     27  C   UNL     1       2.817  14.485  18.250  0.00  0.00    +0.000 C 
ENDBRANCH  25  26
ENDBRANCH  23  25
ENDBRANCH   9  23
BRANCH  16  28
ATOM     28  O   UNL     1      -5.080  17.469  24.336  0.00  0.00    +0.000 OA
ATOM     29  C   UNL     1      -4.856  18.302  25.472  0.00  0.00    +0.000 C 
ENDBRANCH  16  28
BRANCH   1  30
ATOM     30  C   UNL     1       2.379   8.862  17.880  0.00  0.00    +0.000 C 
BRANCH  30  31
ATOM     31  C   UNL     1       2.863   7.423  18.090  0.00  0.00    +0.000 C 
BRANCH  31  32
ATOM     32  C   UNL     1       4.104   7.037  17.283  0.00  0.00    +0.000 C 
BRANCH  32  33
ATOM     33  C   UNL     1       4.741   5.792  17.914  0.00  0.00    +0.000 C 
BRANCH  33  35
ATOM     34  C   UNL     1       3.390   3.765  17.305  0.00  0.00    +0.000 C 
ATOM     35  C   UNL     1       4.657   4.560  17.016  0.00  0.00    +0.000 C 
ENDBRANCH  33  35
ENDBRANCH  32  33
ENDBRANCH  31  32
ENDBRANCH  30  31
ENDBRANCH   1  30
TORSDOF 9
ENDMDL
MODEL 9
REMARK VINA RESULT:      -6.2      3.232      6.868
REMARK  Name = 
REMARK  12 active torsions:
REMARK  status: ('A' for Active; 'I' for Inactive)
REMARK    1  A    between atoms: C_1  and  C_2
REMARK    2  A    between atoms: C_2  and  C_3
REMARK    3  A    between atoms: C_3  and  C_4
REMARK    4  A    between atoms: C_4  and  C_5
REMARK    5  A    between atoms: C_5  and  C_6
REMARK    6  A    between atoms: C_6  and  C_7
REMARK    7  A    between atoms: C_15  and  C_16
REMARK    8  A    between atoms: C_16  and  O_18
REMARK    9  A    between atoms: O_18  and  C_19
REMARK   10  A    between atoms: C_19  and  C_20
REMARK   11  A    between atoms: C_27  and  O_28
REMARK   12  A    between atoms: O_28  and  C_29
REMARK                            x       y       z     vdW  Elec       q    Type
REMARK                         _______ _______ _______ _____ _____    ______ ____
ROOT
ATOM      1  C   UNL     1       0.988   9.748  19.194  0.00  0.00    +0.000 A 
ATOM      2  N   UNL     1       0.865   9.014  20.352  0.00  0.00    +0.000 N 
ATOM      3  C   UNL     1       0.105   9.699  21.290  0.00  0.00    +0.000 A 
ATOM      4  C   UNL     1      -0.220   9.375  22.614  0.00  0.00    +0.000 A 
ATOM      5  C   UNL     1      -1.015  10.282  23.351  0.00  0.00    +0.000 A 
ATOM      6  C   UNL     1      -1.521  11.464  22.783  0.00  0.00    +0.000 A 
ATOM      7  C   UNL     1      -1.230  11.723  21.424  0.00  0.00    +0.000 A 
ATOM      8  C   UNL     1      -0.351  10.855  20.696  0.00  0.00    +0.000 A 
ATOM      9  C   UNL     1       0.231  10.900  19.362  0.00  0.00    +0.000 A 
ATOM     10  C   UNL     1      -1.854  12.917  20.773  0.00  0.00    +0.000 C 
ATOM     11  N   UNL     1      -2.868  13.561  21.555  0.00  0.00    +0.000 NA
ATOM     12  C   UNL     1      -4.276  13.184  21.356  0.00  0.00    +0.000 C 
ATOM     13  C   UNL     1      -5.166  13.045  22.654  0.00  0.00    +0.000 C 
ATOM     14  C   UNL     1      -4.878  14.223  23.572  0.00  0.00    +0.000 A 
ATOM     15  C   UNL     1      -5.941  15.095  23.880  0.00  0.00    +0.000 A 
ATOM     16  C   UNL     1      -5.781  16.455  23.636  0.00  0.00    +0.000 A 
ATOM     17  C   UNL     1      -4.555  16.899  23.145  0.00  0.00    +0.000 A 
ATOM     18  C   UNL     1      -3.441  16.034  23.122  0.00  0.00    +0.000 A 
ATOM     19  C   UNL     1      -3.552  14.668  23.465  0.00  0.00    +0.000 A 
ATOM     20  C   UNL     1      -2.481  13.658  22.941  0.00  0.00    +0.000 C 
ATOM     21  O   UNL     1      -2.332  12.325  23.539  0.00  0.00    +0.000 OA
ATOM     22  H   UNL     1       1.301   8.110  20.515  0.00  0.00    +0.000 HD
ENDROOT
BRANCH   9  23
ATOM     23  C   UNL     1       0.117  11.988  18.389  0.00  0.00    +0.000 C 
ATOM     24  O   UNL     1      -0.876  12.163  17.695  0.00  0.00    +0.000 OA
BRANCH  23  25
ATOM     25  O   UNL     1       1.264  12.714  18.287  0.00  0.00    +0.000 OA
BRANCH  25  26
ATOM     26  C   UNL     1       1.291  13.900  19.094  0.00  0.00    +0.000 C 
ATOM     27  C   UNL     1       2.578  13.852  19.899  0.00  0.00    +0.000 C 
ENDBRANCH  25  26
ENDBRANCH  23  25
ENDBRANCH   9  23
BRANCH  16  28
ATOM     28  O   UNL     1      -6.799  17.372  23.659  0.00  0.00    +0.000 OA
ATOM     29  C   UNL     1      -7.331  17.715  22.381  0.00  0.00    +0.000 C 
ENDBRANCH  16  28
BRANCH   1  30
ATOM     30  C   UNL     1       1.904   9.352  18.060  0.00  0.00    +0.000 C 
BRANCH  30  31
ATOM     31  C   UNL     1       2.525   7.987  18.373  0.00  0.00    +0.000 C 
BRANCH  31  32
ATOM     32  C   UNL     1       3.647   7.558  17.425  0.00  0.00    +0.000 C 
BRANCH  32  33
ATOM     33  C   UNL     1       3.751   6.027  17.436  0.00  0.00    +0.000 C 
BRANCH  33  35
ATOM     34  C   UNL     1       5.385   5.814  15.541  0.00  0.00    +0.000 C 
ATOM     35  C   UNL     1       5.128   5.521  17.013  0.00  0.00    +0.000 C 
ENDBRANCH  33  35
ENDBRANCH  32  33
ENDBRANCH  31  32
ENDBRANCH  30  31
ENDBRANCH   1  30
TORSDOF 9
ENDMDL
