MODEL 1
REMARK VINA RESULT:      -8.3      0.000      0.000
REMARK  Name = 
REMARK  9 active torsions:
REMARK  status: ('A' for Active; 'I' for Inactive)
REMARK    1  A    between atoms: C_1  and  C_2
REMARK    2  A    between atoms: C_2  and  C_3
REMARK    3  A    between atoms: C_4  and  C_5
REMARK    4  A    between atoms: C_5  and  C_6
REMARK    5  A    between atoms: C_6  and  C_7
REMARK    6  A    between atoms: C_10  and  C_11
REMARK    7  A    between atoms: N_13  and  C_14
REMARK    8  A    between atoms: N_13  and  C_15
REMARK    9  A    between atoms: C_16  and  C_17
REMARK                            x       y       z     vdW  Elec       q    Type
REMARK                         _______ _______ _______ _____ _____    ______ ____
ROOT
ATOM      1  C   UNL     1       6.875   6.448  17.470  0.00  0.00    +0.000 C 
ATOM      2  C   UNL     1       5.753   7.071  17.050  0.00  0.00    +0.000 C 
ATOM      3  C   UNL     1       4.523   6.373  16.549  0.00  0.00    +0.000 C 
ATOM      4  C   UNL     1       4.523   4.860  16.820  0.00  0.00    +0.000 C 
ATOM      5  C   UNL     1       5.922   4.259  16.510  0.00  0.00    +0.000 C 
ATOM      6  C   UNL     1       6.992   4.933  17.410  0.00  0.00    +0.000 C 
ENDROOT
BRANCH   5   7
ATOM      7  C   UNL     1       6.295   4.321  15.010  0.00  0.00    +0.000 A 
ATOM      8  C   UNL     1       7.400   5.052  14.526  0.00  0.00    +0.000 A 
ATOM      9  C   UNL     1       7.731   5.090  13.171  0.00  0.00    +0.000 A 
ATOM     10  C   UNL     1       6.968   4.384  12.255  0.00  0.00    +0.000 A 
ATOM     11  C   UNL     1       5.871   3.649  12.701  0.00  0.00    +0.000 A 
ATOM     12  C   UNL     1       5.533   3.622  14.063  0.00  0.00    +0.000 A 
ENDBRANCH   5   7
BRANCH   4  13
ATOM     13  C   UNL     1       4.088   4.643  18.294  0.00  0.00    +0.000 C 
ATOM     14  O   UNL     1       4.127   5.577  19.102  0.00  0.00    +0.000 OA
ATOM     15  N   UNL     1       3.658   3.394  18.718  0.00  0.00    +0.000 N 
ATOM     16  C   UNL     1       3.501   2.208  17.898  0.00  0.00    +0.000 C 
ATOM     17  C   UNL     1       3.233   3.250  20.109  0.00  0.00    +0.000 C 
ENDBRANCH   4  13
BRANCH   1  18
ATOM     18  C   UNL     1       8.113   7.170  17.969  0.00  0.00    +0.000 C 
BRANCH  18  19
ATOM     19  C   UNL     1       8.019   8.695  17.880  0.00  0.00    +0.000 C 
BRANCH  19  23
ATOM     20  C   UNL     1      10.126  11.312  19.835  0.00  0.00    +0.000 C 
ATOM     21  C   UNL     1       9.187  10.722  18.825  0.00  0.00    +0.000 C 
ATOM     22  C   UNL     1       8.688  11.634  17.733  0.00  0.00    +0.000 C 
ATOM     23  C   UNL     1       8.848   9.421  18.896  0.00  0.00    +0.000 C 
ENDBRANCH  19  23
ENDBRANCH  18  19
ENDBRANCH   1  18
TORSDOF 5
ENDMDL
MODEL 2
REMARK VINA RESULT:      -8.2      0.101      1.005
REMARK  Name = 
REMARK  9 active torsions:
REMARK  status: ('A' for Active; 'I' for Inactive)
REMARK    1  A    between atoms: C_1  and  C_2
REMARK    2  A    between atoms: C_2  and  C_3
REMARK    3  A    between atoms: C_4  and  C_5
REMARK    4  A    between atoms: C_5  and  C_6
REMARK    5  A    between atoms: C_6  and  C_7
REMARK    6  A    between atoms: C_10  and  C_11
REMARK    7  A    between atoms: N_13  and  C_14
REMARK    8  A    between atoms: N_13  and  C_15
REMARK    9  A    between atoms: C_16  and  C_17
REMARK                            x       y       z     vdW  Elec       q    Type
REMARK                         _______ _______ _______ _____ _____    ______ ____
ROOT
ATOM      1  C   UNL     1       6.877   6.472  17.523  0.00  0.00    +0.000 C 
ATOM      2  C   UNL     1       5.751   7.077  17.090  0.00  0.00    +0.000 C 
ATOM      3  C   UNL     1       4.530   6.358  16.595  0.00  0.00    +0.000 C 
ATOM      4  C   UNL     1       4.545   4.849  16.888  0.00  0.00    +0.000 C 
ATOM      5  C   UNL     1       5.951   4.259  16.592  0.00  0.00    +0.000 C 
ATOM      6  C   UNL     1       7.011   4.957  17.486  0.00  0.00    +0.000 C 
ENDROOT
BRANCH   5   7
ATOM      7  C   UNL     1       6.329   4.303  15.093  0.00  0.00    +0.000 A 
ATOM      8  C   UNL     1       5.597   3.624  14.098  0.00  0.00    +0.000 A 
ATOM      9  C   UNL     1       5.943   3.683  12.747  0.00  0.00    +0.000 A 
ATOM     10  C   UNL     1       7.034   4.437  12.348  0.00  0.00    +0.000 A 
ATOM     11  C   UNL     1       7.778   5.124  13.306  0.00  0.00    +0.000 A 
ATOM     12  C   UNL     1       7.434   5.054  14.665  0.00  0.00    +0.000 A 
ENDBRANCH   5   7
BRANCH   4  13
ATOM     13  C   UNL     1       4.107   4.649  18.363  0.00  0.00    +0.000 C 
ATOM     14  O   UNL     1       4.130   5.596  19.158  0.00  0.00    +0.000 OA
ATOM     15  N   UNL     1       3.691   3.402  18.805  0.00  0.00    +0.000 N 
ATOM     16  C   UNL     1       3.553   2.201  18.002  0.00  0.00    +0.000 C 
ATOM     17  C   UNL     1       3.262   3.273  20.197  0.00  0.00    +0.000 C 
ENDBRANCH   4  13
BRANCH   1  18
ATOM     18  C   UNL     1       8.107   7.214  18.016  0.00  0.00    +0.000 C 
BRANCH  18  19
ATOM     19  C   UNL     1       7.981   8.737  17.943  0.00  0.00    +0.000 C 
BRANCH  19  23
ATOM     20  C   UNL     1      10.266  11.373  19.658  0.00  0.00    +0.000 C 
ATOM     21  C   UNL     1       9.235  10.772  18.748  0.00  0.00    +0.000 C 
ATOM     22  C   UNL     1       8.637  11.672  17.697  0.00  0.00    +0.000 C 
ATOM     23  C   UNL     1       8.903   9.474  18.867  0.00  0.00    +0.000 C 
ENDBRANCH  19  23
ENDBRANCH  18  19
ENDBRANCH   1  18
TORSDOF 5
ENDMDL
MODEL 3
REMARK VINA RESULT:      -8.2      2.000      4.575
REMARK  Name = 
REMARK  9 active torsions:
REMARK  status: ('A' for Active; 'I' for Inactive)
REMARK    1  A    between atoms: C_1  and  C_2
REMARK    2  A    between atoms: C_2  and  C_3
REMARK    3  A    between atoms: C_4  and  C_5
REMARK    4  A    between atoms: C_5  and  C_6
REMARK    5  A    between atoms: C_6  and  C_7
REMARK    6  A    between atoms: C_10  and  C_11
REMARK    7  A    between atoms: N_13  and  C_14
REMARK    8  A    between atoms: N_13  and  C_15
REMARK    9  A    between atoms: C_16  and  C_17
REMARK                            x       y       z     vdW  Elec       q    Type
REMARK                         _______ _______ _______ _____ _____    ______ ____
ROOT
ATOM      1  C   UNL     1       6.576   6.813  17.124  0.00  0.00    +0.000 C 
ATOM      2  C   UNL     1       7.340   5.747  17.445  0.00  0.00    +0.000 C 
ATOM      3  C   UNL     1       7.154   4.364  16.892  0.00  0.00    +0.000 C 
ATOM      4  C   UNL     1       6.191   4.306  15.695  0.00  0.00    +0.000 C 
ATOM      5  C   UNL     1       4.945   5.196  15.964  0.00  0.00    +0.000 C 
ATOM      6  C   UNL     1       5.390   6.666  16.184  0.00  0.00    +0.000 C 
ENDROOT
BRANCH   5   7
ATOM      7  C   UNL     1       4.060   4.674  17.121  0.00  0.00    +0.000 A 
ATOM      8  C   UNL     1       3.881   3.301  17.388  0.00  0.00    +0.000 A 
ATOM      9  C   UNL     1       3.088   2.845  18.442  0.00  0.00    +0.000 A 
ATOM     10  C   UNL     1       2.456   3.755  19.273  0.00  0.00    +0.000 A 
ATOM     11  C   UNL     1       2.614   5.120  19.038  0.00  0.00    +0.000 A 
ATOM     12  C   UNL     1       3.403   5.576  17.969  0.00  0.00    +0.000 A 
ENDBRANCH   5   7
BRANCH   4  13
ATOM     13  C   UNL     1       6.979   4.742  14.432  0.00  0.00    +0.000 C 
ATOM     14  O   UNL     1       7.952   5.499  14.530  0.00  0.00    +0.000 OA
ATOM     15  N   UNL     1       6.594   4.291  13.178  0.00  0.00    +0.000 N 
ATOM     16  C   UNL     1       5.516   3.364  12.885  0.00  0.00    +0.000 C 
ATOM     17  C   UNL     1       7.387   4.708  12.023  0.00  0.00    +0.000 C 
ENDBRANCH   4  13
BRANCH   1  18
ATOM     18  C   UNL     1       6.775   8.205  17.696  0.00  0.00    +0.000 C 
BRANCH  18  19
ATOM     19  C   UNL     1       8.208   8.728  17.569  0.00  0.00    +0.000 C 
BRANCH  19  23
ATOM     20  C   UNL     1       9.822  11.014  20.266  0.00  0.00    +0.000 C 
ATOM     21  C   UNL     1       9.162  10.580  18.991  0.00  0.00    +0.000 C 
ATOM     22  C   UNL     1       9.005  11.618  17.909  0.00  0.00    +0.000 C 
ATOM     23  C   UNL     1       8.766   9.303  18.835  0.00  0.00    +0.000 C 
ENDBRANCH  19  23
ENDBRANCH  18  19
ENDBRANCH   1  18
TORSDOF 5
ENDMDL
MODEL 4
REMARK VINA RESULT:      -8.0      2.025      4.570
REMARK  Name = 
REMARK  9 active torsions:
REMARK  status: ('A' for Active; 'I' for Inactive)
REMARK    1  A    between atoms: C_1  and  C_2
REMARK    2  A    between atoms: C_2  and  C_3
REMARK    3  A    between atoms: C_4  and  C_5
REMARK    4  A    between atoms: C_5  and  C_6
REMARK    5  A    between atoms: C_6  and  C_7
REMARK    6  A    between atoms: C_10  and  C_11
REMARK    7  A    between atoms: N_13  and  C_14
REMARK    8  A    between atoms: N_13  and  C_15
REMARK    9  A    between atoms: C_16  and  C_17
REMARK                            x       y       z     vdW  Elec       q    Type
REMARK                         _______ _______ _______ _____ _____    ______ ____
ROOT
ATOM      1  C   UNL     1       6.559   6.862  17.107  0.00  0.00    +0.000 C 
ATOM      2  C   UNL     1       7.326   5.806  17.454  0.00  0.00    +0.000 C 
ATOM      3  C   UNL     1       7.138   4.408  16.940  0.00  0.00    +0.000 C 
ATOM      4  C   UNL     1       6.171   4.315  15.750  0.00  0.00    +0.000 C 
ATOM      5  C   UNL     1       4.925   5.211  16.000  0.00  0.00    +0.000 C 
ATOM      6  C   UNL     1       5.369   6.687  16.176  0.00  0.00    +0.000 C 
ENDROOT
BRANCH   5   7
ATOM      7  C   UNL     1       4.045   4.720  17.174  0.00  0.00    +0.000 A 
ATOM      8  C   UNL     1       3.628   5.565  18.223  0.00  0.00    +0.000 A 
ATOM      9  C   UNL     1       2.825   5.111  19.270  0.00  0.00    +0.000 A 
ATOM     10  C   UNL     1       2.403   3.792  19.292  0.00  0.00    +0.000 A 
ATOM     11  C   UNL     1       2.795   2.931  18.269  0.00  0.00    +0.000 A 
ATOM     12  C   UNL     1       3.613   3.387  17.223  0.00  0.00    +0.000 A 
ENDBRANCH   5   7
BRANCH   4  13
ATOM     13  C   UNL     1       6.953   4.717  14.472  0.00  0.00    +0.000 C 
ATOM     14  O   UNL     1       7.944   5.452  14.549  0.00  0.00    +0.000 OA
ATOM     15  N   UNL     1       6.543   4.258  13.229  0.00  0.00    +0.000 N 
ATOM     16  C   UNL     1       5.441   3.352  12.961  0.00  0.00    +0.000 C 
ATOM     17  C   UNL     1       7.331   4.642  12.059  0.00  0.00    +0.000 C 
ENDBRANCH   4  13
BRANCH   1  18
ATOM     18  C   UNL     1       6.759   8.270  17.639  0.00  0.00    +0.000 C 
BRANCH  18  19
ATOM     19  C   UNL     1       8.195   8.568  18.076  0.00  0.00    +0.000 C 
BRANCH  19  23
ATOM     20  C   UNL     1       9.541  12.215  18.055  0.00  0.00    +0.000 C 
ATOM     21  C   UNL     1       9.200  10.835  18.537  0.00  0.00    +0.000 C 
ATOM     22  C   UNL     1       9.427  10.541  19.998  0.00  0.00    +0.000 C 
ATOM     23  C   UNL     1       8.684   9.930  17.685  0.00  0.00    +0.000 C 
ENDBRANCH  19  23
ENDBRANCH  18  19
ENDBRANCH   1  18
TORSDOF 5
ENDMDL
MODEL 5
REMARK VINA RESULT:      -8.0      2.062      4.548
REMARK  Name = 
REMARK  9 active torsions:
REMARK  status: ('A' for Active; 'I' for Inactive)
REMARK    1  A    between atoms: C_1  and  C_2
REMARK    2  A    between atoms: C_2  and  C_3
REMARK    3  A    between atoms: C_4  and  C_5
REMARK    4  A    between atoms: C_5  and  C_6
REMARK    5  A    between atoms: C_6  and  C_7
REMARK    6  A    between atoms: C_10  and  C_11
REMARK    7  A    between atoms: N_13  and  C_14
REMARK    8  A    between atoms: N_13  and  C_15
REMARK    9  A    between atoms: C_16  and  C_17
REMARK                            x       y       z     vdW  Elec       q    Type
REMARK                         _______ _______ _______ _____ _____    ______ ____
ROOT
ATOM      1  C   UNL     1       7.281   6.277  17.664  0.00  0.00    +0.000 C 
ATOM      2  C   UNL     1       7.417   4.934  17.696  0.00  0.00    +0.000 C 
ATOM      3  C   UNL     1       6.630   3.975  16.851  0.00  0.00    +0.000 C 
ATOM      4  C   UNL     1       5.844   4.656  15.719  0.00  0.00    +0.000 C 
ATOM      5  C   UNL     1       5.161   5.950  16.243  0.00  0.00    +0.000 C 
ATOM      6  C   UNL     1       6.239   6.933  16.772  0.00  0.00    +0.000 C 
ENDROOT
BRANCH   5   7
ATOM      7  C   UNL     1       4.055   5.676  17.290  0.00  0.00    +0.000 A 
ATOM      8  C   UNL     1       3.658   6.629  18.250  0.00  0.00    +0.000 A 
ATOM      9  C   UNL     1       2.650   6.372  19.181  0.00  0.00    +0.000 A 
ATOM     10  C   UNL     1       1.998   5.150  19.172  0.00  0.00    +0.000 A 
ATOM     11  C   UNL     1       2.364   4.187  18.233  0.00  0.00    +0.000 A 
ATOM     12  C   UNL     1       3.387   4.444  17.305  0.00  0.00    +0.000 A 
ENDBRANCH   5   7
BRANCH   4  13
ATOM     13  C   UNL     1       6.831   4.927  14.553  0.00  0.00    +0.000 C 
ATOM     14  O   UNL     1       7.837   5.623  14.733  0.00  0.00    +0.000 OA
ATOM     15  N   UNL     1       6.589   4.395  13.295  0.00  0.00    +0.000 N 
ATOM     16  C   UNL     1       5.493   3.520  12.922  0.00  0.00    +0.000 C 
ATOM     17  C   UNL     1       7.565   4.657  12.239  0.00  0.00    +0.000 C 
ENDBRANCH   4  13
BRANCH   1  18
ATOM     18  C   UNL     1       8.082   7.233  18.530  0.00  0.00    +0.000 C 
BRANCH  18  19
ATOM     19  C   UNL     1       8.127   8.666  17.991  0.00  0.00    +0.000 C 
BRANCH  19  23
ATOM     20  C   UNL     1      10.191  11.696  19.279  0.00  0.00    +0.000 C 
ATOM     21  C   UNL     1       9.153  10.903  18.542  0.00  0.00    +0.000 C 
ATOM     22  C   UNL     1       8.291  11.646  17.554  0.00  0.00    +0.000 C 
ATOM     23  C   UNL     1       9.040   9.578  18.752  0.00  0.00    +0.000 C 
ENDBRANCH  19  23
ENDBRANCH  18  19
ENDBRANCH   1  18
TORSDOF 5
ENDMDL
MODEL 6
REMARK VINA RESULT:      -8.0      0.901      1.075
REMARK  Name = 
REMARK  9 active torsions:
REMARK  status: ('A' for Active; 'I' for Inactive)
REMARK    1  A    between atoms: C_1  and  C_2
REMARK    2  A    between atoms: C_2  and  C_3
REMARK    3  A    between atoms: C_4  and  C_5
REMARK    4  A    between atoms: C_5  and  C_6
REMARK    5  A    between atoms: C_6  and  C_7
REMARK    6  A    between atoms: C_10  and  C_11
REMARK    7  A    between atoms: N_13  and  C_14
REMARK    8  A    between atoms: N_13  and  C_15
REMARK    9  A    between atoms: C_16  and  C_17
REMARK                            x       y       z     vdW  Elec       q    Type
REMARK                         _______ _______ _______ _____ _____    ______ ____
ROOT
ATOM      1  C   UNL     1       6.950   6.482  17.393  0.00  0.00    +0.000 C 
ATOM      2  C   UNL     1       5.713   6.889  17.037  0.00  0.00    +0.000 C 
ATOM      3  C   UNL     1       4.617   5.979  16.563  0.00  0.00    +0.000 C 
ATOM      4  C   UNL     1       4.918   4.489  16.785  0.00  0.00    +0.000 C 
ATOM      5  C   UNL     1       6.391   4.175  16.402  0.00  0.00    +0.000 C 
ATOM      6  C   UNL     1       7.352   5.020  17.280  0.00  0.00    +0.000 C 
ENDROOT
BRANCH   5   7
ATOM      7  C   UNL     1       6.679   4.344  14.891  0.00  0.00    +0.000 A 
ATOM      8  C   UNL     1       7.681   5.202  14.394  0.00  0.00    +0.000 A 
ATOM      9  C   UNL     1       7.937   5.336  13.028  0.00  0.00    +0.000 A 
ATOM     10  C   UNL     1       7.200   4.601  12.114  0.00  0.00    +0.000 A 
ATOM     11  C   UNL     1       6.204   3.740  12.573  0.00  0.00    +0.000 A 
ATOM     12  C   UNL     1       5.940   3.617  13.946  0.00  0.00    +0.000 A 
ENDBRANCH   5   7
BRANCH   4  13
ATOM     13  C   UNL     1       4.599   4.157  18.267  0.00  0.00    +0.000 C 
ATOM     14  O   UNL     1       5.513   3.986  19.082  0.00  0.00    +0.000 OA
ATOM     15  N   UNL     1       3.282   4.041  18.689  0.00  0.00    +0.000 N 
ATOM     16  C   UNL     1       2.094   4.258  17.885  0.00  0.00    +0.000 C 
ATOM     17  C   UNL     1       3.035   3.755  20.101  0.00  0.00    +0.000 C 
ENDBRANCH   4  13
BRANCH   1  18
ATOM     18  C   UNL     1       8.049   7.417  17.867  0.00  0.00    +0.000 C 
BRANCH  18  19
ATOM     19  C   UNL     1       7.629   8.887  17.927  0.00  0.00    +0.000 C 
BRANCH  19  23
ATOM     20  C   UNL     1      10.403  11.609  17.914  0.00  0.00    +0.000 C 
ATOM     21  C   UNL     1       9.429  10.584  18.416  0.00  0.00    +0.000 C 
ATOM     22  C   UNL     1       9.277  10.453  19.910  0.00  0.00    +0.000 C 
ATOM     23  C   UNL     1       8.712   9.850  17.546  0.00  0.00    +0.000 C 
ENDBRANCH  19  23
ENDBRANCH  18  19
ENDBRANCH   1  18
TORSDOF 5
ENDMDL
MODEL 7
REMARK VINA RESULT:      -7.9      2.120      4.677
REMARK  Name = 
REMARK  9 active torsions:
REMARK  status: ('A' for Active; 'I' for Inactive)
REMARK    1  A    between atoms: C_1  and  C_2
REMARK    2  A    between atoms: C_2  and  C_3
REMARK    3  A    between atoms: C_4  and  C_5
REMARK    4  A    between atoms: C_5  and  C_6
REMARK    5  A    between atoms: C_6  and  C_7
REMARK    6  A    between atoms: C_10  and  C_11
REMARK    7  A    between atoms: N_13  and  C_14
REMARK    8  A    between atoms: N_13  and  C_15
REMARK    9  A    between atoms: C_16  and  C_17
REMARK                            x       y       z     vdW  Elec       q    Type
REMARK                         _______ _______ _______ _____ _____    ______ ____
ROOT
ATOM      1  C   UNL     1       7.285   6.415  17.467  0.00  0.00    +0.000 C 
ATOM      2  C   UNL     1       7.475   5.085  17.592  0.00  0.00    +0.000 C 
ATOM      3  C   UNL     1       6.710   4.036  16.838  0.00  0.00    +0.000 C 
ATOM      4  C   UNL     1       5.872   4.602  15.681  0.00  0.00    +0.000 C 
ATOM      5  C   UNL     1       5.149   5.903  16.126  0.00  0.00    +0.000 C 
ATOM      6  C   UNL     1       6.198   6.964  16.556  0.00  0.00    +0.000 C 
ENDROOT
BRANCH   5   7
ATOM      7  C   UNL     1       4.078   5.665  17.217  0.00  0.00    +0.000 A 
ATOM      8  C   UNL     1       3.426   4.427  17.392  0.00  0.00    +0.000 A 
ATOM      9  C   UNL     1       2.470   4.223  18.388  0.00  0.00    +0.000 A 
ATOM     10  C   UNL     1       2.145   5.255  19.252  0.00  0.00    +0.000 A 
ATOM     11  C   UNL     1       2.773   6.491  19.110  0.00  0.00    +0.000 A 
ATOM     12  C   UNL     1       3.726   6.697  18.099  0.00  0.00    +0.000 A 
ENDBRANCH   5   7
BRANCH   4  13
ATOM     13  C   UNL     1       6.821   4.825  14.474  0.00  0.00    +0.000 C 
ATOM     14  O   UNL     1       7.867   5.470  14.611  0.00  0.00    +0.000 OA
ATOM     15  N   UNL     1       6.500   4.307  13.228  0.00  0.00    +0.000 N 
ATOM     16  C   UNL     1       5.348   3.488  12.902  0.00  0.00    +0.000 C 
ATOM     17  C   UNL     1       7.442   4.521  12.130  0.00  0.00    +0.000 C 
ENDBRANCH   4  13
BRANCH   1  18
ATOM     18  C   UNL     1       8.065   7.463  18.240  0.00  0.00    +0.000 C 
BRANCH  18  19
ATOM     19  C   UNL     1       7.623   8.900  17.954  0.00  0.00    +0.000 C 
BRANCH  19  23
ATOM     20  C   UNL     1      10.459  11.558  17.956  0.00  0.00    +0.000 C 
ATOM     21  C   UNL     1       9.442  10.575  18.455  0.00  0.00    +0.000 C 
ATOM     22  C   UNL     1       9.224  10.505  19.945  0.00  0.00    +0.000 C 
ATOM     23  C   UNL     1       8.744   9.824  17.583  0.00  0.00    +0.000 C 
ENDBRANCH  19  23
ENDBRANCH  18  19
ENDBRANCH   1  18
TORSDOF 5
ENDMDL
MODEL 8
REMARK VINA RESULT:      -7.8      0.899      1.484
REMARK  Name = 
REMARK  9 active torsions:
REMARK  status: ('A' for Active; 'I' for Inactive)
REMARK    1  A    between atoms: C_1  and  C_2
REMARK    2  A    between atoms: C_2  and  C_3
REMARK    3  A    between atoms: C_4  and  C_5
REMARK    4  A    between atoms: C_5  and  C_6
REMARK    5  A    between atoms: C_6  and  C_7
REMARK    6  A    between atoms: C_10  and  C_11
REMARK    7  A    between atoms: N_13  and  C_14
REMARK    8  A    between atoms: N_13  and  C_15
REMARK    9  A    between atoms: C_16  and  C_17
REMARK                            x       y       z     vdW  Elec       q    Type
REMARK                         _______ _______ _______ _____ _____    ______ ____
ROOT
ATOM      1  C   UNL     1       6.945   6.491  17.312  0.00  0.00    +0.000 C 
ATOM      2  C   UNL     1       5.712   6.910  16.957  0.00  0.00    +0.000 C 
ATOM      3  C   UNL     1       4.590   6.007  16.533  0.00  0.00    +0.000 C 
ATOM      4  C   UNL     1       4.862   4.520  16.811  0.00  0.00    +0.000 C 
ATOM      5  C   UNL     1       6.322   4.159  16.421  0.00  0.00    +0.000 C 
ATOM      6  C   UNL     1       7.313   5.017  17.252  0.00  0.00    +0.000 C 
ENDROOT
BRANCH   5   7
ATOM      7  C   UNL     1       6.592   4.261  14.901  0.00  0.00    +0.000 A 
ATOM      8  C   UNL     1       5.848   3.545  13.942  0.00  0.00    +0.000 A 
ATOM      9  C   UNL     1       6.096   3.657  12.572  0.00  0.00    +0.000 A 
ATOM     10  C   UNL     1       7.095   4.503  12.120  0.00  0.00    +0.000 A 
ATOM     11  C   UNL     1       7.847   5.228  13.042  0.00  0.00    +0.000 A 
ATOM     12  C   UNL     1       7.604   5.105  14.419  0.00  0.00    +0.000 A 
ENDBRANCH   5   7
BRANCH   4  13
ATOM     13  C   UNL     1       4.556   4.254  18.308  0.00  0.00    +0.000 C 
ATOM     14  O   UNL     1       5.476   4.044  19.108  0.00  0.00    +0.000 OA
ATOM     15  N   UNL     1       3.246   4.244  18.763  0.00  0.00    +0.000 N 
ATOM     16  C   UNL     1       2.056   4.520  17.979  0.00  0.00    +0.000 C 
ATOM     17  C   UNL     1       3.013   4.016  20.188  0.00  0.00    +0.000 C 
ENDBRANCH   4  13
BRANCH   1  18
ATOM     18  C   UNL     1       8.070   7.419  17.734  0.00  0.00    +0.000 C 
BRANCH  18  19
ATOM     19  C   UNL     1       7.628   8.867  17.959  0.00  0.00    +0.000 C 
BRANCH  19  23
ATOM     20  C   UNL     1      10.274  11.713  17.903  0.00  0.00    +0.000 C 
ATOM     21  C   UNL     1       9.371  10.631  18.418  0.00  0.00    +0.000 C 
ATOM     22  C   UNL     1       9.293  10.452  19.912  0.00  0.00    +0.000 C 
ATOM     23  C   UNL     1       8.648   9.889  17.559  0.00  0.00    +0.000 C 
ENDBRANCH  19  23
ENDBRANCH  18  19
ENDBRANCH   1  18
TORSDOF 5
ENDMDL
MODEL 9
REMARK VINA RESULT:      -7.7      2.953      6.260
REMARK  Name = 
REMARK  9 active torsions:
REMARK  status: ('A' for Active; 'I' for Inactive)
REMARK    1  A    between atoms: C_1  and  C_2
REMARK    2  A    between atoms: C_2  and  C_3
REMARK    3  A    between atoms: C_4  and  C_5
REMARK    4  A    between atoms: C_5  and  C_6
REMARK    5  A    between atoms: C_6  and  C_7
REMARK    6  A    between atoms: C_10  and  C_11
REMARK    7  A    between atoms: N_13  and  C_14
REMARK    8  A    between atoms: N_13  and  C_15
REMARK    9  A    between atoms: C_16  and  C_17
REMARK                            x       y       z     vdW  Elec       q    Type
REMARK                         _______ _______ _______ _____ _____    ______ ____
ROOT
ATOM      1  C   UNL     1       5.129   5.699  16.952  0.00  0.00    +0.000 C 
ATOM      2  C   UNL     1       5.798   5.896  18.108  0.00  0.00    +0.000 C 
ATOM      3  C   UNL     1       5.237   5.637  19.476  0.00  0.00    +0.000 C 
ATOM      4  C   UNL     1       3.920   4.845  19.460  0.00  0.00    +0.000 C 
ATOM      5  C   UNL     1       2.985   5.381  18.340  0.00  0.00    +0.000 C 
ATOM      6  C   UNL     1       3.681   5.232  16.961  0.00  0.00    +0.000 C 
ENDROOT
BRANCH   5   7
ATOM      7  C   UNL     1       2.494   6.826  18.594  0.00  0.00    +0.000 A 
ATOM      8  C   UNL     1       2.471   7.815  17.589  0.00  0.00    +0.000 A 
ATOM      9  C   UNL     1       2.014   9.111  17.830  0.00  0.00    +0.000 A 
ATOM     10  C   UNL     1       1.553   9.456  19.090  0.00  0.00    +0.000 A 
ATOM     11  C   UNL     1       1.559   8.501  20.106  0.00  0.00    +0.000 A 
ATOM     12  C   UNL     1       2.030   7.201  19.864  0.00  0.00    +0.000 A 
ENDBRANCH   5   7
BRANCH   4  13
ATOM     13  C   UNL     1       4.272   3.344  19.281  0.00  0.00    +0.000 C 
ATOM     14  O   UNL     1       5.446   2.963  19.353  0.00  0.00    +0.000 OA
ATOM     15  N   UNL     1       3.271   2.417  19.033  0.00  0.00    +0.000 N 
ATOM     16  C   UNL     1       1.845   2.679  18.969  0.00  0.00    +0.000 C 
ATOM     17  C   UNL     1       3.652   1.012  18.901  0.00  0.00    +0.000 C 
ENDBRANCH   4  13
BRANCH   1  18
ATOM     18  C   UNL     1       5.709   5.971  15.576  0.00  0.00    +0.000 C 
BRANCH  18  19
ATOM     19  C   UNL     1       6.653   4.875  15.074  0.00  0.00    +0.000 C 
BRANCH  19  23
ATOM     20  C   UNL     1       5.523   2.886  11.932  0.00  0.00    +0.000 C 
ATOM     21  C   UNL     1       6.313   3.807  12.815  0.00  0.00    +0.000 C 
ATOM     22  C   UNL     1       7.402   4.620  12.163  0.00  0.00    +0.000 C 
ATOM     23  C   UNL     1       6.017   3.906  14.124  0.00  0.00    +0.000 C 
ENDBRANCH  19  23
ENDBRANCH  18  19
ENDBRANCH   1  18
TORSDOF 5
ENDMDL
