MODEL 1
REMARK VINA RESULT:      -9.2      0.000      0.000
REMARK  Name = 
REMARK  5 active torsions:
REMARK  status: ('A' for Active; 'I' for Inactive)
REMARK    1  A    between atoms: C_4  and  N_5
REMARK    2  A    between atoms: N_5  and  C_6
REMARK    3  A    between atoms: C_6  and  C_7
REMARK    4  A    between atoms: N_10  and  C_11
REMARK    5  A    between atoms: N_20  and  C_21
REMARK                            x       y       z     vdW  Elec       q    Type
REMARK                         _______ _______ _______ _____ _____    ______ ____
ROOT
ATOM      1  C   UNL     1       2.057   6.373  20.307  0.00  0.00    +0.000 A 
ATOM      2  N   UNL     1       2.845   6.253  19.218  0.00  0.00    +0.000 NA
ATOM      3  C   UNL     1       2.909   7.254  18.301  0.00  0.00    +0.000 A 
ATOM      4  N   UNL     1       3.661   7.089  17.133  0.00  0.00    +0.000 N 
ATOM      5  C   UNL     1       2.166   8.410  18.562  0.00  0.00    +0.000 A 
ATOM      6  C   UNL     1       1.930   9.647  17.943  0.00  0.00    +0.000 A 
ATOM      7  N   UNL     1       1.125  10.439  18.650  0.00  0.00    +0.000 NA
ATOM      8  N   UNL     1       0.865   9.733  19.795  0.00  0.00    +0.000 N 
ATOM      9  C   UNL     1       1.445   8.465  19.743  0.00  0.00    +0.000 A 
ATOM     10  N   UNL     1       1.345   7.465  20.640  0.00  0.00    +0.000 NA
ATOM     11  H   UNL     1       3.469   7.739  16.386  0.00  0.00    +0.000 HD
ENDROOT
BRANCH   4  12
ATOM     12  C   UNL     1       4.846   6.352  16.964  0.00  0.00    +0.000 A 
ATOM     13  C   UNL     1       4.773   5.019  16.542  0.00  0.00    +0.000 A 
ATOM     14  C   UNL     1       5.930   4.245  16.410  0.00  0.00    +0.000 A 
ATOM     15  C   UNL     1       7.177   4.801  16.690  0.00  0.00    +0.000 A 
ATOM     16  C   UNL     1       7.265   6.123  17.112  0.00  0.00    +0.000 A 
ATOM     17  C   UNL     1       6.106   6.886  17.261  0.00  0.00    +0.000 A 
ENDBRANCH   4  12
BRANCH   8  18
ATOM     18  C   UNL     1       0.105  10.336  20.843  0.00  0.00    +0.000 A 
ATOM     19  C   UNL     1      -0.513  11.578  20.614  0.00  0.00    +0.000 A 
ATOM     20  C   UNL     1      -1.246  12.202  21.626  0.00  0.00    +0.000 A 
ATOM     21  C   UNL     1      -1.364  11.600  22.876  0.00  0.00    +0.000 A 
ATOM     22  C   UNL     1      -0.755  10.371  23.114  0.00  0.00    +0.000 A 
ATOM     23  C   UNL     1      -0.023   9.738  22.103  0.00  0.00    +0.000 A 
ENDBRANCH   8  18
BRANCH   1  24
ATOM     24  C   UNL     1       1.960   5.161  21.230  0.00  0.00    +0.000 C 
BRANCH  24  25
ATOM     25  N   UNL     1       1.289   4.027  20.574  0.00  0.00    +0.000 N 
ATOM     26  H   UNL     1       0.737   3.508  21.253  0.00  0.00    +0.000 HD
BRANCH  25  30
ATOM     27  C   UNL     1       3.645   1.628  18.012  0.00  0.00    +0.000 A 
ATOM     28  C   UNL     1       2.420   2.137  17.591  0.00  0.00    +0.000 A 
ATOM     29  C   UNL     1       1.649   2.915  18.462  0.00  0.00    +0.000 A 
ATOM     30  C   UNL     1       2.065   3.173  19.777  0.00  0.00    +0.000 A 
ATOM     31  C   UNL     1       3.317   2.679  20.167  0.00  0.00    +0.000 A 
ATOM     32  C   UNL     1       4.095   1.904  19.298  0.00  0.00    +0.000 A 
ENDBRANCH  25  30
ENDBRANCH  24  25
ENDBRANCH   1  24
TORSDOF 5
ENDMDL
MODEL 2
REMARK VINA RESULT:      -9.2      0.073      1.246
REMARK  Name = 
REMARK  5 active torsions:
REMARK  status: ('A' for Active; 'I' for Inactive)
REMARK    1  A    between atoms: C_4  and  N_5
REMARK    2  A    between atoms: N_5  and  C_6
REMARK    3  A    between atoms: C_6  and  C_7
REMARK    4  A    between atoms: N_10  and  C_11
REMARK    5  A    between atoms: N_20  and  C_21
REMARK                            x       y       z     vdW  Elec       q    Type
REMARK                         _______ _______ _______ _____ _____    ______ ____
ROOT
ATOM      1  C   UNL     1       2.001   6.385  20.305  0.00  0.00    +0.000 A 
ATOM      2  N   UNL     1       2.796   6.253  19.222  0.00  0.00    +0.000 NA
ATOM      3  C   UNL     1       2.896   7.261  18.316  0.00  0.00    +0.000 A 
ATOM      4  N   UNL     1       3.655   7.085  17.153  0.00  0.00    +0.000 N 
ATOM      5  C   UNL     1       2.183   8.434  18.581  0.00  0.00    +0.000 A 
ATOM      6  C   UNL     1       1.987   9.683  17.972  0.00  0.00    +0.000 A 
ATOM      7  N   UNL     1       1.198  10.490  18.679  0.00  0.00    +0.000 NA
ATOM      8  N   UNL     1       0.907   9.780  19.815  0.00  0.00    +0.000 N 
ATOM      9  C   UNL     1       1.453   8.497  19.755  0.00  0.00    +0.000 A 
ATOM     10  N   UNL     1       1.316   7.492  20.642  0.00  0.00    +0.000 NA
ATOM     11  H   UNL     1       3.488   7.748  16.411  0.00  0.00    +0.000 HD
ENDROOT
BRANCH   4  12
ATOM     12  C   UNL     1       4.821   6.318  16.988  0.00  0.00    +0.000 A 
ATOM     13  C   UNL     1       6.070   6.907  17.220  0.00  0.00    +0.000 A 
ATOM     14  C   UNL     1       7.251   6.184  17.019  0.00  0.00    +0.000 A 
ATOM     15  C   UNL     1       7.193   4.860  16.589  0.00  0.00    +0.000 A 
ATOM     16  C   UNL     1       5.960   4.263  16.351  0.00  0.00    +0.000 A 
ATOM     17  C   UNL     1       4.785   4.994  16.536  0.00  0.00    +0.000 A 
ENDBRANCH   4  12
BRANCH   8  18
ATOM     18  C   UNL     1       0.154  10.395  20.861  0.00  0.00    +0.000 A 
ATOM     19  C   UNL     1       0.000   9.719  22.084  0.00  0.00    +0.000 A 
ATOM     20  C   UNL     1      -0.747  10.286  23.118  0.00  0.00    +0.000 A 
ATOM     21  C   UNL     1      -1.353  11.527  22.943  0.00  0.00    +0.000 A 
ATOM     22  C   UNL     1      -1.207  12.206  21.735  0.00  0.00    +0.000 A 
ATOM     23  C   UNL     1      -0.456  11.645  20.697  0.00  0.00    +0.000 A 
ENDBRANCH   8  18
BRANCH   1  24
ATOM     24  C   UNL     1       1.862   5.167  21.215  0.00  0.00    +0.000 C 
BRANCH  24  25
ATOM     25  N   UNL     1       1.207   4.043  20.528  0.00  0.00    +0.000 N 
ATOM     26  H   UNL     1       0.625   3.524  21.183  0.00  0.00    +0.000 HD
BRANCH  25  30
ATOM     27  C   UNL     1       3.635   1.640  18.038  0.00  0.00    +0.000 A 
ATOM     28  C   UNL     1       2.430   2.159  17.577  0.00  0.00    +0.000 A 
ATOM     29  C   UNL     1       1.634   2.938  18.424  0.00  0.00    +0.000 A 
ATOM     30  C   UNL     1       2.004   3.187  19.754  0.00  0.00    +0.000 A 
ATOM     31  C   UNL     1       3.238   2.683  20.186  0.00  0.00    +0.000 A 
ATOM     32  C   UNL     1       4.042   1.907  19.341  0.00  0.00    +0.000 A 
ENDBRANCH  25  30
ENDBRANCH  24  25
ENDBRANCH   1  24
TORSDOF 5
ENDMDL
MODEL 3
REMARK VINA RESULT:      -9.1      0.088      1.245
REMARK  Name = 
REMARK  5 active torsions:
REMARK  status: ('A' for Active; 'I' for Inactive)
REMARK    1  A    between atoms: C_4  and  N_5
REMARK    2  A    between atoms: N_5  and  C_6
REMARK    3  A    between atoms: C_6  and  C_7
REMARK    4  A    between atoms: N_10  and  C_11
REMARK    5  A    between atoms: N_20  and  C_21
REMARK                            x       y       z     vdW  Elec       q    Type
REMARK                         _______ _______ _______ _____ _____    ______ ____
ROOT
ATOM      1  C   UNL     1       2.020   6.444  20.291  0.00  0.00    +0.000 A 
ATOM      2  N   UNL     1       2.813   6.321  19.205  0.00  0.00    +0.000 NA
ATOM      3  C   UNL     1       2.898   7.330  18.298  0.00  0.00    +0.000 A 
ATOM      4  N   UNL     1       3.655   7.163  17.133  0.00  0.00    +0.000 N 
ATOM      5  C   UNL     1       2.171   8.495  18.565  0.00  0.00    +0.000 A 
ATOM      6  C   UNL     1       1.957   9.740  17.955  0.00  0.00    +0.000 A 
ATOM      7  N   UNL     1       1.160  10.538  18.665  0.00  0.00    +0.000 NA
ATOM      8  N   UNL     1       0.882   9.825  19.802  0.00  0.00    +0.000 N 
ATOM      9  C   UNL     1       1.444   8.549  19.742  0.00  0.00    +0.000 A 
ATOM     10  N   UNL     1       1.322   7.543  20.630  0.00  0.00    +0.000 NA
ATOM     11  H   UNL     1       3.477   7.823  16.391  0.00  0.00    +0.000 HD
ENDROOT
BRANCH   4  12
ATOM     12  C   UNL     1       4.830   6.410  16.964  0.00  0.00    +0.000 A 
ATOM     13  C   UNL     1       4.736   5.069  16.573  0.00  0.00    +0.000 A 
ATOM     14  C   UNL     1       5.884   4.280  16.443  0.00  0.00    +0.000 A 
ATOM     15  C   UNL     1       7.140   4.828  16.694  0.00  0.00    +0.000 A 
ATOM     16  C   UNL     1       7.248   6.157  17.087  0.00  0.00    +0.000 A 
ATOM     17  C   UNL     1       6.099   6.936  17.234  0.00  0.00    +0.000 A 
ENDBRANCH   4  12
BRANCH   8  18
ATOM     18  C   UNL     1       0.126  10.431  20.850  0.00  0.00    +0.000 A 
ATOM     19  C   UNL     1      -0.013   9.756  22.075  0.00  0.00    +0.000 A 
ATOM     20  C   UNL     1      -0.765  10.315  23.112  0.00  0.00    +0.000 A 
ATOM     21  C   UNL     1      -1.388  11.546  22.937  0.00  0.00    +0.000 A 
ATOM     22  C   UNL     1      -1.258  12.224  21.727  0.00  0.00    +0.000 A 
ATOM     23  C   UNL     1      -0.504  11.672  20.686  0.00  0.00    +0.000 A 
ENDBRANCH   8  18
BRANCH   1  24
ATOM     24  C   UNL     1       1.899   5.225  21.202  0.00  0.00    +0.000 C 
BRANCH  24  25
ATOM     25  N   UNL     1       1.274   4.086  20.511  0.00  0.00    +0.000 N 
ATOM     26  H   UNL     1       0.780   3.500  21.180  0.00  0.00    +0.000 HD
BRANCH  25  30
ATOM     27  C   UNL     1       3.659   1.607  18.054  0.00  0.00    +0.000 A 
ATOM     28  C   UNL     1       4.063   1.939  19.342  0.00  0.00    +0.000 A 
ATOM     29  C   UNL     1       3.266   2.775  20.133  0.00  0.00    +0.000 A 
ATOM     30  C   UNL     1       2.070   3.323  19.644  0.00  0.00    +0.000 A 
ATOM     31  C   UNL     1       1.667   2.948  18.356  0.00  0.00    +0.000 A 
ATOM     32  C   UNL     1       2.458   2.107  17.563  0.00  0.00    +0.000 A 
ENDBRANCH  25  30
ENDBRANCH  24  25
ENDBRANCH   1  24
TORSDOF 5
ENDMDL
MODEL 4
REMARK VINA RESULT:      -9.0      0.083      1.243
REMARK  Name = 
REMARK  5 active torsions:
REMARK  status: ('A' for Active; 'I' for Inactive)
REMARK    1  A    between atoms: C_4  and  N_5
REMARK    2  A    between atoms: N_5  and  C_6
REMARK    3  A    between atoms: C_6  and  C_7
REMARK    4  A    between atoms: N_10  and  C_11
REMARK    5  A    between atoms: N_20  and  C_21
REMARK                            x       y       z     vdW  Elec       q    Type
REMARK                         _______ _______ _______ _____ _____    ______ ____
ROOT
ATOM      1  C   UNL     1       1.985   6.397  20.315  0.00  0.00    +0.000 A 
ATOM      2  N   UNL     1       2.787   6.270  19.235  0.00  0.00    +0.000 NA
ATOM      3  C   UNL     1       2.886   7.280  18.331  0.00  0.00    +0.000 A 
ATOM      4  N   UNL     1       3.652   7.110  17.172  0.00  0.00    +0.000 N 
ATOM      5  C   UNL     1       2.165   8.449  18.594  0.00  0.00    +0.000 A 
ATOM      6  C   UNL     1       1.966   9.697  17.985  0.00  0.00    +0.000 A 
ATOM      7  N   UNL     1       1.169  10.500  18.690  0.00  0.00    +0.000 NA
ATOM      8  N   UNL     1       0.876   9.787  19.823  0.00  0.00    +0.000 N 
ATOM      9  C   UNL     1       1.429   8.507  19.765  0.00  0.00    +0.000 A 
ATOM     10  N   UNL     1       1.293   7.500  20.650  0.00  0.00    +0.000 NA
ATOM     11  H   UNL     1       3.485   7.773  16.430  0.00  0.00    +0.000 HD
ENDROOT
BRANCH   4  12
ATOM     12  C   UNL     1       4.823   6.349  17.012  0.00  0.00    +0.000 A 
ATOM     13  C   UNL     1       6.068   6.948  17.237  0.00  0.00    +0.000 A 
ATOM     14  C   UNL     1       7.253   6.232  17.040  0.00  0.00    +0.000 A 
ATOM     15  C   UNL     1       7.204   4.903  16.622  0.00  0.00    +0.000 A 
ATOM     16  C   UNL     1       5.974   4.296  16.391  0.00  0.00    +0.000 A 
ATOM     17  C   UNL     1       4.795   5.020  16.571  0.00  0.00    +0.000 A 
ENDBRANCH   4  12
BRANCH   8  18
ATOM     18  C   UNL     1       0.115  10.396  20.866  0.00  0.00    +0.000 A 
ATOM     19  C   UNL     1      -0.466  11.657  20.645  0.00  0.00    +0.000 A 
ATOM     20  C   UNL     1      -1.198  12.287  21.654  0.00  0.00    +0.000 A 
ATOM     21  C   UNL     1      -1.355  11.671  22.892  0.00  0.00    +0.000 A 
ATOM     22  C   UNL     1      -0.783  10.422  23.122  0.00  0.00    +0.000 A 
ATOM     23  C   UNL     1      -0.052   9.784  22.115  0.00  0.00    +0.000 A 
ENDBRANCH   8  18
BRANCH   1  24
ATOM     24  C   UNL     1       1.849   5.177  21.223  0.00  0.00    +0.000 C 
BRANCH  24  25
ATOM     25  N   UNL     1       1.240   4.037  20.519  0.00  0.00    +0.000 N 
ATOM     26  H   UNL     1       0.748   3.440  21.180  0.00  0.00    +0.000 HD
BRANCH  25  30
ATOM     27  C   UNL     1       3.663   1.603  18.054  0.00  0.00    +0.000 A 
ATOM     28  C   UNL     1       4.050   1.917  19.352  0.00  0.00    +0.000 A 
ATOM     29  C   UNL     1       3.240   2.738  20.145  0.00  0.00    +0.000 A 
ATOM     30  C   UNL     1       2.049   3.290  19.650  0.00  0.00    +0.000 A 
ATOM     31  C   UNL     1       1.662   2.932  18.352  0.00  0.00    +0.000 A 
ATOM     32  C   UNL     1       2.466   2.106  17.556  0.00  0.00    +0.000 A 
ENDBRANCH  25  30
ENDBRANCH  24  25
ENDBRANCH   1  24
TORSDOF 5
ENDMDL
MODEL 5
REMARK VINA RESULT:      -8.4      2.812      6.312
REMARK  Name = 
REMARK  5 active torsions:
REMARK  status: ('A' for Active; 'I' for Inactive)
REMARK    1  A    between atoms: C_4  and  N_5
REMARK    2  A    between atoms: N_5  and  C_6
REMARK    3  A    between atoms: C_6  and  C_7
REMARK    4  A    between atoms: N_10  and  C_11
REMARK    5  A    between atoms: N_20  and  C_21
REMARK                            x       y       z     vdW  Elec       q    Type
REMARK                         _______ _______ _______ _____ _____    ______ ____
ROOT
ATOM      1  C   UNL     1       0.308  10.085  19.367  0.00  0.00    +0.000 A 
ATOM      2  N   UNL     1       0.950   8.910  19.548  0.00  0.00    +0.000 NA
ATOM      3  C   UNL     1       1.162   8.429  20.801  0.00  0.00    +0.000 A 
ATOM      4  N   UNL     1       1.901   7.256  20.986  0.00  0.00    +0.000 N 
ATOM      5  C   UNL     1       0.652   9.175  21.869  0.00  0.00    +0.000 A 
ATOM      6  C   UNL     1       0.620   9.085  23.269  0.00  0.00    +0.000 A 
ATOM      7  N   UNL     1      -0.044  10.089  23.841  0.00  0.00    +0.000 NA
ATOM      8  N   UNL     1      -0.512  10.836  22.792  0.00  0.00    +0.000 N 
ATOM      9  C   UNL     1      -0.054  10.329  21.575  0.00  0.00    +0.000 A 
ATOM     10  N   UNL     1      -0.238  10.835  20.340  0.00  0.00    +0.000 NA
ATOM     11  H   UNL     1       2.243   7.090  21.921  0.00  0.00    +0.000 HD
ENDROOT
BRANCH   4  12
ATOM     12  C   UNL     1       1.974   6.136  20.139  0.00  0.00    +0.000 A 
ATOM     13  C   UNL     1       1.345   4.944  20.521  0.00  0.00    +0.000 A 
ATOM     14  C   UNL     1       1.439   3.799  19.723  0.00  0.00    +0.000 A 
ATOM     15  C   UNL     1       2.157   3.836  18.530  0.00  0.00    +0.000 A 
ATOM     16  C   UNL     1       2.789   5.012  18.141  0.00  0.00    +0.000 A 
ATOM     17  C   UNL     1       2.709   6.147  18.948  0.00  0.00    +0.000 A 
ENDBRANCH   4  12
BRANCH   8  18
ATOM     18  C   UNL     1      -1.368  11.950  23.042  0.00  0.00    +0.000 A 
ATOM     19  C   UNL     1      -2.715  11.720  23.373  0.00  0.00    +0.000 A 
ATOM     20  C   UNL     1      -3.581  12.791  23.603  0.00  0.00    +0.000 A 
ATOM     21  C   UNL     1      -3.118  14.099  23.501  0.00  0.00    +0.000 A 
ATOM     22  C   UNL     1      -1.785  14.339  23.174  0.00  0.00    +0.000 A 
ATOM     23  C   UNL     1      -0.911  13.271  22.945  0.00  0.00    +0.000 A 
ENDBRANCH   8  18
BRANCH   1  24
ATOM     24  C   UNL     1       0.207  10.605  17.935  0.00  0.00    +0.000 C 
BRANCH  24  25
ATOM     25  N   UNL     1      -0.801   9.869  17.156  0.00  0.00    +0.000 N 
ATOM     26  H   UNL     1      -0.408   9.576  16.264  0.00  0.00    +0.000 HD
BRANCH  25  30
ATOM     27  C   UNL     1      -4.698  11.413  16.609  0.00  0.00    +0.000 A 
ATOM     28  C   UNL     1      -3.995  10.851  15.549  0.00  0.00    +0.000 A 
ATOM     29  C   UNL     1      -2.700  10.361  15.749  0.00  0.00    +0.000 A 
ATOM     30  C   UNL     1      -2.067  10.452  16.997  0.00  0.00    +0.000 A 
ATOM     31  C   UNL     1      -2.806  10.991  18.058  0.00  0.00    +0.000 A 
ATOM     32  C   UNL     1      -4.105  11.478  17.865  0.00  0.00    +0.000 A 
ENDBRANCH  25  30
ENDBRANCH  24  25
ENDBRANCH   1  24
TORSDOF 5
ENDMDL
MODEL 6
REMARK VINA RESULT:      -8.4      2.721      6.493
REMARK  Name = 
REMARK  5 active torsions:
REMARK  status: ('A' for Active; 'I' for Inactive)
REMARK    1  A    between atoms: C_4  and  N_5
REMARK    2  A    between atoms: N_5  and  C_6
REMARK    3  A    between atoms: C_6  and  C_7
REMARK    4  A    between atoms: N_10  and  C_11
REMARK    5  A    between atoms: N_20  and  C_21
REMARK                            x       y       z     vdW  Elec       q    Type
REMARK                         _______ _______ _______ _____ _____    ______ ____
ROOT
ATOM      1  C   UNL     1       0.273  10.055  19.306  0.00  0.00    +0.000 A 
ATOM      2  N   UNL     1       0.925   8.887  19.495  0.00  0.00    +0.000 NA
ATOM      3  C   UNL     1       1.150   8.422  20.752  0.00  0.00    +0.000 A 
ATOM      4  N   UNL     1       1.898   7.256  20.944  0.00  0.00    +0.000 N 
ATOM      5  C   UNL     1       0.643   9.176  21.816  0.00  0.00    +0.000 A 
ATOM      6  C   UNL     1       0.623   9.102  23.217  0.00  0.00    +0.000 A 
ATOM      7  N   UNL     1      -0.043  10.108  23.783  0.00  0.00    +0.000 NA
ATOM      8  N   UNL     1      -0.524  10.839  22.729  0.00  0.00    +0.000 N 
ATOM      9  C   UNL     1      -0.073  10.322  21.514  0.00  0.00    +0.000 A 
ATOM     10  N   UNL     1      -0.271  10.813  20.275  0.00  0.00    +0.000 NA
ATOM     11  H   UNL     1       2.248   7.102  21.878  0.00  0.00    +0.000 HD
ENDROOT
BRANCH   4  12
ATOM     12  C   UNL     1       1.972   6.127  20.110  0.00  0.00    +0.000 A 
ATOM     13  C   UNL     1       2.616   6.229  18.871  0.00  0.00    +0.000 A 
ATOM     14  C   UNL     1       2.665   5.137  17.998  0.00  0.00    +0.000 A 
ATOM     15  C   UNL     1       2.076   3.927  18.359  0.00  0.00    +0.000 A 
ATOM     16  C   UNL     1       1.430   3.812  19.586  0.00  0.00    +0.000 A 
ATOM     17  C   UNL     1       1.368   4.909  20.446  0.00  0.00    +0.000 A 
ENDBRANCH   4  12
BRANCH   8  18
ATOM     18  C   UNL     1      -1.386  11.951  22.973  0.00  0.00    +0.000 A 
ATOM     19  C   UNL     1      -0.883  13.255  22.829  0.00  0.00    +0.000 A 
ATOM     20  C   UNL     1      -1.696  14.362  23.082  0.00  0.00    +0.000 A 
ATOM     21  C   UNL     1      -3.016  14.181  23.485  0.00  0.00    +0.000 A 
ATOM     22  C   UNL     1      -3.526  12.893  23.631  0.00  0.00    +0.000 A 
ATOM     23  C   UNL     1      -2.717  11.780  23.376  0.00  0.00    +0.000 A 
ENDBRANCH   8  18
BRANCH   1  24
ATOM     24  C   UNL     1       0.157  10.558  17.869  0.00  0.00    +0.000 C 
BRANCH  24  25
ATOM     25  N   UNL     1      -0.753  11.710  17.765  0.00  0.00    +0.000 N 
ATOM     26  H   UNL     1      -0.644  12.316  18.576  0.00  0.00    +0.000 HD
BRANCH  25  30
ATOM     27  C   UNL     1      -4.869  11.187  16.956  0.00  0.00    +0.000 A 
ATOM     28  C   UNL     1      -4.435  11.640  18.197  0.00  0.00    +0.000 A 
ATOM     29  C   UNL     1      -3.067  11.790  18.449  0.00  0.00    +0.000 A 
ATOM     30  C   UNL     1      -2.104  11.460  17.483  0.00  0.00    +0.000 A 
ATOM     31  C   UNL     1      -2.565  11.038  16.230  0.00  0.00    +0.000 A 
ATOM     32  C   UNL     1      -3.934  10.891  15.970  0.00  0.00    +0.000 A 
ENDBRANCH  25  30
ENDBRANCH  24  25
ENDBRANCH   1  24
TORSDOF 5
ENDMDL
MODEL 7
REMARK VINA RESULT:      -8.3      2.830      6.253
REMARK  Name = 
REMARK  5 active torsions:
REMARK  status: ('A' for Active; 'I' for Inactive)
REMARK    1  A    between atoms: C_4  and  N_5
REMARK    2  A    between atoms: N_5  and  C_6
REMARK    3  A    between atoms: C_6  and  C_7
REMARK    4  A    between atoms: N_10  and  C_11
REMARK    5  A    between atoms: N_20  and  C_21
REMARK                            x       y       z     vdW  Elec       q    Type
REMARK                         _______ _______ _______ _____ _____    ______ ____
ROOT
ATOM      1  C   UNL     1       0.248  10.026  19.307  0.00  0.00    +0.000 A 
ATOM      2  N   UNL     1       0.922   8.871  19.497  0.00  0.00    +0.000 NA
ATOM      3  C   UNL     1       1.177   8.423  20.754  0.00  0.00    +0.000 A 
ATOM      4  N   UNL     1       1.949   7.272  20.945  0.00  0.00    +0.000 N 
ATOM      5  C   UNL     1       0.677   9.181  21.819  0.00  0.00    +0.000 A 
ATOM      6  C   UNL     1       0.682   9.121  23.220  0.00  0.00    +0.000 A 
ATOM      7  N   UNL     1       0.010  10.122  23.788  0.00  0.00    +0.000 NA
ATOM      8  N   UNL     1      -0.503  10.834  22.734  0.00  0.00    +0.000 N 
ATOM      9  C   UNL     1      -0.064  10.311  21.517  0.00  0.00    +0.000 A 
ATOM     10  N   UNL     1      -0.292  10.785  20.277  0.00  0.00    +0.000 NA
ATOM     11  H   UNL     1       2.318   7.135  21.875  0.00  0.00    +0.000 HD
ENDROOT
BRANCH   4  12
ATOM     12  C   UNL     1       2.027   6.135  20.122  0.00  0.00    +0.000 A 
ATOM     13  C   UNL     1       1.395   4.952  20.522  0.00  0.00    +0.000 A 
ATOM     14  C   UNL     1       1.493   3.790  19.749  0.00  0.00    +0.000 A 
ATOM     15  C   UNL     1       2.220   3.804  18.560  0.00  0.00    +0.000 A 
ATOM     16  C   UNL     1       2.856   4.971  18.151  0.00  0.00    +0.000 A 
ATOM     17  C   UNL     1       2.770   6.122  18.936  0.00  0.00    +0.000 A 
ENDBRANCH   4  12
BRANCH   8  18
ATOM     18  C   UNL     1      -1.379  11.933  22.983  0.00  0.00    +0.000 A 
ATOM     19  C   UNL     1      -0.901  13.244  22.811  0.00  0.00    +0.000 A 
ATOM     20  C   UNL     1      -1.729  14.340  23.066  0.00  0.00    +0.000 A 
ATOM     21  C   UNL     1      -3.037  14.141  23.499  0.00  0.00    +0.000 A 
ATOM     22  C   UNL     1      -3.521  12.847  23.673  0.00  0.00    +0.000 A 
ATOM     23  C   UNL     1      -2.698  11.745  23.415  0.00  0.00    +0.000 A 
ENDBRANCH   8  18
BRANCH   1  24
ATOM     24  C   UNL     1       0.098  10.511  17.867  0.00  0.00    +0.000 C 
BRANCH  24  25
ATOM     25  N   UNL     1      -0.833   9.668  17.100  0.00  0.00    +0.000 N 
ATOM     26  H   UNL     1      -0.401   9.379  16.225  0.00  0.00    +0.000 HD
BRANCH  25  30
ATOM     27  C   UNL     1      -4.720  11.269  16.649  0.00  0.00    +0.000 A 
ATOM     28  C   UNL     1      -4.246  10.877  17.897  0.00  0.00    +0.000 A 
ATOM     29  C   UNL     1      -2.962  10.334  18.021  0.00  0.00    +0.000 A 
ATOM     30  C   UNL     1      -2.139  10.139  16.902  0.00  0.00    +0.000 A 
ATOM     31  C   UNL     1      -2.623  10.572  15.661  0.00  0.00    +0.000 A 
ATOM     32  C   UNL     1      -3.905  11.121  15.532  0.00  0.00    +0.000 A 
ENDBRANCH  25  30
ENDBRANCH  24  25
ENDBRANCH   1  24
TORSDOF 5
ENDMDL
MODEL 8
REMARK VINA RESULT:      -8.3      2.713      6.434
REMARK  Name = 
REMARK  5 active torsions:
REMARK  status: ('A' for Active; 'I' for Inactive)
REMARK    1  A    between atoms: C_4  and  N_5
REMARK    2  A    between atoms: N_5  and  C_6
REMARK    3  A    between atoms: C_6  and  C_7
REMARK    4  A    between atoms: N_10  and  C_11
REMARK    5  A    between atoms: N_20  and  C_21
REMARK                            x       y       z     vdW  Elec       q    Type
REMARK                         _______ _______ _______ _____ _____    ______ ____
ROOT
ATOM      1  C   UNL     1       0.211  10.014  19.300  0.00  0.00    +0.000 A 
ATOM      2  N   UNL     1       0.889   8.860  19.483  0.00  0.00    +0.000 NA
ATOM      3  C   UNL     1       1.155   8.412  20.739  0.00  0.00    +0.000 A 
ATOM      4  N   UNL     1       1.930   7.262  20.922  0.00  0.00    +0.000 N 
ATOM      5  C   UNL     1       0.663   9.168  21.807  0.00  0.00    +0.000 A 
ATOM      6  C   UNL     1       0.680   9.108  23.209  0.00  0.00    +0.000 A 
ATOM      7  N   UNL     1       0.012  10.107  23.783  0.00  0.00    +0.000 NA
ATOM      8  N   UNL     1      -0.511  10.819  22.734  0.00  0.00    +0.000 N 
ATOM      9  C   UNL     1      -0.082  10.298  21.513  0.00  0.00    +0.000 A 
ATOM     10  N   UNL     1      -0.321  10.772  20.275  0.00  0.00    +0.000 NA
ATOM     11  H   UNL     1       2.307   7.125  21.848  0.00  0.00    +0.000 HD
ENDROOT
BRANCH   4  12
ATOM     12  C   UNL     1       2.003   6.126  20.097  0.00  0.00    +0.000 A 
ATOM     13  C   UNL     1       1.349   4.950  20.487  0.00  0.00    +0.000 A 
ATOM     14  C   UNL     1       1.442   3.789  19.713  0.00  0.00    +0.000 A 
ATOM     15  C   UNL     1       2.184   3.795  18.533  0.00  0.00    +0.000 A 
ATOM     16  C   UNL     1       2.841   4.954  18.136  0.00  0.00    +0.000 A 
ATOM     17  C   UNL     1       2.761   6.105  18.921  0.00  0.00    +0.000 A 
ENDBRANCH   4  12
BRANCH   8  18
ATOM     18  C   UNL     1      -1.387  11.917  22.991  0.00  0.00    +0.000 A 
ATOM     19  C   UNL     1      -0.900  13.229  22.857  0.00  0.00    +0.000 A 
ATOM     20  C   UNL     1      -1.728  14.323  23.121  0.00  0.00    +0.000 A 
ATOM     21  C   UNL     1      -3.044  14.121  23.525  0.00  0.00    +0.000 A 
ATOM     22  C   UNL     1      -3.537  12.825  23.661  0.00  0.00    +0.000 A 
ATOM     23  C   UNL     1      -2.715  11.726  23.395  0.00  0.00    +0.000 A 
ENDBRANCH   8  18
BRANCH   1  24
ATOM     24  C   UNL     1       0.048  10.500  17.861  0.00  0.00    +0.000 C 
BRANCH  24  25
ATOM     25  N   UNL     1      -0.751  11.733  17.788  0.00  0.00    +0.000 N 
ATOM     26  H   UNL     1      -0.566  12.318  18.601  0.00  0.00    +0.000 HD
BRANCH  25  30
ATOM     27  C   UNL     1      -4.861  11.145  16.993  0.00  0.00    +0.000 A 
ATOM     28  C   UNL     1      -3.899  10.872  16.027  0.00  0.00    +0.000 A 
ATOM     29  C   UNL     1      -2.545  11.090  16.306  0.00  0.00    +0.000 A 
ATOM     30  C   UNL     1      -2.126  11.615  17.538  0.00  0.00    +0.000 A 
ATOM     31  C   UNL     1      -3.109  11.851  18.507  0.00  0.00    +0.000 A 
ATOM     32  C   UNL     1      -4.466  11.630  18.235  0.00  0.00    +0.000 A 
ENDBRANCH  25  30
ENDBRANCH  24  25
ENDBRANCH   1  24
TORSDOF 5
ENDMDL
MODEL 9
REMARK VINA RESULT:      -8.1      1.705      4.665
REMARK  Name = 
REMARK  5 active torsions:
REMARK  status: ('A' for Active; 'I' for Inactive)
REMARK    1  A    between atoms: C_4  and  N_5
REMARK    2  A    between atoms: N_5  and  C_6
REMARK    3  A    between atoms: C_6  and  C_7
REMARK    4  A    between atoms: N_10  and  C_11
REMARK    5  A    between atoms: N_20  and  C_21
REMARK                            x       y       z     vdW  Elec       q    Type
REMARK                         _______ _______ _______ _____ _____    ______ ____
ROOT
ATOM      1  C   UNL     1       2.809   7.999  18.141  0.00  0.00    +0.000 A 
ATOM      2  N   UNL     1       2.689   6.879  18.887  0.00  0.00    +0.000 NA
ATOM      3  C   UNL     1       2.001   6.904  20.059  0.00  0.00    +0.000 A 
ATOM      4  N   UNL     1       1.953   5.763  20.867  0.00  0.00    +0.000 N 
ATOM      5  C   UNL     1       1.399   8.112  20.423  0.00  0.00    +0.000 A 
ATOM      6  C   UNL     1       0.623   8.600  21.486  0.00  0.00    +0.000 A 
ATOM      7  N   UNL     1       0.270   9.875  21.332  0.00  0.00    +0.000 NA
ATOM      8  N   UNL     1       0.777  10.228  20.108  0.00  0.00    +0.000 N 
ATOM      9  C   UNL     1       1.520   9.184  19.555  0.00  0.00    +0.000 A 
ATOM     10  N   UNL     1       2.229   9.182  18.410  0.00  0.00    +0.000 NA
ATOM     11  H   UNL     1       1.660   5.908  21.822  0.00  0.00    +0.000 HD
ENDROOT
BRANCH   4  12
ATOM     12  C   UNL     1       1.956   4.416  20.465  0.00  0.00    +0.000 A 
ATOM     13  C   UNL     1       3.168   3.717  20.412  0.00  0.00    +0.000 A 
ATOM     14  C   UNL     1       3.210   2.390  19.971  0.00  0.00    +0.000 A 
ATOM     15  C   UNL     1       2.037   1.745  19.585  0.00  0.00    +0.000 A 
ATOM     16  C   UNL     1       0.827   2.428  19.630  0.00  0.00    +0.000 A 
ATOM     17  C   UNL     1       0.791   3.757  20.053  0.00  0.00    +0.000 A 
ENDBRANCH   4  12
BRANCH   8  18
ATOM     18  C   UNL     1       0.492  11.519  19.569  0.00  0.00    +0.000 A 
ATOM     19  C   UNL     1       1.279  12.616  19.960  0.00  0.00    +0.000 A 
ATOM     20  C   UNL     1       1.011  13.894  19.464  0.00  0.00    +0.000 A 
ATOM     21  C   UNL     1      -0.046  14.093  18.581  0.00  0.00    +0.000 A 
ATOM     22  C   UNL     1      -0.834  13.013  18.187  0.00  0.00    +0.000 A 
ATOM     23  C   UNL     1      -0.568  11.730  18.676  0.00  0.00    +0.000 A 
ENDBRANCH   8  18
BRANCH   1  24
ATOM     24  C   UNL     1       3.686   7.911  16.895  0.00  0.00    +0.000 C 
BRANCH  24  25
ATOM     25  N   UNL     1       4.368   6.610  16.797  0.00  0.00    +0.000 N 
ATOM     26  H   UNL     1       3.720   5.858  17.025  0.00  0.00    +0.000 HD
BRANCH  25  30
ATOM     27  C   UNL     1       8.036   6.364  18.883  0.00  0.00    +0.000 A 
ATOM     28  C   UNL     1       7.823   7.347  17.923  0.00  0.00    +0.000 A 
ATOM     29  C   UNL     1       6.606   7.400  17.233  0.00  0.00    +0.000 A 
ATOM     30  C   UNL     1       5.594   6.456  17.459  0.00  0.00    +0.000 A 
ATOM     31  C   UNL     1       5.818   5.496  18.454  0.00  0.00    +0.000 A 
ATOM     32  C   UNL     1       7.031   5.441  19.153  0.00  0.00    +0.000 A 
ENDBRANCH  25  30
ENDBRANCH  24  25
ENDBRANCH   1  24
TORSDOF 5
ENDMDL
