MODEL 1
REMARK VINA RESULT:      -6.5      0.000      0.000
REMARK  Name = 
REMARK  7 active torsions:
REMARK  status: ('A' for Active; 'I' for Inactive)
REMARK    1  A    between atoms: C_2  and  O_3
REMARK    2  A    between atoms: C_2  and  C_4
REMARK    3  A    between atoms: C_4  and  C_6
REMARK    4  A    between atoms: C_4  and  P_13
REMARK    5  A    between atoms: C_6  and  C_7
REMARK    6  A    between atoms: P_13  and  O_15
REMARK    7  A    between atoms: P_13  and  O_16
REMARK                            x       y       z     vdW  Elec       q    Type
REMARK                         _______ _______ _______ _____ _____    ______ ____
ROOT
ATOM      1  C   UNL     1       5.446   5.186  17.040  0.00  0.00    +0.000 C 
ATOM      2 BR   UNL     1       5.569   5.272  19.024  0.00  0.00    +0.000 Br
ENDROOT
BRANCH   1   4
ATOM      3  O   UNL     1       4.081   7.145  17.406  0.00  0.00    +0.000 OA
ATOM      4  C   UNL     1       4.791   6.498  16.643  0.00  0.00    +0.000 C 
BRANCH   4   5
ATOM      5  O   UNL     1       5.034   6.983  15.405  0.00  0.00    +0.000 OA
ATOM      6  H   UNL     1       4.440   7.673  15.012  0.00  0.00    +0.000 HD
ENDBRANCH   4   5
ENDBRANCH   1   4
BRANCH   1   7
ATOM      7  P   UNL     1       7.136   5.031  16.417  0.00  0.00    +0.000 P 
ATOM      8  O   UNL     1       8.028   4.180  17.267  0.00  0.00    +0.000 OA
BRANCH   7   9
ATOM      9  O   UNL     1       7.069   4.581  14.879  0.00  0.00    +0.000 OA
ATOM     10  H   UNL     1       7.726   3.930  14.565  0.00  0.00    +0.000 HD
ENDBRANCH   7   9
BRANCH   7  11
ATOM     11  O   UNL     1       7.708   6.517  16.242  0.00  0.00    +0.000 OA
ATOM     12  H   UNL     1       8.688   6.531  16.217  0.00  0.00    +0.000 HD
ENDBRANCH   7  11
ENDBRANCH   1   7
BRANCH   1  13
ATOM     13  C   UNL     1       4.627   3.955  16.587  0.00  0.00    +0.000 C 
BRANCH  13  14
ATOM     14  C   UNL     1       3.460   3.413  17.376  0.00  0.00    +0.000 A 
ATOM     15  C   UNL     1       2.266   4.113  17.554  0.00  0.00    +0.000 A 
ATOM     16  C   UNL     1       1.254   3.573  18.345  0.00  0.00    +0.000 A 
ATOM     17  C   UNL     1       1.476   2.357  18.967  0.00  0.00    +0.000 A 
ATOM     18  N   UNL     1       2.624   1.663  18.849  0.00  0.00    +0.000 NA
ATOM     19  C   UNL     1       3.578   2.197  18.054  0.00  0.00    +0.000 A 
ENDBRANCH  13  14
ENDBRANCH   1  13
TORSDOF 7
ENDMDL
MODEL 2
REMARK VINA RESULT:      -6.4      1.397      1.828
REMARK  Name = 
REMARK  7 active torsions:
REMARK  status: ('A' for Active; 'I' for Inactive)
REMARK    1  A    between atoms: C_2  and  O_3
REMARK    2  A    between atoms: C_2  and  C_4
REMARK    3  A    between atoms: C_4  and  C_6
REMARK    4  A    between atoms: C_4  and  P_13
REMARK    5  A    between atoms: C_6  and  C_7
REMARK    6  A    between atoms: P_13  and  O_15
REMARK    7  A    between atoms: P_13  and  O_16
REMARK                            x       y       z     vdW  Elec       q    Type
REMARK                         _______ _______ _______ _____ _____    ______ ____
ROOT
ATOM      1  C   UNL     1       5.561   5.260  17.119  0.00  0.00    +0.000 C 
ATOM      2 BR   UNL     1       4.199   6.534  17.810  0.00  0.00    +0.000 Br
ENDROOT
BRANCH   1   4
ATOM      3  O   UNL     1       5.248   6.576  15.118  0.00  0.00    +0.000 OA
ATOM      4  C   UNL     1       5.973   5.837  15.775  0.00  0.00    +0.000 C 
BRANCH   4   5
ATOM      5  O   UNL     1       7.207   5.544  15.307  0.00  0.00    +0.000 OA
ATOM      6  H   UNL     1       8.003   5.666  15.884  0.00  0.00    +0.000 HD
ENDBRANCH   4   5
ENDBRANCH   1   4
BRANCH   1   7
ATOM      7  P   UNL     1       6.915   5.241  18.316  0.00  0.00    +0.000 P 
ATOM      8  O   UNL     1       6.471   5.153  19.744  0.00  0.00    +0.000 OA
BRANCH   7   9
ATOM      9  O   UNL     1       7.959   4.103  17.883  0.00  0.00    +0.000 OA
ATOM     10  H   UNL     1       7.650   3.409  17.268  0.00  0.00    +0.000 HD
ENDBRANCH   7   9
BRANCH   7  11
ATOM     11  O   UNL     1       7.802   6.546  18.040  0.00  0.00    +0.000 OA
ATOM     12  H   UNL     1       7.894   6.730  17.082  0.00  0.00    +0.000 HD
ENDBRANCH   7  11
ENDBRANCH   1   7
BRANCH   1  13
ATOM     13  C   UNL     1       4.976   3.834  16.997  0.00  0.00    +0.000 C 
BRANCH  13  14
ATOM     14  C   UNL     1       3.807   3.356  17.823  0.00  0.00    +0.000 A 
ATOM     15  C   UNL     1       2.480   3.466  17.407  0.00  0.00    +0.000 A 
ATOM     16  C   UNL     1       1.449   3.055  18.250  0.00  0.00    +0.000 A 
ATOM     17  C   UNL     1       1.772   2.576  19.507  0.00  0.00    +0.000 A 
ATOM     18  N   UNL     1       3.036   2.482  19.963  0.00  0.00    +0.000 NA
ATOM     19  C   UNL     1       4.017   2.861  19.113  0.00  0.00    +0.000 A 
ENDBRANCH  13  14
ENDBRANCH   1  13
TORSDOF 7
ENDMDL
MODEL 3
REMARK VINA RESULT:      -6.4      4.268      5.630
REMARK  Name = 
REMARK  7 active torsions:
REMARK  status: ('A' for Active; 'I' for Inactive)
REMARK    1  A    between atoms: C_2  and  O_3
REMARK    2  A    between atoms: C_2  and  C_4
REMARK    3  A    between atoms: C_4  and  C_6
REMARK    4  A    between atoms: C_4  and  P_13
REMARK    5  A    between atoms: C_6  and  C_7
REMARK    6  A    between atoms: P_13  and  O_15
REMARK    7  A    between atoms: P_13  and  O_16
REMARK                            x       y       z     vdW  Elec       q    Type
REMARK                         _______ _______ _______ _____ _____    ______ ____
ROOT
ATOM      1  C   UNL     1       2.917   3.636  19.364  0.00  0.00    +0.000 C 
ATOM      2 BR   UNL     1       4.187   2.194  19.879  0.00  0.00    +0.000 Br
ENDROOT
BRANCH   1   4
ATOM      3  O   UNL     1       1.327   3.675  17.546  0.00  0.00    +0.000 OA
ATOM      4  C   UNL     1       2.055   3.014  18.279  0.00  0.00    +0.000 C 
BRANCH   4   5
ATOM      5  O   UNL     1       2.125   1.676  18.097  0.00  0.00    +0.000 OA
ATOM      6  H   UNL     1       1.757   1.059  18.780  0.00  0.00    +0.000 HD
ENDBRANCH   4   5
ENDBRANCH   1   4
BRANCH   1   7
ATOM      7  P   UNL     1       1.974   4.058  20.848  0.00  0.00    +0.000 P 
ATOM      8  O   UNL     1       2.287   3.203  22.038  0.00  0.00    +0.000 OA
BRANCH   7   9
ATOM      9  O   UNL     1       2.124   5.632  21.114  0.00  0.00    +0.000 OA
ATOM     10  H   UNL     1       1.504   6.234  20.659  0.00  0.00    +0.000 HD
ENDBRANCH   7   9
BRANCH   7  11
ATOM     11  O   UNL     1       0.424   3.994  20.451  0.00  0.00    +0.000 OA
ATOM     12  H   UNL     1      -0.118   4.604  20.995  0.00  0.00    +0.000 HD
ENDBRANCH   7  11
ENDBRANCH   1   7
BRANCH   1  13
ATOM     13  C   UNL     1       3.672   4.893  18.874  0.00  0.00    +0.000 C 
BRANCH  13  14
ATOM     14  C   UNL     1       5.035   4.828  18.228  0.00  0.00    +0.000 A 
ATOM     15  C   UNL     1       5.237   4.442  16.903  0.00  0.00    +0.000 A 
ATOM     16  C   UNL     1       6.531   4.350  16.394  0.00  0.00    +0.000 A 
ATOM     17  C   UNL     1       7.595   4.614  17.238  0.00  0.00    +0.000 A 
ATOM     18  N   UNL     1       7.449   4.959  18.532  0.00  0.00    +0.000 NA
ATOM     19  C   UNL     1       6.182   5.068  18.991  0.00  0.00    +0.000 A 
ENDBRANCH  13  14
ENDBRANCH   1  13
TORSDOF 7
ENDMDL
MODEL 4
REMARK VINA RESULT:      -6.4      0.162      1.098
REMARK  Name = 
REMARK  7 active torsions:
REMARK  status: ('A' for Active; 'I' for Inactive)
REMARK    1  A    between atoms: C_2  and  O_3
REMARK    2  A    between atoms: C_2  and  C_4
REMARK    3  A    between atoms: C_4  and  C_6
REMARK    4  A    between atoms: C_4  and  P_13
REMARK    5  A    between atoms: C_6  and  C_7
REMARK    6  A    between atoms: P_13  and  O_15
REMARK    7  A    between atoms: P_13  and  O_16
REMARK                            x       y       z     vdW  Elec       q    Type
REMARK                         _______ _______ _______ _____ _____    ______ ____
ROOT
ATOM      1  C   UNL     1       5.369   5.187  16.951  0.00  0.00    +0.000 C 
ATOM      2 BR   UNL     1       5.650   5.212  18.920  0.00  0.00    +0.000 Br
ENDROOT
BRANCH   1   4
ATOM      3  O   UNL     1       4.022   7.133  17.437  0.00  0.00    +0.000 OA
ATOM      4  C   UNL     1       4.738   6.534  16.641  0.00  0.00    +0.000 C 
BRANCH   4   5
ATOM      5  O   UNL     1       5.009   7.106  15.447  0.00  0.00    +0.000 OA
ATOM      6  H   UNL     1       5.429   6.575  14.722  0.00  0.00    +0.000 HD
ENDBRANCH   4   5
ENDBRANCH   1   4
BRANCH   1   7
ATOM      7  P   UNL     1       6.997   4.987  16.192  0.00  0.00    +0.000 P 
ATOM      8  O   UNL     1       6.971   4.322  14.850  0.00  0.00    +0.000 OA
BRANCH   7   9
ATOM      9  O   UNL     1       7.741   6.408  16.206  0.00  0.00    +0.000 OA
ATOM     10  H   UNL     1       8.605   6.467  16.659  0.00  0.00    +0.000 HD
ENDBRANCH   7   9
BRANCH   7  11
ATOM     11  O   UNL     1       7.908   4.191  17.242  0.00  0.00    +0.000 OA
ATOM     12  H   UNL     1       8.099   3.277  16.941  0.00  0.00    +0.000 HD
ENDBRANCH   7  11
ENDBRANCH   1   7
BRANCH   1  13
ATOM     13  C   UNL     1       4.469   4.001  16.533  0.00  0.00    +0.000 C 
BRANCH  13  14
ATOM     14  C   UNL     1       3.352   3.476  17.401  0.00  0.00    +0.000 A 
ATOM     15  C   UNL     1       2.199   4.206  17.691  0.00  0.00    +0.000 A 
ATOM     16  C   UNL     1       1.237   3.678  18.550  0.00  0.00    +0.000 A 
ATOM     17  C   UNL     1       1.470   2.441  19.125  0.00  0.00    +0.000 A 
ATOM     18  N   UNL     1       2.582   1.716  18.899  0.00  0.00    +0.000 NA
ATOM     19  C   UNL     1       3.485   2.240  18.040  0.00  0.00    +0.000 A 
ENDBRANCH  13  14
ENDBRANCH   1  13
TORSDOF 7
ENDMDL
MODEL 5
REMARK VINA RESULT:      -6.4      0.450      1.253
REMARK  Name = 
REMARK  7 active torsions:
REMARK  status: ('A' for Active; 'I' for Inactive)
REMARK    1  A    between atoms: C_2  and  O_3
REMARK    2  A    between atoms: C_2  and  C_4
REMARK    3  A    between atoms: C_4  and  C_6
REMARK    4  A    between atoms: C_4  and  P_13
REMARK    5  A    between atoms: C_6  and  C_7
REMARK    6  A    between atoms: P_13  and  O_15
REMARK    7  A    between atoms: P_13  and  O_16
REMARK                            x       y       z     vdW  Elec       q    Type
REMARK                         _______ _______ _______ _____ _____    ______ ____
ROOT
ATOM      1  C   UNL     1       5.374   5.088  16.918  0.00  0.00    +0.000 C 
ATOM      2 BR   UNL     1       5.687   5.098  18.882  0.00  0.00    +0.000 Br
ENDROOT
BRANCH   1   4
ATOM      3  O   UNL     1       4.285   7.179  17.440  0.00  0.00    +0.000 OA
ATOM      4  C   UNL     1       4.858   6.483  16.609  0.00  0.00    +0.000 C 
BRANCH   4   5
ATOM      5  O   UNL     1       5.072   6.982  15.371  0.00  0.00    +0.000 OA
ATOM      6  H   UNL     1       5.292   7.941  15.250  0.00  0.00    +0.000 HD
ENDBRANCH   4   5
ENDBRANCH   1   4
BRANCH   1   7
ATOM      7  P   UNL     1       6.967   4.743  16.135  0.00  0.00    +0.000 P 
ATOM      8  O   UNL     1       7.578   5.922  15.442  0.00  0.00    +0.000 OA
BRANCH   7   9
ATOM      9  O   UNL     1       7.925   4.050  17.219  0.00  0.00    +0.000 OA
ATOM     10  H   UNL     1       7.796   4.284  18.159  0.00  0.00    +0.000 HD
ENDBRANCH   7   9
BRANCH   7  11
ATOM     11  O   UNL     1       6.743   3.509  15.140  0.00  0.00    +0.000 OA
ATOM     12  H   UNL     1       5.978   2.957  15.408  0.00  0.00    +0.000 HD
ENDBRANCH   7  11
ENDBRANCH   1   7
BRANCH   1  13
ATOM     13  C   UNL     1       4.369   3.982  16.521  0.00  0.00    +0.000 C 
BRANCH  13  14
ATOM     14  C   UNL     1       3.284   3.492  17.448  0.00  0.00    +0.000 A 
ATOM     15  C   UNL     1       2.161   4.251  17.781  0.00  0.00    +0.000 A 
ATOM     16  C   UNL     1       1.229   3.754  18.691  0.00  0.00    +0.000 A 
ATOM     17  C   UNL     1       1.464   2.521  19.273  0.00  0.00    +0.000 A 
ATOM     18  N   UNL     1       2.549   1.769  19.006  0.00  0.00    +0.000 NA
ATOM     19  C   UNL     1       3.421   2.263  18.098  0.00  0.00    +0.000 A 
ENDBRANCH  13  14
ENDBRANCH   1  13
TORSDOF 7
ENDMDL
MODEL 6
REMARK VINA RESULT:      -6.3      1.773      2.246
REMARK  Name = 
REMARK  7 active torsions:
REMARK  status: ('A' for Active; 'I' for Inactive)
REMARK    1  A    between atoms: C_2  and  O_3
REMARK    2  A    between atoms: C_2  and  C_4
REMARK    3  A    between atoms: C_4  and  C_6
REMARK    4  A    between atoms: C_4  and  P_13
REMARK    5  A    between atoms: C_6  and  C_7
REMARK    6  A    between atoms: P_13  and  O_15
REMARK    7  A    between atoms: P_13  and  O_16
REMARK                            x       y       z     vdW  Elec       q    Type
REMARK                         _______ _______ _______ _____ _____    ______ ____
ROOT
ATOM      1  C   UNL     1       5.755   4.970  16.864  0.00  0.00    +0.000 C 
ATOM      2 BR   UNL     1       4.638   6.605  17.051  0.00  0.00    +0.000 Br
ENDROOT
BRANCH   1   4
ATOM      3  O   UNL     1       5.472   4.620  14.491  0.00  0.00    +0.000 OA
ATOM      4  C   UNL     1       6.199   4.978  15.411  0.00  0.00    +0.000 C 
BRANCH   4   5
ATOM      5  O   UNL     1       7.441   5.431  15.126  0.00  0.00    +0.000 OA
ATOM      6  H   UNL     1       7.568   6.341  14.753  0.00  0.00    +0.000 HD
ENDBRANCH   4   5
ENDBRANCH   1   4
BRANCH   1   7
ATOM      7  P   UNL     1       7.136   5.145  18.017  0.00  0.00    +0.000 P 
ATOM      8  O   UNL     1       6.736   5.130  19.461  0.00  0.00    +0.000 OA
BRANCH   7   9
ATOM      9  O   UNL     1       8.256   4.063  17.635  0.00  0.00    +0.000 OA
ATOM     10  H   UNL     1       9.064   4.028  18.184  0.00  0.00    +0.000 HD
ENDBRANCH   7   9
BRANCH   7  11
ATOM     11  O   UNL     1       7.910   6.491  17.621  0.00  0.00    +0.000 OA
ATOM     12  H   UNL     1       7.506   7.281  18.037  0.00  0.00    +0.000 HD
ENDBRANCH   7  11
ENDBRANCH   1   7
BRANCH   1  13
ATOM     13  C   UNL     1       4.951   3.702  17.231  0.00  0.00    +0.000 C 
BRANCH  13  14
ATOM     14  C   UNL     1       3.644   3.752  17.984  0.00  0.00    +0.000 A 
ATOM     15  C   UNL     1       3.564   3.896  19.370  0.00  0.00    +0.000 A 
ATOM     16  C   UNL     1       2.323   3.874  20.002  0.00  0.00    +0.000 A 
ATOM     17  C   UNL     1       1.191   3.675  19.232  0.00  0.00    +0.000 A 
ATOM     18  N   UNL     1       1.223   3.500  17.897  0.00  0.00    +0.000 NA
ATOM     19  C   UNL     1       2.438   3.553  17.307  0.00  0.00    +0.000 A 
ENDBRANCH  13  14
ENDBRANCH   1  13
TORSDOF 7
ENDMDL
MODEL 7
REMARK VINA RESULT:      -6.3      0.738      1.620
REMARK  Name = 
REMARK  7 active torsions:
REMARK  status: ('A' for Active; 'I' for Inactive)
REMARK    1  A    between atoms: C_2  and  O_3
REMARK    2  A    between atoms: C_2  and  C_4
REMARK    3  A    between atoms: C_4  and  C_6
REMARK    4  A    between atoms: C_4  and  P_13
REMARK    5  A    between atoms: C_6  and  C_7
REMARK    6  A    between atoms: P_13  and  O_15
REMARK    7  A    between atoms: P_13  and  O_16
REMARK                            x       y       z     vdW  Elec       q    Type
REMARK                         _______ _______ _______ _____ _____    ______ ____
ROOT
ATOM      1  C   UNL     1       5.405   5.092  16.990  0.00  0.00    +0.000 C 
ATOM      2 BR   UNL     1       5.719   5.102  18.954  0.00  0.00    +0.000 Br
ENDROOT
BRANCH   1   4
ATOM      3  O   UNL     1       4.036   7.011  17.516  0.00  0.00    +0.000 OA
ATOM      4  C   UNL     1       4.750   6.432  16.704  0.00  0.00    +0.000 C 
BRANCH   4   5
ATOM      5  O   UNL     1       4.996   7.022  15.513  0.00  0.00    +0.000 OA
ATOM      6  H   UNL     1       5.242   6.473  14.724  0.00  0.00    +0.000 HD
ENDBRANCH   4   5
ENDBRANCH   1   4
BRANCH   1   7
ATOM      7  P   UNL     1       7.023   4.922  16.202  0.00  0.00    +0.000 P 
ATOM      8  O   UNL     1       6.987   4.244  14.867  0.00  0.00    +0.000 OA
BRANCH   7   9
ATOM      9  O   UNL     1       7.733   6.360  16.188  0.00  0.00    +0.000 OA
ATOM     10  H   UNL     1       8.274   6.610  16.963  0.00  0.00    +0.000 HD
ENDBRANCH   7   9
BRANCH   7  11
ATOM     11  O   UNL     1       7.972   4.158  17.240  0.00  0.00    +0.000 OA
ATOM     12  H   UNL     1       8.749   3.756  16.798  0.00  0.00    +0.000 HD
ENDBRANCH   7  11
ENDBRANCH   1   7
BRANCH   1  13
ATOM     13  C   UNL     1       4.515   3.897  16.576  0.00  0.00    +0.000 C 
BRANCH  13  14
ATOM     14  C   UNL     1       3.393   3.375  17.439  0.00  0.00    +0.000 A 
ATOM     15  C   UNL     1       3.492   2.212  18.203  0.00  0.00    +0.000 A 
ATOM     16  C   UNL     1       2.392   1.760  18.931  0.00  0.00    +0.000 A 
ATOM     17  C   UNL     1       1.207   2.468  18.847  0.00  0.00    +0.000 A 
ATOM     18  N   UNL     1       1.056   3.577  18.098  0.00  0.00    +0.000 NA
ATOM     19  C   UNL     1       2.147   4.008  17.425  0.00  0.00    +0.000 A 
ENDBRANCH  13  14
ENDBRANCH   1  13
TORSDOF 7
ENDMDL
MODEL 8
REMARK VINA RESULT:      -6.3      1.793      2.176
REMARK  Name = 
REMARK  7 active torsions:
REMARK  status: ('A' for Active; 'I' for Inactive)
REMARK    1  A    between atoms: C_2  and  O_3
REMARK    2  A    between atoms: C_2  and  C_4
REMARK    3  A    between atoms: C_4  and  C_6
REMARK    4  A    between atoms: C_4  and  P_13
REMARK    5  A    between atoms: C_6  and  C_7
REMARK    6  A    between atoms: P_13  and  O_15
REMARK    7  A    between atoms: P_13  and  O_16
REMARK                            x       y       z     vdW  Elec       q    Type
REMARK                         _______ _______ _______ _____ _____    ______ ____
ROOT
ATOM      1  C   UNL     1       5.805   4.981  16.859  0.00  0.00    +0.000 C 
ATOM      2 BR   UNL     1       4.672   6.604  17.050  0.00  0.00    +0.000 Br
ENDROOT
BRANCH   1   4
ATOM      3  O   UNL     1       7.385   5.415  15.085  0.00  0.00    +0.000 OA
ATOM      4  C   UNL     1       6.275   5.013  15.415  0.00  0.00    +0.000 C 
BRANCH   4   5
ATOM      5  O   UNL     1       5.438   4.545  14.462  0.00  0.00    +0.000 OA
ATOM      6  H   UNL     1       4.457   4.580  14.596  0.00  0.00    +0.000 HD
ENDBRANCH   4   5
ENDBRANCH   1   4
BRANCH   1   7
ATOM      7  P   UNL     1       7.164   5.150  18.039  0.00  0.00    +0.000 P 
ATOM      8  O   UNL     1       6.737   5.132  19.475  0.00  0.00    +0.000 OA
BRANCH   7   9
ATOM      9  O   UNL     1       8.289   4.066  17.676  0.00  0.00    +0.000 OA
ATOM     10  H   UNL     1       9.061   3.991  18.270  0.00  0.00    +0.000 HD
ENDBRANCH   7   9
BRANCH   7  11
ATOM     11  O   UNL     1       7.948   6.495  17.661  0.00  0.00    +0.000 OA
ATOM     12  H   UNL     1       7.488   7.000  16.958  0.00  0.00    +0.000 HD
ENDBRANCH   7  11
ENDBRANCH   1   7
BRANCH   1  13
ATOM     13  C   UNL     1       5.004   3.701  17.194  0.00  0.00    +0.000 C 
BRANCH  13  14
ATOM     14  C   UNL     1       3.703   3.727  17.957  0.00  0.00    +0.000 A 
ATOM     15  C   UNL     1       2.453   3.773  17.339  0.00  0.00    +0.000 A 
ATOM     16  C   UNL     1       1.296   3.854  18.112  0.00  0.00    +0.000 A 
ATOM     17  C   UNL     1       1.422   3.923  19.488  0.00  0.00    +0.000 A 
ATOM     18  N   UNL     1       2.608   3.915  20.126  0.00  0.00    +0.000 NA
ATOM     19  C   UNL     1       3.712   3.807  19.353  0.00  0.00    +0.000 A 
ENDBRANCH  13  14
ENDBRANCH   1  13
TORSDOF 7
ENDMDL
MODEL 9
REMARK VINA RESULT:      -6.3      1.728      2.726
REMARK  Name = 
REMARK  7 active torsions:
REMARK  status: ('A' for Active; 'I' for Inactive)
REMARK    1  A    between atoms: C_2  and  O_3
REMARK    2  A    between atoms: C_2  and  C_4
REMARK    3  A    between atoms: C_4  and  C_6
REMARK    4  A    between atoms: C_4  and  P_13
REMARK    5  A    between atoms: C_6  and  C_7
REMARK    6  A    between atoms: P_13  and  O_15
REMARK    7  A    between atoms: P_13  and  O_16
REMARK                            x       y       z     vdW  Elec       q    Type
REMARK                         _______ _______ _______ _____ _____    ______ ____
ROOT
ATOM      1  C   UNL     1       5.648   4.942  17.188  0.00  0.00    +0.000 C 
ATOM      2 BR   UNL     1       4.953   6.729  16.658  0.00  0.00    +0.000 Br
ENDROOT
BRANCH   1   4
ATOM      3  O   UNL     1       7.390   5.555  15.631  0.00  0.00    +0.000 OA
ATOM      4  C   UNL     1       7.050   4.892  16.606  0.00  0.00    +0.000 C 
BRANCH   4   5
ATOM      5  O   UNL     1       7.966   4.106  17.214  0.00  0.00    +0.000 OA
ATOM      6  H   UNL     1       8.344   4.365  18.093  0.00  0.00    +0.000 HD
ENDBRANCH   4   5
ENDBRANCH   1   4
BRANCH   1   7
ATOM      7  P   UNL     1       5.640   4.893  18.996  0.00  0.00    +0.000 P 
ATOM      8  O   UNL     1       4.504   5.639  19.625  0.00  0.00    +0.000 OA
BRANCH   7   9
ATOM      9  O   UNL     1       5.760   3.364  19.462  0.00  0.00    +0.000 OA
ATOM     10  H   UNL     1       6.299   2.759  18.914  0.00  0.00    +0.000 HD
ENDBRANCH   7   9
BRANCH   7  11
ATOM     11  O   UNL     1       7.064   5.440  19.485  0.00  0.00    +0.000 OA
ATOM     12  H   UNL     1       7.300   5.102  20.374  0.00  0.00    +0.000 HD
ENDBRANCH   7  11
ENDBRANCH   1   7
BRANCH   1  13
ATOM     13  C   UNL     1       4.742   3.810  16.650  0.00  0.00    +0.000 C 
BRANCH  13  14
ATOM     14  C   UNL     1       3.435   3.429  17.302  0.00  0.00    +0.000 A 
ATOM     15  C   UNL     1       2.371   4.317  17.462  0.00  0.00    +0.000 A 
ATOM     16  C   UNL     1       1.216   3.909  18.127  0.00  0.00    +0.000 A 
ATOM     17  C   UNL     1       1.170   2.628  18.648  0.00  0.00    +0.000 A 
ATOM     18  N   UNL     1       2.185   1.749  18.546  0.00  0.00    +0.000 NA
ATOM     19  C   UNL     1       3.281   2.162  17.871  0.00  0.00    +0.000 A 
ENDBRANCH  13  14
ENDBRANCH   1  13
TORSDOF 7
ENDMDL
