MODEL 1
REMARK VINA RESULT:      -7.7      0.000      0.000
REMARK  Name = 
REMARK  9 active torsions:
REMARK  status: ('A' for Active; 'I' for Inactive)
REMARK    1  A    between atoms: C_1  and  O_2
REMARK    2  A    between atoms: O_2  and  C_3
REMARK    3  A    between atoms: C_8  and  N_9
REMARK    4  A    between atoms: N_12  and  C_13
REMARK    5  A    between atoms: C_13  and  C_14
REMARK    6  A    between atoms: C_14  and  C_15
REMARK    7  A    between atoms: C_15  and  C_16
REMARK    8  A    between atoms: C_16  and  C_17
REMARK    9  A    between atoms: C_19  and  C_20
REMARK                            x       y       z     vdW  Elec       q    Type
REMARK                         _______ _______ _______ _____ _____    ______ ____
ROOT
ATOM      1  C   UNL     1       7.055   7.819  17.411  0.00  0.00    +0.000 C 
ENDROOT
BRANCH   1   5
ATOM      2  N   UNL     1       4.480   5.417  18.182  0.00  0.00    +0.000 N 
ATOM      3  C   UNL     1       5.815   5.355  18.767  0.00  0.00    +0.000 C 
ATOM      4  C   UNL     1       6.865   5.409  17.637  0.00  0.00    +0.000 C 
ATOM      5  N   UNL     1       6.657   6.567  16.736  0.00  0.00    +0.000 NA
ATOM      6  C   UNL     1       5.283   6.548  16.184  0.00  0.00    +0.000 C 
ATOM      7  C   UNL     1       4.236   6.557  17.302  0.00  0.00    +0.000 C 
BRANCH   2  13
ATOM      8  C   UNL     1       2.582   4.428  19.499  0.00  0.00    +0.000 A 
ATOM      9  C   UNL     1       1.630   3.398  19.651  0.00  0.00    +0.000 A 
ATOM     10  C   UNL     1       1.559   2.354  18.730  0.00  0.00    +0.000 A 
ATOM     11  C   UNL     1       2.430   2.314  17.649  0.00  0.00    +0.000 A 
ATOM     12  C   UNL     1       3.376   3.322  17.478  0.00  0.00    +0.000 A 
ATOM     13  C   UNL     1       3.479   4.397  18.390  0.00  0.00    +0.000 A 
BRANCH   8  15
ATOM     14  C   UNL     1       1.819   6.569  20.408  0.00  0.00    +0.000 C 
ATOM     15  O   UNL     1       2.636   5.459  20.386  0.00  0.00    +0.000 OA
ENDBRANCH   8  15
ENDBRANCH   2  13
ENDBRANCH   1   5
BRANCH   1  16
ATOM     16  C   UNL     1       8.283   7.665  18.323  0.00  0.00    +0.000 C 
BRANCH  16  17
ATOM     17  C   UNL     1       8.725   9.015  18.899  0.00  0.00    +0.000 C 
BRANCH  17  18
ATOM     18  C   UNL     1       8.627  10.150  17.874  0.00  0.00    +0.000 C 
BRANCH  18  19
ATOM     19  C   UNL     1       9.294  11.362  18.406  0.00  0.00    +0.000 A 
ATOM     20  C   UNL     1       9.564  12.496  17.687  0.00  0.00    +0.000 A 
ATOM     21  C   UNL     1      10.199  13.317  18.587  0.00  0.00    +0.000 A 
ATOM     22  N   UNL     1      10.290  12.681  19.776  0.00  0.00    +0.000 NA
ATOM     23  O   UNL     1       9.735  11.515  19.632  0.00  0.00    +0.000 OA
BRANCH  21  24
ATOM     24  C   UNL     1      10.714  14.674  18.328  0.00  0.00    +0.000 A 
ATOM     25  C   UNL     1      10.126  15.500  17.351  0.00  0.00    +0.000 A 
ATOM     26  C   UNL     1      10.622  16.784  17.123  0.00  0.00    +0.000 A 
ATOM     27  C   UNL     1      11.709  17.256  17.863  0.00  0.00    +0.000 A 
ATOM     28  F   UNL     1      12.187  18.503  17.642  0.00  0.00    +0.000 F 
ATOM     29  C   UNL     1      12.300  16.441  18.832  0.00  0.00    +0.000 A 
ATOM     30  C   UNL     1      11.807  15.157  19.066  0.00  0.00    +0.000 A 
ENDBRANCH  21  24
ENDBRANCH  18  19
ENDBRANCH  17  18
ENDBRANCH  16  17
ENDBRANCH   1  16
TORSDOF 8
ENDMDL
MODEL 2
REMARK VINA RESULT:      -7.7      4.114     11.950
REMARK  Name = 
REMARK  9 active torsions:
REMARK  status: ('A' for Active; 'I' for Inactive)
REMARK    1  A    between atoms: C_1  and  O_2
REMARK    2  A    between atoms: O_2  and  C_3
REMARK    3  A    between atoms: C_8  and  N_9
REMARK    4  A    between atoms: N_12  and  C_13
REMARK    5  A    between atoms: C_13  and  C_14
REMARK    6  A    between atoms: C_14  and  C_15
REMARK    7  A    between atoms: C_15  and  C_16
REMARK    8  A    between atoms: C_16  and  C_17
REMARK    9  A    between atoms: C_19  and  C_20
REMARK                            x       y       z     vdW  Elec       q    Type
REMARK                         _______ _______ _______ _____ _____    ______ ____
ROOT
ATOM      1  C   UNL     1       8.732  10.145  18.619  0.00  0.00    +0.000 C 
ENDROOT
BRANCH   1   5
ATOM      2  N   UNL     1       9.873  13.533  19.080  0.00  0.00    +0.000 N 
ATOM      3  C   UNL     1       9.882  12.870  17.781  0.00  0.00    +0.000 C 
ATOM      4  C   UNL     1      10.608  11.513  17.911  0.00  0.00    +0.000 C 
ATOM      5  N   UNL     1      10.052  10.684  19.006  0.00  0.00    +0.000 NA
ATOM      6  C   UNL     1      10.087  11.432  20.284  0.00  0.00    +0.000 C 
ATOM      7  C   UNL     1       9.315  12.749  20.178  0.00  0.00    +0.000 C 
BRANCH   2  13
ATOM      8  C   UNL     1       9.708  16.040  19.019  0.00  0.00    +0.000 A 
ATOM      9  C   UNL     1      10.316  17.293  19.249  0.00  0.00    +0.000 A 
ATOM     10  C   UNL     1      11.616  17.372  19.745  0.00  0.00    +0.000 A 
ATOM     11  C   UNL     1      12.332  16.213  20.018  0.00  0.00    +0.000 A 
ATOM     12  C   UNL     1      11.752  14.967  19.802  0.00  0.00    +0.000 A 
ATOM     13  C   UNL     1      10.435  14.846  19.299  0.00  0.00    +0.000 A 
BRANCH   8  15
ATOM     14  C   UNL     1       7.278  16.126  19.292  0.00  0.00    +0.000 C 
ATOM     15  O   UNL     1       8.431  15.963  18.555  0.00  0.00    +0.000 OA
ENDBRANCH   8  15
ENDBRANCH   2  13
ENDBRANCH   1   5
BRANCH   1  16
ATOM     16  C   UNL     1       8.675   8.609  18.600  0.00  0.00    +0.000 C 
BRANCH  16  17
ATOM     17  C   UNL     1       7.636   8.100  17.595  0.00  0.00    +0.000 C 
BRANCH  17  18
ATOM     18  C   UNL     1       7.827   6.618  17.254  0.00  0.00    +0.000 C 
BRANCH  18  19
ATOM     19  C   UNL     1       6.903   5.795  18.070  0.00  0.00    +0.000 A 
ATOM     20  C   UNL     1       5.606   5.502  17.743  0.00  0.00    +0.000 A 
ATOM     21  C   UNL     1       5.159   4.744  18.798  0.00  0.00    +0.000 A 
ATOM     22  N   UNL     1       6.160   4.606  19.696  0.00  0.00    +0.000 NA
ATOM     23  O   UNL     1       7.190   5.245  19.226  0.00  0.00    +0.000 OA
BRANCH  21  24
ATOM     24  C   UNL     1       3.813   4.165  18.958  0.00  0.00    +0.000 A 
ATOM     25  C   UNL     1       2.964   4.580  20.002  0.00  0.00    +0.000 A 
ATOM     26  C   UNL     1       1.690   4.027  20.136  0.00  0.00    +0.000 A 
ATOM     27  C   UNL     1       1.252   3.054  19.235  0.00  0.00    +0.000 A 
ATOM     28  F   UNL     1       0.014   2.520  19.365  0.00  0.00    +0.000 F 
ATOM     29  C   UNL     1       2.090   2.634  18.198  0.00  0.00    +0.000 A 
ATOM     30  C   UNL     1       3.364   3.186  18.058  0.00  0.00    +0.000 A 
ENDBRANCH  21  24
ENDBRANCH  18  19
ENDBRANCH  17  18
ENDBRANCH  16  17
ENDBRANCH   1  16
TORSDOF 8
ENDMDL
MODEL 3
REMARK VINA RESULT:      -7.6      4.171     12.019
REMARK  Name = 
REMARK  9 active torsions:
REMARK  status: ('A' for Active; 'I' for Inactive)
REMARK    1  A    between atoms: C_1  and  O_2
REMARK    2  A    between atoms: O_2  and  C_3
REMARK    3  A    between atoms: C_8  and  N_9
REMARK    4  A    between atoms: N_12  and  C_13
REMARK    5  A    between atoms: C_13  and  C_14
REMARK    6  A    between atoms: C_14  and  C_15
REMARK    7  A    between atoms: C_15  and  C_16
REMARK    8  A    between atoms: C_16  and  C_17
REMARK    9  A    between atoms: C_19  and  C_20
REMARK                            x       y       z     vdW  Elec       q    Type
REMARK                         _______ _______ _______ _____ _____    ______ ____
ROOT
ATOM      1  C   UNL     1       9.562  10.435  18.496  0.00  0.00    +0.000 C 
ENDROOT
BRANCH   1   5
ATOM      2  N   UNL     1      10.065  13.850  19.536  0.00  0.00    +0.000 N 
ATOM      3  C   UNL     1      10.910  13.197  18.542  0.00  0.00    +0.000 C 
ATOM      4  C   UNL     1      11.427  11.860  19.118  0.00  0.00    +0.000 C 
ATOM      5  N   UNL     1      10.326  11.008  19.624  0.00  0.00    +0.000 NA
ATOM      6  C   UNL     1       9.525  11.745  20.628  0.00  0.00    +0.000 C 
ATOM      7  C   UNL     1       8.959  13.042  20.042  0.00  0.00    +0.000 C 
BRANCH   2  13
ATOM      8  C   UNL     1      10.200  16.341  19.235  0.00  0.00    +0.000 A 
ATOM      9  C   UNL     1      10.477  17.608  19.791  0.00  0.00    +0.000 A 
ATOM     10  C   UNL     1      10.872  17.729  21.122  0.00  0.00    +0.000 A 
ATOM     11  C   UNL     1      11.000  16.599  21.919  0.00  0.00    +0.000 A 
ATOM     12  C   UNL     1      10.729  15.339  21.392  0.00  0.00    +0.000 A 
ATOM     13  C   UNL     1      10.327  15.175  20.047  0.00  0.00    +0.000 A 
BRANCH   8  15
ATOM     14  C   UNL     1      10.547  16.481  16.816  0.00  0.00    +0.000 C 
ATOM     15  O   UNL     1       9.794  16.225  17.941  0.00  0.00    +0.000 OA
ENDBRANCH   8  15
ENDBRANCH   2  13
ENDBRANCH   1   5
BRANCH   1  16
ATOM     16  C   UNL     1       8.705   9.219  18.885  0.00  0.00    +0.000 C 
BRANCH  16  17
ATOM     17  C   UNL     1       7.685   8.882  17.793  0.00  0.00    +0.000 C 
BRANCH  17  18
ATOM     18  C   UNL     1       7.863   7.463  17.241  0.00  0.00    +0.000 C 
BRANCH  18  19
ATOM     19  C   UNL     1       6.988   6.525  17.983  0.00  0.00    +0.000 A 
ATOM     20  C   UNL     1       5.765   6.081  17.558  0.00  0.00    +0.000 A 
ATOM     21  C   UNL     1       5.335   5.263  18.575  0.00  0.00    +0.000 A 
ATOM     22  N   UNL     1       6.275   5.237  19.546  0.00  0.00    +0.000 NA
ATOM     23  O   UNL     1       7.252   6.001  19.157  0.00  0.00    +0.000 OA
BRANCH  21  24
ATOM     24  C   UNL     1       4.062   4.524  18.632  0.00  0.00    +0.000 A 
ATOM     25  C   UNL     1       3.919   3.384  19.446  0.00  0.00    +0.000 A 
ATOM     26  C   UNL     1       2.704   2.699  19.493  0.00  0.00    +0.000 A 
ATOM     27  C   UNL     1       1.622   3.141  18.728  0.00  0.00    +0.000 A 
ATOM     28  F   UNL     1       0.443   2.476  18.777  0.00  0.00    +0.000 F 
ATOM     29  C   UNL     1       1.756   4.270  17.914  0.00  0.00    +0.000 A 
ATOM     30  C   UNL     1       2.969   4.959  17.865  0.00  0.00    +0.000 A 
ENDBRANCH  21  24
ENDBRANCH  18  19
ENDBRANCH  17  18
ENDBRANCH  16  17
ENDBRANCH   1  16
TORSDOF 8
ENDMDL
MODEL 4
REMARK VINA RESULT:      -7.6      4.430     11.776
REMARK  Name = 
REMARK  9 active torsions:
REMARK  status: ('A' for Active; 'I' for Inactive)
REMARK    1  A    between atoms: C_1  and  O_2
REMARK    2  A    between atoms: O_2  and  C_3
REMARK    3  A    between atoms: C_8  and  N_9
REMARK    4  A    between atoms: N_12  and  C_13
REMARK    5  A    between atoms: C_13  and  C_14
REMARK    6  A    between atoms: C_14  and  C_15
REMARK    7  A    between atoms: C_15  and  C_16
REMARK    8  A    between atoms: C_16  and  C_17
REMARK    9  A    between atoms: C_19  and  C_20
REMARK                            x       y       z     vdW  Elec       q    Type
REMARK                         _______ _______ _______ _____ _____    ______ ____
ROOT
ATOM      1  C   UNL     1       9.524  10.801  18.214  0.00  0.00    +0.000 C 
ENDROOT
BRANCH   1   5
ATOM      2  N   UNL     1       9.551  13.943  19.982  0.00  0.00    +0.000 N 
ATOM      3  C   UNL     1       9.989  13.815  18.596  0.00  0.00    +0.000 C 
ATOM      4  C   UNL     1      11.033  12.681  18.498  0.00  0.00    +0.000 C 
ATOM      5  N   UNL     1      10.541  11.416  19.091  0.00  0.00    +0.000 NA
ATOM      6  C   UNL     1      10.124  11.636  20.496  0.00  0.00    +0.000 C 
ATOM      7  C   UNL     1       9.043  12.717  20.591  0.00  0.00    +0.000 C 
BRANCH   2  13
ATOM      8  C   UNL     1       8.570  16.063  20.909  0.00  0.00    +0.000 A 
ATOM      9  C   UNL     1       8.750  17.248  21.652  0.00  0.00    +0.000 A 
ATOM     10  C   UNL     1       9.987  17.552  22.218  0.00  0.00    +0.000 A 
ATOM     11  C   UNL     1      11.062  16.688  22.053  0.00  0.00    +0.000 A 
ATOM     12  C   UNL     1      10.907  15.512  21.326  0.00  0.00    +0.000 A 
ATOM     13  C   UNL     1       9.668  15.169  20.737  0.00  0.00    +0.000 A 
BRANCH   8  15
ATOM     14  C   UNL     1       6.220  15.398  21.068  0.00  0.00    +0.000 C 
ATOM     15  O   UNL     1       7.356  15.755  20.375  0.00  0.00    +0.000 OA
ENDBRANCH   8  15
ENDBRANCH   2  13
ENDBRANCH   1   5
BRANCH   1  16
ATOM     16  C   UNL     1       8.852   9.560  18.823  0.00  0.00    +0.000 C 
BRANCH  16  17
ATOM     17  C   UNL     1       7.873   8.913  17.838  0.00  0.00    +0.000 C 
BRANCH  17  18
ATOM     18  C   UNL     1       7.954   7.383  17.850  0.00  0.00    +0.000 C 
BRANCH  18  19
ATOM     19  C   UNL     1       6.651   6.810  17.433  0.00  0.00    +0.000 A 
ATOM     20  C   UNL     1       5.891   5.950  18.178  0.00  0.00    +0.000 A 
ATOM     21  C   UNL     1       4.806   5.685  17.378  0.00  0.00    +0.000 A 
ATOM     22  N   UNL     1       4.937   6.367  16.219  0.00  0.00    +0.000 NA
ATOM     23  O   UNL     1       6.051   7.033  16.288  0.00  0.00    +0.000 OA
BRANCH  21  24
ATOM     24  C   UNL     1       3.670   4.802  17.699  0.00  0.00    +0.000 A 
ATOM     25  C   UNL     1       3.605   3.490  17.191  0.00  0.00    +0.000 A 
ATOM     26  C   UNL     1       2.526   2.665  17.510  0.00  0.00    +0.000 A 
ATOM     27  C   UNL     1       1.501   3.139  18.333  0.00  0.00    +0.000 A 
ATOM     28  F   UNL     1       0.456   2.336  18.643  0.00  0.00    +0.000 F 
ATOM     29  C   UNL     1       1.557   4.441  18.838  0.00  0.00    +0.000 A 
ATOM     30  C   UNL     1       2.635   5.270  18.524  0.00  0.00    +0.000 A 
ENDBRANCH  21  24
ENDBRANCH  18  19
ENDBRANCH  17  18
ENDBRANCH  16  17
ENDBRANCH   1  16
TORSDOF 8
ENDMDL
MODEL 5
REMARK VINA RESULT:      -7.6      4.127     12.136
REMARK  Name = 
REMARK  9 active torsions:
REMARK  status: ('A' for Active; 'I' for Inactive)
REMARK    1  A    between atoms: C_1  and  O_2
REMARK    2  A    between atoms: O_2  and  C_3
REMARK    3  A    between atoms: C_8  and  N_9
REMARK    4  A    between atoms: N_12  and  C_13
REMARK    5  A    between atoms: C_13  and  C_14
REMARK    6  A    between atoms: C_14  and  C_15
REMARK    7  A    between atoms: C_15  and  C_16
REMARK    8  A    between atoms: C_16  and  C_17
REMARK    9  A    between atoms: C_19  and  C_20
REMARK                            x       y       z     vdW  Elec       q    Type
REMARK                         _______ _______ _______ _____ _____    ______ ____
ROOT
ATOM      1  C   UNL     1       9.581  10.414  18.741  0.00  0.00    +0.000 C 
ENDROOT
BRANCH   1   5
ATOM      2  N   UNL     1      10.711  13.743  19.539  0.00  0.00    +0.000 N 
ATOM      3  C   UNL     1       9.330  13.447  19.174  0.00  0.00    +0.000 C 
ATOM      4  C   UNL     1       9.317  12.656  17.848  0.00  0.00    +0.000 C 
ATOM      5  N   UNL     1      10.193  11.463  17.900  0.00  0.00    +0.000 NA
ATOM      6  C   UNL     1      11.573  11.855  18.272  0.00  0.00    +0.000 C 
ATOM      7  C   UNL     1      11.598  12.586  19.617  0.00  0.00    +0.000 C 
BRANCH   2  13
ATOM      8  C   UNL     1      11.047  15.768  20.989  0.00  0.00    +0.000 A 
ATOM      9  C   UNL     1      11.543  17.082  21.126  0.00  0.00    +0.000 A 
ATOM     10  C   UNL     1      12.181  17.716  20.061  0.00  0.00    +0.000 A 
ATOM     11  C   UNL     1      12.333  17.060  18.846  0.00  0.00    +0.000 A 
ATOM     12  C   UNL     1      11.854  15.762  18.689  0.00  0.00    +0.000 A 
ATOM     13  C   UNL     1      11.202  15.086  19.746  0.00  0.00    +0.000 A 
BRANCH   8  15
ATOM     14  C   UNL     1       9.163  15.353  22.495  0.00  0.00    +0.000 C 
ATOM     15  O   UNL     1      10.445  15.142  22.036  0.00  0.00    +0.000 OA
ENDBRANCH   8  15
ENDBRANCH   2  13
ENDBRANCH   1   5
BRANCH   1  16
ATOM     16  C   UNL     1       8.315   9.793  18.129  0.00  0.00    +0.000 C 
BRANCH  16  17
ATOM     17  C   UNL     1       8.269   8.279  18.355  0.00  0.00    +0.000 C 
BRANCH  17  18
ATOM     18  C   UNL     1       7.622   7.531  17.185  0.00  0.00    +0.000 C 
BRANCH  18  19
ATOM     19  C   UNL     1       6.882   6.351  17.694  0.00  0.00    +0.000 A 
ATOM     20  C   UNL     1       5.521   6.204  17.677  0.00  0.00    +0.000 A 
ATOM     21  C   UNL     1       5.311   4.980  18.266  0.00  0.00    +0.000 A 
ATOM     22  N   UNL     1       6.504   4.445  18.607  0.00  0.00    +0.000 NA
ATOM     23  O   UNL     1       7.423   5.291  18.247  0.00  0.00    +0.000 OA
BRANCH  21  24
ATOM     24  C   UNL     1       4.010   4.331  18.506  0.00  0.00    +0.000 A 
ATOM     25  C   UNL     1       3.579   4.030  19.812  0.00  0.00    +0.000 A 
ATOM     26  C   UNL     1       2.341   3.421  20.023  0.00  0.00    +0.000 A 
ATOM     27  C   UNL     1       1.524   3.103  18.936  0.00  0.00    +0.000 A 
ATOM     28  F   UNL     1       0.322   2.514  19.142  0.00  0.00    +0.000 F 
ATOM     29  C   UNL     1       1.946   3.395  17.635  0.00  0.00    +0.000 A 
ATOM     30  C   UNL     1       3.182   4.006  17.420  0.00  0.00    +0.000 A 
ENDBRANCH  21  24
ENDBRANCH  18  19
ENDBRANCH  17  18
ENDBRANCH  16  17
ENDBRANCH   1  16
TORSDOF 8
ENDMDL
MODEL 6
REMARK VINA RESULT:      -7.6      4.457     11.588
REMARK  Name = 
REMARK  9 active torsions:
REMARK  status: ('A' for Active; 'I' for Inactive)
REMARK    1  A    between atoms: C_1  and  O_2
REMARK    2  A    between atoms: O_2  and  C_3
REMARK    3  A    between atoms: C_8  and  N_9
REMARK    4  A    between atoms: N_12  and  C_13
REMARK    5  A    between atoms: C_13  and  C_14
REMARK    6  A    between atoms: C_14  and  C_15
REMARK    7  A    between atoms: C_15  and  C_16
REMARK    8  A    between atoms: C_16  and  C_17
REMARK    9  A    between atoms: C_19  and  C_20
REMARK                            x       y       z     vdW  Elec       q    Type
REMARK                         _______ _______ _______ _____ _____    ______ ____
ROOT
ATOM      1  C   UNL     1       8.612  10.576  17.837  0.00  0.00    +0.000 C 
ENDROOT
BRANCH   1   5
ATOM      2  N   UNL     1       9.053  13.276  20.185  0.00  0.00    +0.000 N 
ATOM      3  C   UNL     1       8.713  13.498  18.784  0.00  0.00    +0.000 C 
ATOM      4  C   UNL     1       9.718  12.736  17.892  0.00  0.00    +0.000 C 
ATOM      5  N   UNL     1       9.823  11.307  18.265  0.00  0.00    +0.000 NA
ATOM      6  C   UNL     1      10.175  11.174  19.698  0.00  0.00    +0.000 C 
ATOM      7  C   UNL     1       9.147  11.876  20.589  0.00  0.00    +0.000 C 
BRANCH   2  13
ATOM      8  C   UNL     1       8.384  14.836  22.038  0.00  0.00    +0.000 A 
ATOM      9  C   UNL     1       8.731  15.891  22.907  0.00  0.00    +0.000 A 
ATOM     10  C   UNL     1      10.003  16.461  22.863  0.00  0.00    +0.000 A 
ATOM     11  C   UNL     1      10.946  15.994  21.956  0.00  0.00    +0.000 A 
ATOM     12  C   UNL     1      10.627  14.951  21.091  0.00  0.00    +0.000 A 
ATOM     13  C   UNL     1       9.348  14.349  21.106  0.00  0.00    +0.000 A 
BRANCH   8  15
ATOM     14  C   UNL     1       5.991  14.752  21.531  0.00  0.00    +0.000 C 
ATOM     15  O   UNL     1       7.150  14.266  22.097  0.00  0.00    +0.000 OA
ENDBRANCH   8  15
ENDBRANCH   2  13
ENDBRANCH   1   5
BRANCH   1  16
ATOM     16  C   UNL     1       8.553   9.127  18.348  0.00  0.00    +0.000 C 
BRANCH  16  17
ATOM     17  C   UNL     1       7.412   8.347  17.686  0.00  0.00    +0.000 C 
BRANCH  17  18
ATOM     18  C   UNL     1       7.782   6.885  17.415  0.00  0.00    +0.000 C 
BRANCH  18  19
ATOM     19  C   UNL     1       6.838   5.990  18.127  0.00  0.00    +0.000 A 
ATOM     20  C   UNL     1       5.624   5.579  17.648  0.00  0.00    +0.000 A 
ATOM     21  C   UNL     1       5.116   4.795  18.656  0.00  0.00    +0.000 A 
ATOM     22  N   UNL     1       6.004   4.757  19.674  0.00  0.00    +0.000 NA
ATOM     23  O   UNL     1       7.025   5.480  19.322  0.00  0.00    +0.000 OA
BRANCH  21  24
ATOM     24  C   UNL     1       3.817   4.099  18.660  0.00  0.00    +0.000 A 
ATOM     25  C   UNL     1       2.760   4.541  19.478  0.00  0.00    +0.000 A 
ATOM     26  C   UNL     1       1.533   3.875  19.465  0.00  0.00    +0.000 A 
ATOM     27  C   UNL     1       1.350   2.762  18.641  0.00  0.00    +0.000 A 
ATOM     28  F   UNL     1       0.159   2.119  18.628  0.00  0.00    +0.000 F 
ATOM     29  C   UNL     1       2.396   2.315  17.828  0.00  0.00    +0.000 A 
ATOM     30  C   UNL     1       3.624   2.979  17.835  0.00  0.00    +0.000 A 
ENDBRANCH  21  24
ENDBRANCH  18  19
ENDBRANCH  17  18
ENDBRANCH  16  17
ENDBRANCH   1  16
TORSDOF 8
ENDMDL
MODEL 7
REMARK VINA RESULT:      -7.5      1.586      1.862
REMARK  Name = 
REMARK  9 active torsions:
REMARK  status: ('A' for Active; 'I' for Inactive)
REMARK    1  A    between atoms: C_1  and  O_2
REMARK    2  A    between atoms: O_2  and  C_3
REMARK    3  A    between atoms: C_8  and  N_9
REMARK    4  A    between atoms: N_12  and  C_13
REMARK    5  A    between atoms: C_13  and  C_14
REMARK    6  A    between atoms: C_14  and  C_15
REMARK    7  A    between atoms: C_15  and  C_16
REMARK    8  A    between atoms: C_16  and  C_17
REMARK    9  A    between atoms: C_19  and  C_20
REMARK                            x       y       z     vdW  Elec       q    Type
REMARK                         _______ _______ _______ _____ _____    ______ ____
ROOT
ATOM      1  C   UNL     1       7.143   7.390  17.255  0.00  0.00    +0.000 C 
ENDROOT
BRANCH   1   5
ATOM      2  N   UNL     1       4.556   5.029  18.108  0.00  0.00    +0.000 N 
ATOM      3  C   UNL     1       5.550   5.489  19.071  0.00  0.00    +0.000 C 
ATOM      4  C   UNL     1       6.961   5.297  18.471  0.00  0.00    +0.000 C 
ATOM      5  N   UNL     1       7.088   5.919  17.133  0.00  0.00    +0.000 NA
ATOM      6  C   UNL     1       6.046   5.392  16.221  0.00  0.00    +0.000 C 
ATOM      7  C   UNL     1       4.643   5.636  16.783  0.00  0.00    +0.000 C 
BRANCH   2  13
ATOM      8  C   UNL     1       2.333   4.285  19.014  0.00  0.00    +0.000 A 
ATOM      9  C   UNL     1       1.434   3.231  19.283  0.00  0.00    +0.000 A 
ATOM     10  C   UNL     1       1.763   1.916  18.959  0.00  0.00    +0.000 A 
ATOM     11  C   UNL     1       2.985   1.626  18.367  0.00  0.00    +0.000 A 
ATOM     12  C   UNL     1       3.887   2.650  18.090  0.00  0.00    +0.000 A 
ATOM     13  C   UNL     1       3.589   3.997  18.403  0.00  0.00    +0.000 A 
BRANCH   8  15
ATOM     14  C   UNL     1       1.849   6.113  20.567  0.00  0.00    +0.000 C 
ATOM     15  O   UNL     1       2.002   5.571  19.309  0.00  0.00    +0.000 OA
ENDBRANCH   8  15
ENDBRANCH   2  13
ENDBRANCH   1   5
BRANCH   1  16
ATOM     16  C   UNL     1       8.218   7.889  18.234  0.00  0.00    +0.000 C 
BRANCH  16  17
ATOM     17  C   UNL     1       8.384   9.410  18.155  0.00  0.00    +0.000 C 
BRANCH  17  18
ATOM     18  C   UNL     1       9.371   9.947  19.197  0.00  0.00    +0.000 C 
BRANCH  18  19
ATOM     19  C   UNL     1       9.592  11.396  18.975  0.00  0.00    +0.000 A 
ATOM     20  C   UNL     1       9.798  12.324  19.960  0.00  0.00    +0.000 A 
ATOM     21  C   UNL     1       9.928  13.510  19.279  0.00  0.00    +0.000 A 
ATOM     22  N   UNL     1       9.802  13.273  17.954  0.00  0.00    +0.000 NA
ATOM     23  O   UNL     1       9.606  11.996  17.809  0.00  0.00    +0.000 OA
BRANCH  21  24
ATOM     24  C   UNL     1      10.162  14.842  19.866  0.00  0.00    +0.000 A 
ATOM     25  C   UNL     1      10.523  14.985  21.219  0.00  0.00    +0.000 A 
ATOM     26  C   UNL     1      10.746  16.253  21.758  0.00  0.00    +0.000 A 
ATOM     27  C   UNL     1      10.609  17.388  20.956  0.00  0.00    +0.000 A 
ATOM     28  F   UNL     1      10.829  18.617  21.480  0.00  0.00    +0.000 F 
ATOM     29  C   UNL     1      10.248  17.255  19.612  0.00  0.00    +0.000 A 
ATOM     30  C   UNL     1      10.025  15.989  19.068  0.00  0.00    +0.000 A 
ENDBRANCH  21  24
ENDBRANCH  18  19
ENDBRANCH  17  18
ENDBRANCH  16  17
ENDBRANCH   1  16
TORSDOF 8
ENDMDL
MODEL 8
REMARK VINA RESULT:      -7.5      4.107     12.023
REMARK  Name = 
REMARK  9 active torsions:
REMARK  status: ('A' for Active; 'I' for Inactive)
REMARK    1  A    between atoms: C_1  and  O_2
REMARK    2  A    between atoms: O_2  and  C_3
REMARK    3  A    between atoms: C_8  and  N_9
REMARK    4  A    between atoms: N_12  and  C_13
REMARK    5  A    between atoms: C_13  and  C_14
REMARK    6  A    between atoms: C_14  and  C_15
REMARK    7  A    between atoms: C_15  and  C_16
REMARK    8  A    between atoms: C_16  and  C_17
REMARK    9  A    between atoms: C_19  and  C_20
REMARK                            x       y       z     vdW  Elec       q    Type
REMARK                         _______ _______ _______ _____ _____    ______ ____
ROOT
ATOM      1  C   UNL     1       9.195  10.602  19.303  0.00  0.00    +0.000 C 
ENDROOT
BRANCH   1   5
ATOM      2  N   UNL     1      10.038  13.989  18.402  0.00  0.00    +0.000 N 
ATOM      3  C   UNL     1      10.142  12.876  17.465  0.00  0.00    +0.000 C 
ATOM      4  C   UNL     1      10.973  11.747  18.112  0.00  0.00    +0.000 C 
ATOM      5  N   UNL     1      10.453  11.363  19.445  0.00  0.00    +0.000 NA
ATOM      6  C   UNL     1      10.386  12.549  20.330  0.00  0.00    +0.000 C 
ATOM      7  C   UNL     1       9.511  13.648  19.721  0.00  0.00    +0.000 C 
BRANCH   2  13
ATOM      8  C   UNL     1       9.571  16.409  17.911  0.00  0.00    +0.000 A 
ATOM      9  C   UNL     1      10.068  17.692  17.601  0.00  0.00    +0.000 A 
ATOM     10  C   UNL     1      11.438  17.912  17.470  0.00  0.00    +0.000 A 
ATOM     11  C   UNL     1      12.333  16.863  17.641  0.00  0.00    +0.000 A 
ATOM     12  C   UNL     1      11.865  15.589  17.950  0.00  0.00    +0.000 A 
ATOM     13  C   UNL     1      10.483  15.328  18.091  0.00  0.00    +0.000 A 
BRANCH   8  15
ATOM     14  C   UNL     1       7.313  17.094  18.563  0.00  0.00    +0.000 C 
ATOM     15  O   UNL     1       8.234  16.200  18.060  0.00  0.00    +0.000 OA
ENDBRANCH   8  15
ENDBRANCH   2  13
ENDBRANCH   1   5
BRANCH   1  16
ATOM     16  C   UNL     1       9.311   9.384  18.372  0.00  0.00    +0.000 C 
BRANCH  16  17
ATOM     17  C   UNL     1       8.100   8.456  18.510  0.00  0.00    +0.000 C 
BRANCH  17  18
ATOM     18  C   UNL     1       7.572   7.975  17.155  0.00  0.00    +0.000 C 
BRANCH  18  19
ATOM     19  C   UNL     1       6.887   6.671  17.320  0.00  0.00    +0.000 A 
ATOM     20  C   UNL     1       5.537   6.500  17.469  0.00  0.00    +0.000 A 
ATOM     21  C   UNL     1       5.386   5.142  17.607  0.00  0.00    +0.000 A 
ATOM     22  N   UNL     1       6.601   4.554  17.539  0.00  0.00    +0.000 NA
ATOM     23  O   UNL     1       7.476   5.499  17.363  0.00  0.00    +0.000 OA
BRANCH  21  24
ATOM     24  C   UNL     1       4.120   4.412  17.804  0.00  0.00    +0.000 A 
ATOM     25  C   UNL     1       4.083   3.005  17.785  0.00  0.00    +0.000 A 
ATOM     26  C   UNL     1       2.877   2.329  17.979  0.00  0.00    +0.000 A 
ATOM     27  C   UNL     1       1.699   3.049  18.191  0.00  0.00    +0.000 A 
ATOM     28  F   UNL     1       0.530   2.392  18.382  0.00  0.00    +0.000 F 
ATOM     29  C   UNL     1       1.727   4.446  18.208  0.00  0.00    +0.000 A 
ATOM     30  C   UNL     1       2.930   5.126  18.016  0.00  0.00    +0.000 A 
ENDBRANCH  21  24
ENDBRANCH  18  19
ENDBRANCH  17  18
ENDBRANCH  16  17
ENDBRANCH   1  16
TORSDOF 8
ENDMDL
MODEL 9
REMARK VINA RESULT:      -7.4      1.272      1.459
REMARK  Name = 
REMARK  9 active torsions:
REMARK  status: ('A' for Active; 'I' for Inactive)
REMARK    1  A    between atoms: C_1  and  O_2
REMARK    2  A    between atoms: O_2  and  C_3
REMARK    3  A    between atoms: C_8  and  N_9
REMARK    4  A    between atoms: N_12  and  C_13
REMARK    5  A    between atoms: C_13  and  C_14
REMARK    6  A    between atoms: C_14  and  C_15
REMARK    7  A    between atoms: C_15  and  C_16
REMARK    8  A    between atoms: C_16  and  C_17
REMARK    9  A    between atoms: C_19  and  C_20
REMARK                            x       y       z     vdW  Elec       q    Type
REMARK                         _______ _______ _______ _____ _____    ______ ____
ROOT
ATOM      1  C   UNL     1       6.636   7.401  17.034  0.00  0.00    +0.000 C 
ENDROOT
BRANCH   1   5
ATOM      2  N   UNL     1       4.163   5.475  18.815  0.00  0.00    +0.000 N 
ATOM      3  C   UNL     1       5.514   5.685  19.324  0.00  0.00    +0.000 C 
ATOM      4  C   UNL     1       6.533   5.292  18.232  0.00  0.00    +0.000 C 
ATOM      5  N   UNL     1       6.263   5.974  16.945  0.00  0.00    +0.000 NA
ATOM      6  C   UNL     1       4.875   5.704  16.501  0.00  0.00    +0.000 C 
ATOM      7  C   UNL     1       3.859   6.149  17.556  0.00  0.00    +0.000 C 
BRANCH   2  13
ATOM      8  C   UNL     1       1.976   5.104  19.997  0.00  0.00    +0.000 A 
ATOM      9  C   UNL     1       1.082   4.209  20.621  0.00  0.00    +0.000 A 
ATOM     10  C   UNL     1       1.385   2.852  20.717  0.00  0.00    +0.000 A 
ATOM     11  C   UNL     1       2.578   2.364  20.199  0.00  0.00    +0.000 A 
ATOM     12  C   UNL     1       3.474   3.228  19.577  0.00  0.00    +0.000 A 
ATOM     13  C   UNL     1       3.202   4.611  19.460  0.00  0.00    +0.000 A 
BRANCH   8  15
ATOM     14  C   UNL     1       1.731   7.373  20.882  0.00  0.00    +0.000 C 
ATOM     15  O   UNL     1       1.670   6.425  19.883  0.00  0.00    +0.000 OA
ENDBRANCH   8  15
ENDBRANCH   2  13
ENDBRANCH   1   5
BRANCH   1  16
ATOM     16  C   UNL     1       8.031   7.638  17.634  0.00  0.00    +0.000 C 
BRANCH  16  17
ATOM     17  C   UNL     1       8.246   9.113  17.986  0.00  0.00    +0.000 C 
BRANCH  17  18
ATOM     18  C   UNL     1       8.986   9.298  19.315  0.00  0.00    +0.000 C 
BRANCH  18  19
ATOM     19  C   UNL     1       9.362  10.722  19.484  0.00  0.00    +0.000 A 
ATOM     20  C   UNL     1       9.325  11.672  18.499  0.00  0.00    +0.000 A 
ATOM     21  C   UNL     1       9.776  12.812  19.119  0.00  0.00    +0.000 A 
ATOM     22  N   UNL     1      10.061  12.529  20.409  0.00  0.00    +0.000 NA
ATOM     23  O   UNL     1       9.797  11.270  20.594  0.00  0.00    +0.000 OA
BRANCH  21  24
ATOM     24  C   UNL     1       9.941  14.141  18.504  0.00  0.00    +0.000 A 
ATOM     25  C   UNL     1      10.878  14.354  17.475  0.00  0.00    +0.000 A 
ATOM     26  C   UNL     1      11.017  15.618  16.899  0.00  0.00    +0.000 A 
ATOM     27  C   UNL     1      10.227  16.680  17.344  0.00  0.00    +0.000 A 
ATOM     28  F   UNL     1      10.361  17.905  16.782  0.00  0.00    +0.000 F 
ATOM     29  C   UNL     1       9.296  16.478  18.367  0.00  0.00    +0.000 A 
ATOM     30  C   UNL     1       9.152  15.216  18.945  0.00  0.00    +0.000 A 
ENDBRANCH  21  24
ENDBRANCH  18  19
ENDBRANCH  17  18
ENDBRANCH  16  17
ENDBRANCH   1  16
TORSDOF 8
ENDMDL
