MODEL 1
REMARK VINA RESULT:      -6.8      0.000      0.000
REMARK  Name = 
REMARK  2 active torsions:
REMARK  status: ('A' for Active; 'I' for Inactive)
REMARK    1  A    between atoms: C_2  and  C_9
REMARK    2  A    between atoms: C_10  and  O_11
REMARK                            x       y       z     vdW  Elec       q    Type
REMARK                         _______ _______ _______ _____ _____    ______ ____
ROOT
ATOM      1  C   UNL     1       4.880   5.548  17.784  0.00  0.00    +0.000 A 
ATOM      2  C   UNL     1       3.887   6.443  17.963  0.00  0.00    +0.000 A 
ATOM      3  N   UNL     1       2.879   6.359  18.884  0.00  0.00    +0.000 NA
ATOM      4  C   UNL     1       2.837   5.278  19.574  0.00  0.00    +0.000 A 
ATOM      5  S   UNL     1       1.561   4.887  20.710  0.00  0.00    +0.000 S 
ATOM      6  C   UNL     1       2.227   3.296  20.936  0.00  0.00    +0.000 A 
ATOM      7  C   UNL     1       3.373   3.141  20.259  0.00  0.00    +0.000 A 
ATOM      8  N   UNL     1       3.730   4.240  19.497  0.00  0.00    +0.000 N 
ATOM      9  C   UNL     1       4.843   4.344  18.678  0.00  0.00    +0.000 A 
ATOM     10  O   UNL     1       5.743   3.507  18.631  0.00  0.00    +0.000 OA
ENDROOT
BRANCH   1  12
ATOM     11  O   UNL     1       6.657   6.647  16.606  0.00  0.00    +0.000 OA
ATOM     12  C   UNL     1       5.858   5.714  16.635  0.00  0.00    +0.000 C 
ATOM     13  N   UNL     1       5.721   4.799  15.621  0.00  0.00    +0.000 N 
ATOM     14  C   UNL     1       6.495   4.803  14.487  0.00  0.00    +0.000 A 
ATOM     15  N   UNL     1       7.561   5.489  14.178  0.00  0.00    +0.000 NA
ATOM     16  C   UNL     1       7.979   5.150  12.901  0.00  0.00    +0.000 A 
ATOM     17  C   UNL     1       7.193   4.222  12.252  0.00  0.00    +0.000 A 
ATOM     18  S   UNL     1       5.930   3.711  13.293  0.00  0.00    +0.000 S 
ATOM     19  H   UNL     1       4.962   4.129  15.642  0.00  0.00    +0.000 HD
ENDBRANCH   1  12
BRANCH   2  20
ATOM     20  O   UNL     1       3.730   7.507  17.118  0.00  0.00    +0.000 OA
ATOM     21  H   UNL     1       4.532   8.039  17.262  0.00  0.00    +0.000 HD
ENDBRANCH   2  20
TORSDOF 2
ENDMDL
MODEL 2
REMARK VINA RESULT:      -6.8      1.513      2.029
REMARK  Name = 
REMARK  2 active torsions:
REMARK  status: ('A' for Active; 'I' for Inactive)
REMARK    1  A    between atoms: C_2  and  C_9
REMARK    2  A    between atoms: C_10  and  O_11
REMARK                            x       y       z     vdW  Elec       q    Type
REMARK                         _______ _______ _______ _____ _____    ______ ____
ROOT
ATOM      1  C   UNL     1       4.915   4.189  17.727  0.00  0.00    +0.000 A 
ATOM      2  C   UNL     1       5.297   4.224  19.020  0.00  0.00    +0.000 A 
ATOM      3  N   UNL     1       4.537   3.859  20.097  0.00  0.00    +0.000 NA
ATOM      4  C   UNL     1       3.320   3.543  19.844  0.00  0.00    +0.000 A 
ATOM      5  S   UNL     1       2.125   3.178  21.073  0.00  0.00    +0.000 S 
ATOM      6  C   UNL     1       0.878   3.099  19.862  0.00  0.00    +0.000 A 
ATOM      7  C   UNL     1       1.380   3.252  18.629  0.00  0.00    +0.000 A 
ATOM      8  N   UNL     1       2.742   3.497  18.601  0.00  0.00    +0.000 N 
ATOM      9  C   UNL     1       3.512   3.723  17.472  0.00  0.00    +0.000 A 
ATOM     10  O   UNL     1       3.098   3.597  16.321  0.00  0.00    +0.000 OA
ENDROOT
BRANCH   1  12
ATOM     11  O   UNL     1       6.472   5.776  16.824  0.00  0.00    +0.000 OA
ATOM     12  C   UNL     1       5.827   4.745  16.647  0.00  0.00    +0.000 C 
ATOM     13  N   UNL     1       5.806   4.055  15.461  0.00  0.00    +0.000 N 
ATOM     14  C   UNL     1       6.541   4.420  14.360  0.00  0.00    +0.000 A 
ATOM     15  N   UNL     1       7.481   5.312  14.212  0.00  0.00    +0.000 NA
ATOM     16  C   UNL     1       7.913   5.320  12.896  0.00  0.00    +0.000 A 
ATOM     17  C   UNL     1       7.263   4.440  12.058  0.00  0.00    +0.000 A 
ATOM     18  S   UNL     1       6.121   3.530  12.956  0.00  0.00    +0.000 S 
ATOM     19  H   UNL     1       5.160   3.286  15.333  0.00  0.00    +0.000 HD
ENDBRANCH   1  12
BRANCH   2  20
ATOM     20  O   UNL     1       6.498   4.763  19.390  0.00  0.00    +0.000 OA
ATOM     21  H   UNL     1       6.733   4.274  20.198  0.00  0.00    +0.000 HD
ENDBRANCH   2  20
TORSDOF 2
ENDMDL
MODEL 3
REMARK VINA RESULT:      -6.5      0.934      2.223
REMARK  Name = 
REMARK  2 active torsions:
REMARK  status: ('A' for Active; 'I' for Inactive)
REMARK    1  A    between atoms: C_2  and  C_9
REMARK    2  A    between atoms: C_10  and  O_11
REMARK                            x       y       z     vdW  Elec       q    Type
REMARK                         _______ _______ _______ _____ _____    ______ ____
ROOT
ATOM      1  C   UNL     1       4.400   5.227  17.270  0.00  0.00    +0.000 A 
ATOM      2  C   UNL     1       4.171   3.985  17.743  0.00  0.00    +0.000 A 
ATOM      3  N   UNL     1       3.288   3.647  18.732  0.00  0.00    +0.000 NA
ATOM      4  C   UNL     1       2.696   4.624  19.314  0.00  0.00    +0.000 A 
ATOM      5  S   UNL     1       1.632   4.445  20.696  0.00  0.00    +0.000 S 
ATOM      6  C   UNL     1       1.527   6.174  20.861  0.00  0.00    +0.000 A 
ATOM      7  C   UNL     1       2.184   6.802  19.877  0.00  0.00    +0.000 A 
ATOM      8  N   UNL     1       2.838   5.952  19.003  0.00  0.00    +0.000 N 
ATOM      9  C   UNL     1       3.615   6.329  17.919  0.00  0.00    +0.000 A 
ATOM     10  O   UNL     1       3.709   7.484  17.508  0.00  0.00    +0.000 OA
ENDROOT
BRANCH   1  12
ATOM     11  O   UNL     1       6.291   6.400  16.375  0.00  0.00    +0.000 OA
ATOM     12  C   UNL     1       5.503   5.465  16.254  0.00  0.00    +0.000 C 
ATOM     13  N   UNL     1       5.493   4.613  15.178  0.00  0.00    +0.000 N 
ATOM     14  C   UNL     1       6.393   4.688  14.144  0.00  0.00    +0.000 A 
ATOM     15  N   UNL     1       7.481   5.393  14.003  0.00  0.00    +0.000 NA
ATOM     16  C   UNL     1       8.047   5.134  12.765  0.00  0.00    +0.000 A 
ATOM     17  C   UNL     1       7.350   4.246  11.974  0.00  0.00    +0.000 A 
ATOM     18  S   UNL     1       5.980   3.670  12.829  0.00  0.00    +0.000 S 
ATOM     19  H   UNL     1       4.742   3.941  15.070  0.00  0.00    +0.000 HD
ENDBRANCH   1  12
BRANCH   2  20
ATOM     20  O   UNL     1       4.924   2.920  17.333  0.00  0.00    +0.000 OA
ATOM     21  H   UNL     1       4.410   2.146  17.621  0.00  0.00    +0.000 HD
ENDBRANCH   2  20
TORSDOF 2
ENDMDL
MODEL 4
REMARK VINA RESULT:      -6.5      3.474      4.970
REMARK  Name = 
REMARK  2 active torsions:
REMARK  status: ('A' for Active; 'I' for Inactive)
REMARK    1  A    between atoms: C_2  and  C_9
REMARK    2  A    between atoms: C_10  and  O_11
REMARK                            x       y       z     vdW  Elec       q    Type
REMARK                         _______ _______ _______ _____ _____    ______ ____
ROOT
ATOM      1  C   UNL     1       2.164   7.291  18.933  0.00  0.00    +0.000 A 
ATOM      2  C   UNL     1       1.823   7.103  20.224  0.00  0.00    +0.000 A 
ATOM      3  N   UNL     1       1.231   8.022  21.046  0.00  0.00    +0.000 NA
ATOM      4  C   UNL     1       1.074   9.196  20.554  0.00  0.00    +0.000 A 
ATOM      5  S   UNL     1       0.468  10.568  21.462  0.00  0.00    +0.000 S 
ATOM      6  C   UNL     1       0.799  11.624  20.120  0.00  0.00    +0.000 A 
ATOM      7  C   UNL     1       1.246  10.942  19.056  0.00  0.00    +0.000 A 
ATOM      8  N   UNL     1       1.402   9.585  19.281  0.00  0.00    +0.000 N 
ATOM      9  C   UNL     1       1.874   8.652  18.372  0.00  0.00    +0.000 A 
ATOM     10  O   UNL     1       2.090   8.895  17.186  0.00  0.00    +0.000 OA
ENDROOT
BRANCH   1  12
ATOM     11  O   UNL     1       2.448   5.103  17.992  0.00  0.00    +0.000 OA
ATOM     12  C   UNL     1       2.930   6.217  18.182  0.00  0.00    +0.000 C 
ATOM     13  N   UNL     1       4.205   6.567  17.812  0.00  0.00    +0.000 N 
ATOM     14  C   UNL     1       5.061   5.721  17.150  0.00  0.00    +0.000 A 
ATOM     15  N   UNL     1       4.861   4.555  16.602  0.00  0.00    +0.000 NA
ATOM     16  C   UNL     1       6.047   4.085  16.061  0.00  0.00    +0.000 A 
ATOM     17  C   UNL     1       7.140   4.906  16.238  0.00  0.00    +0.000 A 
ATOM     18  S   UNL     1       6.657   6.337  17.050  0.00  0.00    +0.000 S 
ATOM     19  H   UNL     1       4.592   7.456  18.105  0.00  0.00    +0.000 HD
ENDBRANCH   1  12
BRANCH   2  20
ATOM     20  O   UNL     1       2.164   5.957  20.887  0.00  0.00    +0.000 OA
ATOM     21  H   UNL     1       2.802   5.525  20.294  0.00  0.00    +0.000 HD
ENDBRANCH   2  20
TORSDOF 2
ENDMDL
MODEL 5
REMARK VINA RESULT:      -6.2      1.776      6.526
REMARK  Name = 
REMARK  2 active torsions:
REMARK  status: ('A' for Active; 'I' for Inactive)
REMARK    1  A    between atoms: C_2  and  C_9
REMARK    2  A    between atoms: C_10  and  O_11
REMARK                            x       y       z     vdW  Elec       q    Type
REMARK                         _______ _______ _______ _____ _____    ______ ____
ROOT
ATOM      1  C   UNL     1       5.695   4.649  16.988  0.00  0.00    +0.000 A 
ATOM      2  C   UNL     1       6.839   5.357  16.904  0.00  0.00    +0.000 A 
ATOM      3  N   UNL     1       7.543   5.623  15.761  0.00  0.00    +0.000 NA
ATOM      4  C   UNL     1       7.109   5.065  14.691  0.00  0.00    +0.000 A 
ATOM      5  S   UNL     1       7.923   5.147  13.141  0.00  0.00    +0.000 S 
ATOM      6  C   UNL     1       6.787   4.016  12.465  0.00  0.00    +0.000 A 
ATOM      7  C   UNL     1       5.830   3.695  13.346  0.00  0.00    +0.000 A 
ATOM      8  N   UNL     1       5.992   4.275  14.592  0.00  0.00    +0.000 N 
ATOM      9  C   UNL     1       5.174   4.093  15.695  0.00  0.00    +0.000 A 
ATOM     10  O   UNL     1       4.102   3.490  15.665  0.00  0.00    +0.000 OA
ENDROOT
BRANCH   1  12
ATOM     11  O   UNL     1       5.804   4.135  19.328  0.00  0.00    +0.000 OA
ATOM     12  C   UNL     1       5.093   4.329  18.345  0.00  0.00    +0.000 C 
ATOM     13  N   UNL     1       3.727   4.202  18.357  0.00  0.00    +0.000 N 
ATOM     14  C   UNL     1       3.005   3.889  19.483  0.00  0.00    +0.000 A 
ATOM     15  N   UNL     1       3.361   3.808  20.735  0.00  0.00    +0.000 NA
ATOM     16  C   UNL     1       2.269   3.442  21.506  0.00  0.00    +0.000 A 
ATOM     17  C   UNL     1       1.102   3.223  20.807  0.00  0.00    +0.000 A 
ATOM     18  S   UNL     1       1.360   3.547  19.143  0.00  0.00    +0.000 S 
ATOM     19  H   UNL     1       3.205   4.249  17.490  0.00  0.00    +0.000 HD
ENDBRANCH   1  12
BRANCH   2  20
ATOM     20  O   UNL     1       7.488   5.793  18.026  0.00  0.00    +0.000 OA
ATOM     21  H   UNL     1       8.277   5.226  18.074  0.00  0.00    +0.000 HD
ENDBRANCH   2  20
TORSDOF 2
ENDMDL
MODEL 6
REMARK VINA RESULT:      -6.2      4.912      7.106
REMARK  Name = 
REMARK  2 active torsions:
REMARK  status: ('A' for Active; 'I' for Inactive)
REMARK    1  A    between atoms: C_2  and  C_9
REMARK    2  A    between atoms: C_10  and  O_11
REMARK                            x       y       z     vdW  Elec       q    Type
REMARK                         _______ _______ _______ _____ _____    ______ ____
ROOT
ATOM      1  C   UNL     1       1.047   9.318  20.014  0.00  0.00    +0.000 A 
ATOM      2  C   UNL     1       0.380  10.122  19.161  0.00  0.00    +0.000 A 
ATOM      3  N   UNL     1      -0.499  11.113  19.505  0.00  0.00    +0.000 NA
ATOM      4  C   UNL     1      -0.770  11.214  20.755  0.00  0.00    +0.000 A 
ATOM      5  S   UNL     1      -1.967  12.313  21.414  0.00  0.00    +0.000 S 
ATOM      6  C   UNL     1      -1.765  11.613  22.994  0.00  0.00    +0.000 A 
ATOM      7  C   UNL     1      -0.796  10.687  23.001  0.00  0.00    +0.000 A 
ATOM      8  N   UNL     1      -0.228  10.455  21.760  0.00  0.00    +0.000 N 
ATOM      9  C   UNL     1       0.768   9.536  21.472  0.00  0.00    +0.000 A 
ATOM     10  O   UNL     1       1.379   8.894  22.325  0.00  0.00    +0.000 OA
ENDROOT
BRANCH   1  12
ATOM     11  O   UNL     1       2.483   8.267  18.406  0.00  0.00    +0.000 OA
ATOM     12  C   UNL     1       1.895   8.177  19.480  0.00  0.00    +0.000 C 
ATOM     13  N   UNL     1       1.883   7.039  20.247  0.00  0.00    +0.000 N 
ATOM     14  C   UNL     1       2.565   5.894  19.915  0.00  0.00    +0.000 A 
ATOM     15  N   UNL     1       3.446   5.661  18.983  0.00  0.00    +0.000 NA
ATOM     16  C   UNL     1       3.841   4.333  19.038  0.00  0.00    +0.000 A 
ATOM     17  C   UNL     1       3.222   3.575  20.007  0.00  0.00    +0.000 A 
ATOM     18  S   UNL     1       2.159   4.565  20.918  0.00  0.00    +0.000 S 
ATOM     19  H   UNL     1       1.279   6.981  21.059  0.00  0.00    +0.000 HD
ENDBRANCH   1  12
BRANCH   2  20
ATOM     20  O   UNL     1       0.440   9.928  17.809  0.00  0.00    +0.000 OA
ATOM     21  H   UNL     1       1.164  10.511  17.522  0.00  0.00    +0.000 HD
ENDBRANCH   2  20
TORSDOF 2
ENDMDL
MODEL 7
REMARK VINA RESULT:      -6.1      4.127      5.871
REMARK  Name = 
REMARK  2 active torsions:
REMARK  status: ('A' for Active; 'I' for Inactive)
REMARK    1  A    between atoms: C_2  and  C_9
REMARK    2  A    between atoms: C_10  and  O_11
REMARK                            x       y       z     vdW  Elec       q    Type
REMARK                         _______ _______ _______ _____ _____    ______ ____
ROOT
ATOM      1  C   UNL     1       1.838   8.631  19.280  0.00  0.00    +0.000 A 
ATOM      2  C   UNL     1       1.548   9.792  18.659  0.00  0.00    +0.000 A 
ATOM      3  N   UNL     1       0.863  10.848  19.197  0.00  0.00    +0.000 NA
ATOM      4  C   UNL     1       0.383  10.665  20.372  0.00  0.00    +0.000 A 
ATOM      5  S   UNL     1      -0.643  11.818  21.204  0.00  0.00    +0.000 S 
ATOM      6  C   UNL     1      -0.916  10.675  22.487  0.00  0.00    +0.000 A 
ATOM      7  C   UNL     1      -0.199   9.557  22.310  0.00  0.00    +0.000 A 
ATOM      8  N   UNL     1       0.534   9.536  21.136  0.00  0.00    +0.000 N 
ATOM      9  C   UNL     1       1.335   8.499  20.687  0.00  0.00    +0.000 A 
ATOM     10  O   UNL     1       1.608   7.502  21.354  0.00  0.00    +0.000 OA
ENDROOT
BRANCH   1  12
ATOM     11  O   UNL     1       3.307   7.722  17.615  0.00  0.00    +0.000 OA
ATOM     12  C   UNL     1       2.496   7.499  18.511  0.00  0.00    +0.000 C 
ATOM     13  N   UNL     1       2.059   6.241  18.845  0.00  0.00    +0.000 N 
ATOM     14  C   UNL     1       2.516   5.096  18.241  0.00  0.00    +0.000 A 
ATOM     15  N   UNL     1       3.499   4.898  17.408  0.00  0.00    +0.000 NA
ATOM     16  C   UNL     1       3.559   3.557  17.067  0.00  0.00    +0.000 A 
ATOM     17  C   UNL     1       2.588   2.761  17.637  0.00  0.00    +0.000 A 
ATOM     18  S   UNL     1       1.610   3.708  18.679  0.00  0.00    +0.000 S 
ATOM     19  H   UNL     1       1.298   6.127  19.504  0.00  0.00    +0.000 HD
ENDBRANCH   1  12
BRANCH   2  20
ATOM     20  O   UNL     1       1.826   9.976  17.332  0.00  0.00    +0.000 OA
ATOM     21  H   UNL     1       0.950   9.990  16.910  0.00  0.00    +0.000 HD
ENDBRANCH   2  20
TORSDOF 2
ENDMDL
MODEL 8
REMARK VINA RESULT:      -6.0      3.017      6.701
REMARK  Name = 
REMARK  2 active torsions:
REMARK  status: ('A' for Active; 'I' for Inactive)
REMARK    1  A    between atoms: C_2  and  C_9
REMARK    2  A    between atoms: C_10  and  O_11
REMARK                            x       y       z     vdW  Elec       q    Type
REMARK                         _______ _______ _______ _____ _____    ______ ____
ROOT
ATOM      1  C   UNL     1       3.467   5.217  18.786  0.00  0.00    +0.000 A 
ATOM      2  C   UNL     1       2.894   4.602  17.731  0.00  0.00    +0.000 A 
ATOM      3  N   UNL     1       3.549   4.017  16.683  0.00  0.00    +0.000 NA
ATOM      4  C   UNL     1       4.824   4.153  16.671  0.00  0.00    +0.000 A 
ATOM      5  S   UNL     1       5.858   3.612  15.362  0.00  0.00    +0.000 S 
ATOM      6  C   UNL     1       7.233   4.370  16.112  0.00  0.00    +0.000 A 
ATOM      7  C   UNL     1       6.914   4.902  17.300  0.00  0.00    +0.000 A 
ATOM      8  N   UNL     1       5.574   4.786  17.629  0.00  0.00    +0.000 N 
ATOM      9  C   UNL     1       4.966   5.270  18.775  0.00  0.00    +0.000 A 
ATOM     10  O   UNL     1       5.578   5.753  19.727  0.00  0.00    +0.000 OA
ENDROOT
BRANCH   1  12
ATOM     11  O   UNL     1       2.167   5.343  20.797  0.00  0.00    +0.000 OA
ATOM     12  C   UNL     1       2.606   5.931  19.812  0.00  0.00    +0.000 C 
ATOM     13  N   UNL     1       2.307   7.236  19.509  0.00  0.00    +0.000 N 
ATOM     14  C   UNL     1       1.519   8.036  20.301  0.00  0.00    +0.000 A 
ATOM     15  N   UNL     1       1.041   7.852  21.500  0.00  0.00    +0.000 NA
ATOM     16  C   UNL     1       0.284   8.951  21.873  0.00  0.00    +0.000 A 
ATOM     17  C   UNL     1       0.182   9.944  20.924  0.00  0.00    +0.000 A 
ATOM     18  S   UNL     1       1.112   9.520  19.547  0.00  0.00    +0.000 S 
ATOM     19  H   UNL     1       2.594   7.629  18.621  0.00  0.00    +0.000 HD
ENDBRANCH   1  12
BRANCH   2  20
ATOM     20  O   UNL     1       1.538   4.613  17.555  0.00  0.00    +0.000 OA
ATOM     21  H   UNL     1       1.185   4.513  18.456  0.00  0.00    +0.000 HD
ENDBRANCH   2  20
TORSDOF 2
ENDMDL
MODEL 9
REMARK VINA RESULT:      -6.0      3.888      6.061
REMARK  Name = 
REMARK  2 active torsions:
REMARK  status: ('A' for Active; 'I' for Inactive)
REMARK    1  A    between atoms: C_2  and  C_9
REMARK    2  A    between atoms: C_10  and  O_11
REMARK                            x       y       z     vdW  Elec       q    Type
REMARK                         _______ _______ _______ _____ _____    ______ ____
ROOT
ATOM      1  C   UNL     1       1.942   8.056  19.203  0.00  0.00    +0.000 A 
ATOM      2  C   UNL     1       1.545   8.046  20.492  0.00  0.00    +0.000 A 
ATOM      3  N   UNL     1       0.933   9.073  21.157  0.00  0.00    +0.000 NA
ATOM      4  C   UNL     1       0.812  10.171  20.506  0.00  0.00    +0.000 A 
ATOM      5  S   UNL     1       0.189  11.658  21.194  0.00  0.00    +0.000 S 
ATOM      6  C   UNL     1       0.591  12.521  19.738  0.00  0.00    +0.000 A 
ATOM      7  C   UNL     1       1.073  11.698  18.796  0.00  0.00    +0.000 A 
ATOM      8  N   UNL     1       1.199  10.383  19.207  0.00  0.00    +0.000 N 
ATOM      9  C   UNL     1       1.696   9.332  18.453  0.00  0.00    +0.000 A 
ATOM     10  O   UNL     1       1.965   9.411  17.256  0.00  0.00    +0.000 OA
ENDROOT
BRANCH   1  12
ATOM     11  O   UNL     1       3.753   7.057  17.988  0.00  0.00    +0.000 OA
ATOM     12  C   UNL     1       2.724   6.884  18.637  0.00  0.00    +0.000 C 
ATOM     13  N   UNL     1       2.153   5.653  18.844  0.00  0.00    +0.000 N 
ATOM     14  C   UNL     1       2.696   4.479  18.384  0.00  0.00    +0.000 A 
ATOM     15  N   UNL     1       3.854   4.224  17.841  0.00  0.00    +0.000 NA
ATOM     16  C   UNL     1       3.936   2.877  17.528  0.00  0.00    +0.000 A 
ATOM     17  C   UNL     1       2.811   2.136  17.821  0.00  0.00    +0.000 A 
ATOM     18  S   UNL     1       1.640   3.142  18.566  0.00  0.00    +0.000 S 
ATOM     19  H   UNL     1       1.240   5.584  19.277  0.00  0.00    +0.000 HD
ENDBRANCH   1  12
BRANCH   2  20
ATOM     20  O   UNL     1       1.842   6.997  21.318  0.00  0.00    +0.000 OA
ATOM     21  H   UNL     1       1.086   6.960  21.929  0.00  0.00    +0.000 HD
ENDBRANCH   2  20
TORSDOF 2
ENDMDL
