MODEL 1
REMARK VINA RESULT:      -8.0      0.000      0.000
REMARK  Name = 
REMARK  9 active torsions:
REMARK  status: ('A' for Active; 'I' for Inactive)
REMARK    1  A    between atoms: C_1  and  O_2
REMARK    2  A    between atoms: O_2  and  C_3
REMARK    3  A    between atoms: C_6  and  C_7
REMARK    4  A    between atoms: C_11  and  C_12
REMARK    5  A    between atoms: C_12  and  C_14
REMARK    6  A    between atoms: C_14  and  C_15
REMARK    7  A    between atoms: C_14  and  C_16
REMARK    8  A    between atoms: C_14  and  C_17
REMARK    9  A    between atoms: C_22  and  O_23
REMARK                            x       y       z     vdW  Elec       q    Type
REMARK                         _______ _______ _______ _____ _____    ______ ____
ROOT
ATOM      1  C   UNL     1       3.700   7.631  17.181  0.00  0.00    +0.000 C 
ATOM      2  C   UNL     1       4.461   6.543  17.409  0.00  0.00    +0.000 A 
ATOM      3  S   UNL     1       4.537   5.624  18.879  0.00  0.00    +0.000 S 
ATOM      4  C   UNL     1       4.579   4.172  17.940  0.00  0.00    +0.000 A 
ATOM      5  C   UNL     1       4.024   2.998  18.275  0.00  0.00    +0.000 C 
ATOM      6  N   UNL     1       5.165   4.431  16.725  0.00  0.00    +0.000 N 
ATOM      7  C   UNL     1       5.127   5.764  16.323  0.00  0.00    +0.000 A 
ATOM      8  O   UNL     1       5.454   6.181  15.223  0.00  0.00    +0.000 OA
ATOM      9  H   UNL     1       5.357   3.730  16.030  0.00  0.00    +0.000 HD
ENDROOT
BRANCH   1  13
ATOM     10  C   UNL     1       0.723   9.247  19.863  0.00  0.00    +0.000 A 
ATOM     11  C   UNL     1       1.432   8.081  20.196  0.00  0.00    +0.000 A 
ATOM     12  C   UNL     1       2.403   7.535  19.337  0.00  0.00    +0.000 A 
ATOM     13  C   UNL     1       2.698   8.166  18.131  0.00  0.00    +0.000 A 
ATOM     14  C   UNL     1       2.055   9.383  17.855  0.00  0.00    +0.000 A 
ATOM     15  C   UNL     1       1.036   9.885  18.666  0.00  0.00    +0.000 A 
BRANCH  10  17
ATOM     16  C   UNL     1      -0.182   8.949  22.053  0.00  0.00    +0.000 C 
ATOM     17  O   UNL     1      -0.212   9.611  20.794  0.00  0.00    +0.000 OA
ENDBRANCH  10  17
BRANCH  15  18
ATOM     18  O   UNL     1       0.373  10.994  18.216  0.00  0.00    +0.000 OA
ATOM     19  H   UNL     1      -0.536  10.728  17.972  0.00  0.00    +0.000 HD
ENDBRANCH  15  18
ENDBRANCH   1  13
BRANCH   5  20
ATOM     20  C   UNL     1       2.993   2.883  19.371  0.00  0.00    +0.000 C 
ATOM     21  O   UNL     1       3.349   2.558  20.508  0.00  0.00    +0.000 OA
BRANCH  20  22
ATOM     22  C   UNL     1       1.535   3.307  19.102  0.00  0.00    +0.000 C 
ATOM     23  C   UNL     1       0.628   2.081  18.957  0.00  0.00    +0.000 C 
ATOM     24  C   UNL     1       1.042   4.143  20.303  0.00  0.00    +0.000 C 
ATOM     25  C   UNL     1       1.453   4.186  17.847  0.00  0.00    +0.000 C 
ENDBRANCH  20  22
ENDBRANCH   5  20
TORSDOF 5
ENDMDL
MODEL 2
REMARK VINA RESULT:      -7.9      0.794      1.808
REMARK  Name = 
REMARK  9 active torsions:
REMARK  status: ('A' for Active; 'I' for Inactive)
REMARK    1  A    between atoms: C_1  and  O_2
REMARK    2  A    between atoms: O_2  and  C_3
REMARK    3  A    between atoms: C_6  and  C_7
REMARK    4  A    between atoms: C_11  and  C_12
REMARK    5  A    between atoms: C_12  and  C_14
REMARK    6  A    between atoms: C_14  and  C_15
REMARK    7  A    between atoms: C_14  and  C_16
REMARK    8  A    between atoms: C_14  and  C_17
REMARK    9  A    between atoms: C_22  and  O_23
REMARK                            x       y       z     vdW  Elec       q    Type
REMARK                         _______ _______ _______ _____ _____    ______ ____
ROOT
ATOM      1  C   UNL     1       3.846   7.479  17.084  0.00  0.00    +0.000 C 
ATOM      2  C   UNL     1       4.569   6.375  17.353  0.00  0.00    +0.000 A 
ATOM      3  S   UNL     1       4.604   5.502  18.853  0.00  0.00    +0.000 S 
ATOM      4  C   UNL     1       4.605   4.020  17.962  0.00  0.00    +0.000 A 
ATOM      5  C   UNL     1       4.009   2.876  18.331  0.00  0.00    +0.000 C 
ATOM      6  N   UNL     1       5.208   4.219  16.744  0.00  0.00    +0.000 N 
ATOM      7  C   UNL     1       5.217   5.539  16.299  0.00  0.00    +0.000 A 
ATOM      8  O   UNL     1       5.565   5.909  15.188  0.00  0.00    +0.000 OA
ATOM      9  H   UNL     1       5.381   3.491  16.073  0.00  0.00    +0.000 HD
ENDROOT
BRANCH   1  13
ATOM     10  C   UNL     1       1.009   9.170  19.868  0.00  0.00    +0.000 A 
ATOM     11  C   UNL     1       1.236   9.773  18.620  0.00  0.00    +0.000 A 
ATOM     12  C   UNL     1       2.158   9.243  17.700  0.00  0.00    +0.000 A 
ATOM     13  C   UNL     1       2.855   8.077  18.007  0.00  0.00    +0.000 A 
ATOM     14  C   UNL     1       2.546   7.429  19.214  0.00  0.00    +0.000 A 
ATOM     15  C   UNL     1       1.693   7.994  20.162  0.00  0.00    +0.000 A 
BRANCH  10  17
ATOM     16  C   UNL     1      -0.849  10.665  20.002  0.00  0.00    +0.000 C 
ATOM     17  O   UNL     1       0.112   9.844  20.654  0.00  0.00    +0.000 OA
ENDBRANCH  10  17
BRANCH  15  18
ATOM     18  O   UNL     1       1.590   7.352  21.367  0.00  0.00    +0.000 OA
ATOM     19  H   UNL     1       0.871   6.692  21.301  0.00  0.00    +0.000 HD
ENDBRANCH  15  18
ENDBRANCH   1  13
BRANCH   5  20
ATOM     20  C   UNL     1       2.967   2.831  19.420  0.00  0.00    +0.000 C 
ATOM     21  O   UNL     1       3.304   2.531  20.570  0.00  0.00    +0.000 OA
BRANCH  20  22
ATOM     22  C   UNL     1       1.526   3.294  19.126  0.00  0.00    +0.000 C 
ATOM     23  C   UNL     1       1.474   4.143  17.852  0.00  0.00    +0.000 C 
ATOM     24  C   UNL     1       0.646   2.041  18.916  0.00  0.00    +0.000 C 
ATOM     25  C   UNL     1       0.958   4.077  20.317  0.00  0.00    +0.000 C 
ENDBRANCH  20  22
ENDBRANCH   5  20
TORSDOF 5
ENDMDL
MODEL 3
REMARK VINA RESULT:      -7.4      4.080      6.594
REMARK  Name = 
REMARK  9 active torsions:
REMARK  status: ('A' for Active; 'I' for Inactive)
REMARK    1  A    between atoms: C_1  and  O_2
REMARK    2  A    between atoms: O_2  and  C_3
REMARK    3  A    between atoms: C_6  and  C_7
REMARK    4  A    between atoms: C_11  and  C_12
REMARK    5  A    between atoms: C_12  and  C_14
REMARK    6  A    between atoms: C_14  and  C_15
REMARK    7  A    between atoms: C_14  and  C_16
REMARK    8  A    between atoms: C_14  and  C_17
REMARK    9  A    between atoms: C_22  and  O_23
REMARK                            x       y       z     vdW  Elec       q    Type
REMARK                         _______ _______ _______ _____ _____    ______ ____
ROOT
ATOM      1  C   UNL     1       7.349   5.175  16.374  0.00  0.00    +0.000 C 
ATOM      2  C   UNL     1       6.600   5.508  17.443  0.00  0.00    +0.000 A 
ATOM      3  S   UNL     1       4.867   5.477  17.540  0.00  0.00    +0.000 S 
ATOM      4  C   UNL     1       4.993   4.829  19.139  0.00  0.00    +0.000 A 
ATOM      5  C   UNL     1       4.158   3.943  19.701  0.00  0.00    +0.000 C 
ATOM      6  N   UNL     1       6.161   5.265  19.717  0.00  0.00    +0.000 N 
ATOM      7  C   UNL     1       7.153   5.656  18.821  0.00  0.00    +0.000 A 
ATOM      8  O   UNL     1       8.306   5.931  19.117  0.00  0.00    +0.000 OA
ATOM      9  H   UNL     1       6.428   5.070  20.667  0.00  0.00    +0.000 HD
ENDROOT
BRANCH   1  13
ATOM     10  C   UNL     1       5.881   3.538  12.656  0.00  0.00    +0.000 A 
ATOM     11  C   UNL     1       5.277   3.197  13.877  0.00  0.00    +0.000 A 
ATOM     12  C   UNL     1       5.741   3.715  15.100  0.00  0.00    +0.000 A 
ATOM     13  C   UNL     1       6.810   4.607  15.117  0.00  0.00    +0.000 A 
ATOM     14  C   UNL     1       7.340   5.016  13.883  0.00  0.00    +0.000 A 
ATOM     15  C   UNL     1       6.936   4.445  12.676  0.00  0.00    +0.000 A 
BRANCH  10  17
ATOM     16  C   UNL     1       3.998   3.260  11.212  0.00  0.00    +0.000 C 
ATOM     17  O   UNL     1       5.329   2.909  11.572  0.00  0.00    +0.000 OA
ENDBRANCH  10  17
BRANCH  15  18
ATOM     18  O   UNL     1       7.632   4.806  11.554  0.00  0.00    +0.000 OA
ATOM     19  H   UNL     1       7.120   5.495  11.085  0.00  0.00    +0.000 HD
ENDBRANCH  15  18
ENDBRANCH   1  13
BRANCH   5  20
ATOM     20  C   UNL     1       3.182   3.133  18.884  0.00  0.00    +0.000 C 
ATOM     21  O   UNL     1       3.562   2.092  18.340  0.00  0.00    +0.000 OA
BRANCH  20  22
ATOM     22  C   UNL     1       1.692   3.531  18.851  0.00  0.00    +0.000 C 
ATOM     23  C   UNL     1       1.386   4.404  17.630  0.00  0.00    +0.000 C 
ATOM     24  C   UNL     1       0.847   2.242  18.756  0.00  0.00    +0.000 C 
ATOM     25  C   UNL     1       1.301   4.259  20.144  0.00  0.00    +0.000 C 
ENDBRANCH  20  22
ENDBRANCH   5  20
TORSDOF 5
ENDMDL
MODEL 4
REMARK VINA RESULT:      -7.3      1.914      4.256
REMARK  Name = 
REMARK  9 active torsions:
REMARK  status: ('A' for Active; 'I' for Inactive)
REMARK    1  A    between atoms: C_1  and  O_2
REMARK    2  A    between atoms: O_2  and  C_3
REMARK    3  A    between atoms: C_6  and  C_7
REMARK    4  A    between atoms: C_11  and  C_12
REMARK    5  A    between atoms: C_12  and  C_14
REMARK    6  A    between atoms: C_14  and  C_15
REMARK    7  A    between atoms: C_14  and  C_16
REMARK    8  A    between atoms: C_14  and  C_17
REMARK    9  A    between atoms: C_22  and  O_23
REMARK                            x       y       z     vdW  Elec       q    Type
REMARK                         _______ _______ _______ _____ _____    ______ ____
ROOT
ATOM      1  C   UNL     1       1.620   5.667  21.029  0.00  0.00    +0.000 C 
ATOM      2  C   UNL     1       1.877   4.511  20.387  0.00  0.00    +0.000 A 
ATOM      3  S   UNL     1       2.098   4.305  18.678  0.00  0.00    +0.000 S 
ATOM      4  C   UNL     1       3.390   3.202  19.003  0.00  0.00    +0.000 A 
ATOM      5  C   UNL     1       4.504   3.051  18.270  0.00  0.00    +0.000 C 
ATOM      6  N   UNL     1       3.168   2.580  20.207  0.00  0.00    +0.000 N 
ATOM      7  C   UNL     1       2.327   3.268  21.079  0.00  0.00    +0.000 A 
ATOM      8  O   UNL     1       2.120   2.968  22.245  0.00  0.00    +0.000 OA
ATOM      9  H   UNL     1       3.750   1.852  20.583  0.00  0.00    +0.000 HD
ENDROOT
BRANCH   1  13
ATOM     10  C   UNL     1       1.566   9.497  19.032  0.00  0.00    +0.000 A 
ATOM     11  C   UNL     1       0.967   9.337  20.292  0.00  0.00    +0.000 A 
ATOM     12  C   UNL     1       0.969   8.098  20.959  0.00  0.00    +0.000 A 
ATOM     13  C   UNL     1       1.597   6.998  20.380  0.00  0.00    +0.000 A 
ATOM     14  C   UNL     1       2.277   7.196  19.168  0.00  0.00    +0.000 A 
ATOM     15  C   UNL     1       2.209   8.400  18.467  0.00  0.00    +0.000 A 
BRANCH  10  17
ATOM     16  C   UNL     1       0.818  11.746  19.330  0.00  0.00    +0.000 C 
ATOM     17  O   UNL     1       1.432  10.757  18.512  0.00  0.00    +0.000 OA
ENDBRANCH  10  17
BRANCH  15  18
ATOM     18  O   UNL     1       2.778   8.428  17.223  0.00  0.00    +0.000 OA
ATOM     19  H   UNL     1       3.238   7.577  17.078  0.00  0.00    +0.000 HD
ENDBRANCH  15  18
ENDBRANCH   1  13
BRANCH   5  20
ATOM     20  C   UNL     1       4.932   4.070  17.244  0.00  0.00    +0.000 C 
ATOM     21  O   UNL     1       4.372   4.097  16.144  0.00  0.00    +0.000 OA
BRANCH  20  22
ATOM     22  C   UNL     1       5.960   5.156  17.622  0.00  0.00    +0.000 C 
ATOM     23  C   UNL     1       5.958   5.408  19.133  0.00  0.00    +0.000 C 
ATOM     24  C   UNL     1       7.364   4.661  17.209  0.00  0.00    +0.000 C 
ATOM     25  C   UNL     1       5.674   6.457  16.860  0.00  0.00    +0.000 C 
ENDBRANCH  20  22
ENDBRANCH   5  20
TORSDOF 5
ENDMDL
MODEL 5
REMARK VINA RESULT:      -7.1      2.249      6.073
REMARK  Name = 
REMARK  9 active torsions:
REMARK  status: ('A' for Active; 'I' for Inactive)
REMARK    1  A    between atoms: C_1  and  O_2
REMARK    2  A    between atoms: O_2  and  C_3
REMARK    3  A    between atoms: C_6  and  C_7
REMARK    4  A    between atoms: C_11  and  C_12
REMARK    5  A    between atoms: C_12  and  C_14
REMARK    6  A    between atoms: C_14  and  C_15
REMARK    7  A    between atoms: C_14  and  C_16
REMARK    8  A    between atoms: C_14  and  C_17
REMARK    9  A    between atoms: C_22  and  O_23
REMARK                            x       y       z     vdW  Elec       q    Type
REMARK                         _______ _______ _______ _____ _____    ______ ____
ROOT
ATOM      1  C   UNL     1       3.600   3.419  18.121  0.00  0.00    +0.000 C 
ATOM      2  C   UNL     1       2.830   3.586  19.213  0.00  0.00    +0.000 A 
ATOM      3  S   UNL     1       3.031   4.791  20.446  0.00  0.00    +0.000 S 
ATOM      4  C   UNL     1       1.315   5.004  20.483  0.00  0.00    +0.000 A 
ATOM      5  C   UNL     1       0.666   6.158  20.702  0.00  0.00    +0.000 C 
ATOM      6  N   UNL     1       0.701   3.828  20.127  0.00  0.00    +0.000 N 
ATOM      7  C   UNL     1       1.485   2.957  19.376  0.00  0.00    +0.000 A 
ATOM      8  O   UNL     1       1.090   1.935  18.836  0.00  0.00    +0.000 OA
ATOM      9  H   UNL     1      -0.294   3.686  20.133  0.00  0.00    +0.000 HD
ENDROOT
BRANCH   1  13
ATOM     10  C   UNL     1       6.731   6.141  16.918  0.00  0.00    +0.000 A 
ATOM     11  C   UNL     1       6.928   5.248  17.985  0.00  0.00    +0.000 A 
ATOM     12  C   UNL     1       5.921   4.356  18.396  0.00  0.00    +0.000 A 
ATOM     13  C   UNL     1       4.700   4.327  17.726  0.00  0.00    +0.000 A 
ATOM     14  C   UNL     1       4.553   5.154  16.600  0.00  0.00    +0.000 A 
ATOM     15  C   UNL     1       5.518   6.094  16.238  0.00  0.00    +0.000 A 
BRANCH  10  17
ATOM     16  C   UNL     1       7.956   8.100  17.526  0.00  0.00    +0.000 C 
ATOM     17  O   UNL     1       7.800   6.965  16.683  0.00  0.00    +0.000 OA
ENDBRANCH  10  17
BRANCH  15  18
ATOM     18  O   UNL     1       5.199   6.953  15.222  0.00  0.00    +0.000 OA
ATOM     19  H   UNL     1       6.010   7.429  14.958  0.00  0.00    +0.000 HD
ENDBRANCH  15  18
ENDBRANCH   1  13
BRANCH   5  20
ATOM     20  C   UNL     1       1.357   7.495  20.609  0.00  0.00    +0.000 C 
ATOM     21  O   UNL     1       2.336   7.623  19.867  0.00  0.00    +0.000 OA
BRANCH  20  22
ATOM     22  C   UNL     1       0.758   8.722  21.327  0.00  0.00    +0.000 C 
ATOM     23  C   UNL     1       1.640   9.153  22.502  0.00  0.00    +0.000 C 
ATOM     24  C   UNL     1       0.683   9.888  20.315  0.00  0.00    +0.000 C 
ATOM     25  C   UNL     1      -0.668   8.420  21.807  0.00  0.00    +0.000 C 
ENDBRANCH  20  22
ENDBRANCH   5  20
TORSDOF 5
ENDMDL
MODEL 6
REMARK VINA RESULT:      -7.0      2.318      6.358
REMARK  Name = 
REMARK  9 active torsions:
REMARK  status: ('A' for Active; 'I' for Inactive)
REMARK    1  A    between atoms: C_1  and  O_2
REMARK    2  A    between atoms: O_2  and  C_3
REMARK    3  A    between atoms: C_6  and  C_7
REMARK    4  A    between atoms: C_11  and  C_12
REMARK    5  A    between atoms: C_12  and  C_14
REMARK    6  A    between atoms: C_14  and  C_15
REMARK    7  A    between atoms: C_14  and  C_16
REMARK    8  A    between atoms: C_14  and  C_17
REMARK    9  A    between atoms: C_22  and  O_23
REMARK                            x       y       z     vdW  Elec       q    Type
REMARK                         _______ _______ _______ _____ _____    ______ ____
ROOT
ATOM      1  C   UNL     1       3.470   3.541  18.009  0.00  0.00    +0.000 C 
ATOM      2  C   UNL     1       2.709   3.676  19.113  0.00  0.00    +0.000 A 
ATOM      3  S   UNL     1       2.950   4.813  20.401  0.00  0.00    +0.000 S 
ATOM      4  C   UNL     1       1.241   5.072  20.459  0.00  0.00    +0.000 A 
ATOM      5  C   UNL     1       0.626   6.231  20.738  0.00  0.00    +0.000 C 
ATOM      6  N   UNL     1       0.593   3.932  20.050  0.00  0.00    +0.000 N 
ATOM      7  C   UNL     1       1.349   3.077  19.252  0.00  0.00    +0.000 A 
ATOM      8  O   UNL     1       0.922   2.095  18.665  0.00  0.00    +0.000 OA
ATOM      9  H   UNL     1      -0.406   3.818  20.054  0.00  0.00    +0.000 HD
ENDROOT
BRANCH   1  13
ATOM     10  C   UNL     1       6.815   6.059  16.944  0.00  0.00    +0.000 A 
ATOM     11  C   UNL     1       5.501   6.553  16.894  0.00  0.00    +0.000 A 
ATOM     12  C   UNL     1       4.397   5.750  17.233  0.00  0.00    +0.000 A 
ATOM     13  C   UNL     1       4.594   4.437  17.652  0.00  0.00    +0.000 A 
ATOM     14  C   UNL     1       5.916   3.987  17.793  0.00  0.00    +0.000 A 
ATOM     15  C   UNL     1       7.008   4.752  17.383  0.00  0.00    +0.000 A 
BRANCH  10  17
ATOM     16  C   UNL     1       7.949   8.123  17.341  0.00  0.00    +0.000 C 
ATOM     17  O   UNL     1       7.761   6.963  16.540  0.00  0.00    +0.000 OA
ENDBRANCH  10  17
BRANCH  15  18
ATOM     18  O   UNL     1       8.237   4.152  17.419  0.00  0.00    +0.000 OA
ATOM     19  H   UNL     1       8.861   4.700  16.904  0.00  0.00    +0.000 HD
ENDBRANCH  15  18
ENDBRANCH   1  13
BRANCH   5  20
ATOM     20  C   UNL     1       1.354   7.552  20.707  0.00  0.00    +0.000 C 
ATOM     21  O   UNL     1       2.380   7.664  20.028  0.00  0.00    +0.000 OA
BRANCH  20  22
ATOM     22  C   UNL     1       0.741   8.784  21.403  0.00  0.00    +0.000 C 
ATOM     23  C   UNL     1       0.633   9.963  20.431  0.00  0.00    +0.000 C 
ATOM     24  C   UNL     1      -0.679   8.414  21.885  0.00  0.00    +0.000 C 
ATOM     25  C   UNL     1       1.571   9.175  22.632  0.00  0.00    +0.000 C 
ENDBRANCH  20  22
ENDBRANCH   5  20
TORSDOF 5
ENDMDL
MODEL 7
REMARK VINA RESULT:      -6.9      1.938      4.183
REMARK  Name = 
REMARK  9 active torsions:
REMARK  status: ('A' for Active; 'I' for Inactive)
REMARK    1  A    between atoms: C_1  and  O_2
REMARK    2  A    between atoms: O_2  and  C_3
REMARK    3  A    between atoms: C_6  and  C_7
REMARK    4  A    between atoms: C_11  and  C_12
REMARK    5  A    between atoms: C_12  and  C_14
REMARK    6  A    between atoms: C_14  and  C_15
REMARK    7  A    between atoms: C_14  and  C_16
REMARK    8  A    between atoms: C_14  and  C_17
REMARK    9  A    between atoms: C_22  and  O_23
REMARK                            x       y       z     vdW  Elec       q    Type
REMARK                         _______ _______ _______ _____ _____    ______ ____
ROOT
ATOM      1  C   UNL     1       1.589   5.823  20.946  0.00  0.00    +0.000 C 
ATOM      2  C   UNL     1       2.138   4.799  20.264  0.00  0.00    +0.000 A 
ATOM      3  S   UNL     1       2.710   4.836  18.626  0.00  0.00    +0.000 S 
ATOM      4  C   UNL     1       4.070   3.882  19.106  0.00  0.00    +0.000 A 
ATOM      5  C   UNL     1       5.313   3.970  18.608  0.00  0.00    +0.000 C 
ATOM      6  N   UNL     1       3.721   3.093  20.174  0.00  0.00    +0.000 N 
ATOM      7  C   UNL     1       2.634   3.550  20.915  0.00  0.00    +0.000 A 
ATOM      8  O   UNL     1       2.256   3.085  21.979  0.00  0.00    +0.000 OA
ATOM      9  H   UNL     1       4.326   2.407  20.592  0.00  0.00    +0.000 HD
ENDROOT
BRANCH   1  13
ATOM     10  C   UNL     1       1.291   9.824  19.344  0.00  0.00    +0.000 A 
ATOM     11  C   UNL     1       0.820   9.532  20.635  0.00  0.00    +0.000 A 
ATOM     12  C   UNL     1       0.903   8.236  21.175  0.00  0.00    +0.000 A 
ATOM     13  C   UNL     1       1.485   7.209  20.435  0.00  0.00    +0.000 A 
ATOM     14  C   UNL     1       2.041   7.537  19.188  0.00  0.00    +0.000 A 
ATOM     15  C   UNL     1       1.890   8.800  18.616  0.00  0.00    +0.000 A 
BRANCH  10  17
ATOM     16  C   UNL     1      -0.251  11.556  18.769  0.00  0.00    +0.000 C 
ATOM     17  O   UNL     1       1.091  11.125  18.965  0.00  0.00    +0.000 OA
ENDBRANCH  10  17
BRANCH  15  18
ATOM     18  O   UNL     1       2.333   8.959  17.332  0.00  0.00    +0.000 OA
ATOM     19  H   UNL     1       1.555   8.994  16.741  0.00  0.00    +0.000 HD
ENDBRANCH  15  18
ENDBRANCH   1  13
BRANCH   5  20
ATOM     20  C   UNL     1       5.767   5.156  17.794  0.00  0.00    +0.000 C 
ATOM     21  O   UNL     1       6.235   6.143  18.369  0.00  0.00    +0.000 OA
BRANCH  20  22
ATOM     22  C   UNL     1       5.777   5.073  16.254  0.00  0.00    +0.000 C 
ATOM     23  C   UNL     1       4.944   3.884  15.765  0.00  0.00    +0.000 C 
ATOM     24  C   UNL     1       5.154   6.371  15.693  0.00  0.00    +0.000 C 
ATOM     25  C   UNL     1       7.216   4.973  15.730  0.00  0.00    +0.000 C 
ENDBRANCH  20  22
ENDBRANCH   5  20
TORSDOF 5
ENDMDL
MODEL 8
REMARK VINA RESULT:      -6.9      1.725      4.235
REMARK  Name = 
REMARK  9 active torsions:
REMARK  status: ('A' for Active; 'I' for Inactive)
REMARK    1  A    between atoms: C_1  and  O_2
REMARK    2  A    between atoms: O_2  and  C_3
REMARK    3  A    between atoms: C_6  and  C_7
REMARK    4  A    between atoms: C_11  and  C_12
REMARK    5  A    between atoms: C_12  and  C_14
REMARK    6  A    between atoms: C_14  and  C_15
REMARK    7  A    between atoms: C_14  and  C_16
REMARK    8  A    between atoms: C_14  and  C_17
REMARK    9  A    between atoms: C_22  and  O_23
REMARK                            x       y       z     vdW  Elec       q    Type
REMARK                         _______ _______ _______ _____ _____    ______ ____
ROOT
ATOM      1  C   UNL     1       1.873   5.346  20.993  0.00  0.00    +0.000 C 
ATOM      2  C   UNL     1       2.167   4.259  20.254  0.00  0.00    +0.000 A 
ATOM      3  S   UNL     1       2.288   4.186  18.524  0.00  0.00    +0.000 S 
ATOM      4  C   UNL     1       3.672   3.163  18.689  0.00  0.00    +0.000 A 
ATOM      5  C   UNL     1       4.742   3.144  17.880  0.00  0.00    +0.000 C 
ATOM      6  N   UNL     1       3.574   2.446  19.856  0.00  0.00    +0.000 N 
ATOM      7  C   UNL     1       2.747   3.008  20.826  0.00  0.00    +0.000 A 
ATOM      8  O   UNL     1       2.639   2.616  21.977  0.00  0.00    +0.000 OA
ATOM      9  H   UNL     1       4.229   1.739  20.143  0.00  0.00    +0.000 HD
ENDROOT
BRANCH   1  13
ATOM     10  C   UNL     1       1.401   9.374  19.505  0.00  0.00    +0.000 A 
ATOM     11  C   UNL     1       2.008   8.384  18.714  0.00  0.00    +0.000 A 
ATOM     12  C   UNL     1       2.175   7.068  19.180  0.00  0.00    +0.000 A 
ATOM     13  C   UNL     1       1.714   6.713  20.445  0.00  0.00    +0.000 A 
ATOM     14  C   UNL     1       1.022   7.685  21.184  0.00  0.00    +0.000 A 
ATOM     15  C   UNL     1       0.924   9.010  20.761  0.00  0.00    +0.000 A 
BRANCH  10  17
ATOM     16  C   UNL     1       0.086  11.116  18.534  0.00  0.00    +0.000 C 
ATOM     17  O   UNL     1       1.360  10.608  18.911  0.00  0.00    +0.000 OA
ENDBRANCH  10  17
BRANCH  15  18
ATOM     18  O   UNL     1       0.366   9.903  21.635  0.00  0.00    +0.000 OA
ATOM     19  H   UNL     1      -0.257  10.469  21.137  0.00  0.00    +0.000 HD
ENDBRANCH  15  18
ENDBRANCH   1  13
BRANCH   5  20
ATOM     20  C   UNL     1       5.030   4.260  16.907  0.00  0.00    +0.000 C 
ATOM     21  O   UNL     1       4.609   4.179  15.749  0.00  0.00    +0.000 OA
BRANCH  20  22
ATOM     22  C   UNL     1       5.720   5.550  17.398  0.00  0.00    +0.000 C 
ATOM     23  C   UNL     1       5.865   5.545  18.922  0.00  0.00    +0.000 C 
ATOM     24  C   UNL     1       7.130   5.615  16.770  0.00  0.00    +0.000 C 
ATOM     25  C   UNL     1       4.938   6.787  16.936  0.00  0.00    +0.000 C 
ENDBRANCH  20  22
ENDBRANCH   5  20
TORSDOF 5
ENDMDL
MODEL 9
REMARK VINA RESULT:      -6.8      1.847      4.390
REMARK  Name = 
REMARK  9 active torsions:
REMARK  status: ('A' for Active; 'I' for Inactive)
REMARK    1  A    between atoms: C_1  and  O_2
REMARK    2  A    between atoms: O_2  and  C_3
REMARK    3  A    between atoms: C_6  and  C_7
REMARK    4  A    between atoms: C_11  and  C_12
REMARK    5  A    between atoms: C_12  and  C_14
REMARK    6  A    between atoms: C_14  and  C_15
REMARK    7  A    between atoms: C_14  and  C_16
REMARK    8  A    between atoms: C_14  and  C_17
REMARK    9  A    between atoms: C_22  and  O_23
REMARK                            x       y       z     vdW  Elec       q    Type
REMARK                         _______ _______ _______ _____ _____    ______ ____
ROOT
ATOM      1  C   UNL     1       1.680   5.764  20.995  0.00  0.00    +0.000 C 
ATOM      2  C   UNL     1       2.084   4.726  20.238  0.00  0.00    +0.000 A 
ATOM      3  S   UNL     1       2.367   4.743  18.526  0.00  0.00    +0.000 S 
ATOM      4  C   UNL     1       3.771   3.763  18.773  0.00  0.00    +0.000 A 
ATOM      5  C   UNL     1       4.911   3.823  18.070  0.00  0.00    +0.000 C 
ATOM      6  N   UNL     1       3.594   2.987  19.893  0.00  0.00    +0.000 N 
ATOM      7  C   UNL     1       2.660   3.470  20.805  0.00  0.00    +0.000 A 
ATOM      8  O   UNL     1       2.461   3.018  21.922  0.00  0.00    +0.000 OA
ATOM      9  H   UNL     1       4.249   2.291  20.207  0.00  0.00    +0.000 HD
ENDROOT
BRANCH   1  13
ATOM     10  C   UNL     1       1.209   9.764  19.434  0.00  0.00    +0.000 A 
ATOM     11  C   UNL     1       0.762   9.442  20.726  0.00  0.00    +0.000 A 
ATOM     12  C   UNL     1       0.901   8.145  21.253  0.00  0.00    +0.000 A 
ATOM     13  C   UNL     1       1.516   7.149  20.498  0.00  0.00    +0.000 A 
ATOM     14  C   UNL     1       2.047   7.510  19.249  0.00  0.00    +0.000 A 
ATOM     15  C   UNL     1       1.841   8.771  18.691  0.00  0.00    +0.000 A 
BRANCH  10  17
ATOM     16  C   UNL     1      -0.364  11.375  18.636  0.00  0.00    +0.000 C 
ATOM     17  O   UNL     1       0.954  11.059  19.068  0.00  0.00    +0.000 OA
ENDBRANCH  10  17
BRANCH  15  18
ATOM     18  O   UNL     1       2.267   8.959  17.404  0.00  0.00    +0.000 OA
ATOM     19  H   UNL     1       1.989   9.852  17.117  0.00  0.00    +0.000 HD
ENDBRANCH  15  18
ENDBRANCH   1  13
BRANCH   5  20
ATOM     20  C   UNL     1       5.242   4.996  17.180  0.00  0.00    +0.000 C 
ATOM     21  O   UNL     1       4.338   5.750  16.808  0.00  0.00    +0.000 OA
BRANCH  20  22
ATOM     22  C   UNL     1       6.714   5.325  16.858  0.00  0.00    +0.000 C 
ATOM     23  C   UNL     1       7.040   5.001  15.397  0.00  0.00    +0.000 C 
ATOM     24  C   UNL     1       6.934   6.838  17.085  0.00  0.00    +0.000 C 
ATOM     25  C   UNL     1       7.654   4.563  17.801  0.00  0.00    +0.000 C 
ENDBRANCH  20  22
ENDBRANCH   5  20
TORSDOF 5
ENDMDL
