MODEL 1
REMARK VINA RESULT:      -7.9      0.000      0.000
REMARK  Name = 
REMARK  8 active torsions:
REMARK  status: ('A' for Active; 'I' for Inactive)
REMARK    1  A    between atoms: C_1  and  C_2
REMARK    2  A    between atoms: C_2  and  O_3
REMARK    3  A    between atoms: C_2  and  C_21
REMARK    4  A    between atoms: O_3  and  C_4
REMARK    5  A    between atoms: C_6  and  C_7
REMARK    6  A    between atoms: N_9  and  C_10
REMARK    7  A    between atoms: C_13  and  O_14
REMARK    8  A    between atoms: C_19  and  N_20
REMARK                            x       y       z     vdW  Elec       q    Type
REMARK                         _______ _______ _______ _____ _____    ______ ____
ROOT
ATOM      1  C   UNL     1       4.144   5.038  17.599  0.00  0.00    +0.000 A 
ATOM      2  C   UNL     1       3.553   6.278  17.387  0.00  0.00    +0.000 A 
ATOM      3  C   UNL     1       2.849   6.933  18.405  0.00  0.00    +0.000 A 
ATOM      4  C   UNL     1       2.719   6.307  19.648  0.00  0.00    +0.000 A 
ATOM      5  C   UNL     1       3.273   5.039  19.856  0.00  0.00    +0.000 A 
ATOM      6  C   UNL     1       3.958   4.379  18.828  0.00  0.00    +0.000 A 
ENDROOT
BRANCH   3   7
ATOM      7  C   UNL     1       2.280   8.305  18.209  0.00  0.00    +0.000 C 
ATOM      8  O   UNL     1       2.495   8.914  17.168  0.00  0.00    +0.000 OA
ATOM      9  N   UNL     1       1.514   8.821  19.242  0.00  0.00    +0.000 N 
ATOM     10  H   UNL     1       1.182   8.219  19.975  0.00  0.00    +0.000 HD
BRANCH   9  11
ATOM     11  C   UNL     1       0.864  10.115  19.162  0.00  0.00    +0.000 C 
ATOM     12  C   UNL     1      -0.454   9.994  18.387  0.00  0.00    +0.000 C 
ATOM     13  C   UNL     1      -1.188  11.329  18.331  0.00  0.00    +0.000 C 
ATOM     14  C   UNL     1      -1.401  11.921  19.726  0.00  0.00    +0.000 C 
ATOM     15  C   UNL     1      -0.095  12.009  20.515  0.00  0.00    +0.000 C 
ATOM     16  C   UNL     1       0.610  10.658  20.574  0.00  0.00    +0.000 C 
BRANCH  14  17
ATOM     17  O   UNL     1      -1.974  13.218  19.611  0.00  0.00    +0.000 OA
ATOM     18  H   UNL     1      -2.906  13.161  19.884  0.00  0.00    +0.000 HD
ENDBRANCH  14  17
ENDBRANCH   9  11
ENDBRANCH   3   7
BRANCH   6  19
ATOM     19  N   UNL     1       4.634   3.178  19.111  0.00  0.00    +0.000 N 
ATOM     20  H   UNL     1       5.055   3.144  20.032  0.00  0.00    +0.000 HD
ATOM     21  H   UNL     1       4.054   2.365  18.905  0.00  0.00    +0.000 HD
ENDBRANCH   6  19
BRANCH   1  22
ATOM     22  O   UNL     1       5.043   4.487  16.730  0.00  0.00    +0.000 OA
BRANCH  22  24
ATOM     23  C   UNL     1       7.535   4.624  17.123  0.00  0.00    +0.000 C 
ATOM     24  C   UNL     1       6.282   5.127  16.393  0.00  0.00    +0.000 C 
BRANCH  24  25
ATOM     25  C   UNL     1       6.474   4.791  14.919  0.00  0.00    +0.000 A 
ATOM     26  C   UNL     1       7.537   5.330  14.187  0.00  0.00    +0.000 A 
ATOM     27  C   UNL     1       7.715   4.977  12.848  0.00  0.00    +0.000 A 
ATOM     28  C   UNL     1       6.839   4.084  12.231  0.00  0.00    +0.000 A 
ATOM     29  C   UNL     1       5.780   3.539  12.949  0.00  0.00    +0.000 A 
ATOM     30  C   UNL     1       5.598   3.890  14.283  0.00  0.00    +0.000 A 
ENDBRANCH  24  25
ENDBRANCH  22  24
ENDBRANCH   1  22
TORSDOF 7
ENDMDL
MODEL 2
REMARK VINA RESULT:      -7.7      2.105      2.966
REMARK  Name = 
REMARK  8 active torsions:
REMARK  status: ('A' for Active; 'I' for Inactive)
REMARK    1  A    between atoms: C_1  and  C_2
REMARK    2  A    between atoms: C_2  and  O_3
REMARK    3  A    between atoms: C_2  and  C_21
REMARK    4  A    between atoms: O_3  and  C_4
REMARK    5  A    between atoms: C_6  and  C_7
REMARK    6  A    between atoms: N_9  and  C_10
REMARK    7  A    between atoms: C_13  and  O_14
REMARK    8  A    between atoms: C_19  and  N_20
REMARK                            x       y       z     vdW  Elec       q    Type
REMARK                         _______ _______ _______ _____ _____    ______ ____
ROOT
ATOM      1  C   UNL     1       4.619   3.911  19.664  0.00  0.00    +0.000 A 
ATOM      2  C   UNL     1       3.673   4.925  19.746  0.00  0.00    +0.000 A 
ATOM      3  C   UNL     1       2.409   4.701  20.306  0.00  0.00    +0.000 A 
ATOM      4  C   UNL     1       2.092   3.419  20.763  0.00  0.00    +0.000 A 
ATOM      5  C   UNL     1       3.022   2.380  20.645  0.00  0.00    +0.000 A 
ATOM      6  C   UNL     1       4.277   2.606  20.065  0.00  0.00    +0.000 A 
ENDROOT
BRANCH   3   7
ATOM      7  C   UNL     1       1.415   5.809  20.471  0.00  0.00    +0.000 C 
ATOM      8  O   UNL     1       0.226   5.550  20.609  0.00  0.00    +0.000 OA
ATOM      9  N   UNL     1       1.910   7.103  20.464  0.00  0.00    +0.000 N 
ATOM     10  H   UNL     1       2.897   7.268  20.566  0.00  0.00    +0.000 HD
BRANCH   9  11
ATOM     11  C   UNL     1       1.065   8.264  20.662  0.00  0.00    +0.000 C 
ATOM     12  C   UNL     1       1.335   8.882  22.040  0.00  0.00    +0.000 C 
ATOM     13  C   UNL     1       0.499  10.137  22.258  0.00  0.00    +0.000 C 
ATOM     14  C   UNL     1       0.693  11.154  21.132  0.00  0.00    +0.000 C 
ATOM     15  C   UNL     1       0.461  10.534  19.755  0.00  0.00    +0.000 C 
ATOM     16  C   UNL     1       1.323   9.293  19.553  0.00  0.00    +0.000 C 
BRANCH  14  17
ATOM     17  O   UNL     1      -0.199  12.247  21.316  0.00  0.00    +0.000 OA
ATOM     18  H   UNL     1      -0.840  12.240  20.584  0.00  0.00    +0.000 HD
ENDBRANCH  14  17
ENDBRANCH   9  11
ENDBRANCH   3   7
BRANCH   6  19
ATOM     19  N   UNL     1       5.245   1.586  20.098  0.00  0.00    +0.000 N 
ATOM     20  H   UNL     1       5.371   1.161  21.010  0.00  0.00    +0.000 HD
ATOM     21  H   UNL     1       5.095   0.904  19.356  0.00  0.00    +0.000 HD
ENDBRANCH   6  19
BRANCH   1  22
ATOM     22  O   UNL     1       5.932   4.143  19.367  0.00  0.00    +0.000 OA
BRANCH  22  24
ATOM     23  C   UNL     1       7.871   5.760  19.258  0.00  0.00    +0.000 C 
ATOM     24  C   UNL     1       6.409   5.423  18.928  0.00  0.00    +0.000 C 
BRANCH  24  25
ATOM     25  C   UNL     1       6.314   5.345  17.410  0.00  0.00    +0.000 A 
ATOM     26  C   UNL     1       7.120   4.468  16.678  0.00  0.00    +0.000 A 
ATOM     27  C   UNL     1       6.988   4.387  15.291  0.00  0.00    +0.000 A 
ATOM     28  C   UNL     1       6.049   5.175  14.624  0.00  0.00    +0.000 A 
ATOM     29  C   UNL     1       5.239   6.049  15.340  0.00  0.00    +0.000 A 
ATOM     30  C   UNL     1       5.370   6.135  16.723  0.00  0.00    +0.000 A 
ENDBRANCH  24  25
ENDBRANCH  22  24
ENDBRANCH   1  22
TORSDOF 7
ENDMDL
MODEL 3
REMARK VINA RESULT:      -7.7      1.345      1.839
REMARK  Name = 
REMARK  8 active torsions:
REMARK  status: ('A' for Active; 'I' for Inactive)
REMARK    1  A    between atoms: C_1  and  C_2
REMARK    2  A    between atoms: C_2  and  O_3
REMARK    3  A    between atoms: C_2  and  C_21
REMARK    4  A    between atoms: O_3  and  C_4
REMARK    5  A    between atoms: C_6  and  C_7
REMARK    6  A    between atoms: N_9  and  C_10
REMARK    7  A    between atoms: C_13  and  O_14
REMARK    8  A    between atoms: C_19  and  N_20
REMARK                            x       y       z     vdW  Elec       q    Type
REMARK                         _______ _______ _______ _____ _____    ______ ____
ROOT
ATOM      1  C   UNL     1       3.960   4.253  17.319  0.00  0.00    +0.000 A 
ATOM      2  C   UNL     1       3.596   5.559  17.623  0.00  0.00    +0.000 A 
ATOM      3  C   UNL     1       2.778   5.852  18.721  0.00  0.00    +0.000 A 
ATOM      4  C   UNL     1       2.299   4.799  19.505  0.00  0.00    +0.000 A 
ATOM      5  C   UNL     1       2.623   3.477  19.180  0.00  0.00    +0.000 A 
ATOM      6  C   UNL     1       3.425   3.189  18.068  0.00  0.00    +0.000 A 
ENDROOT
BRANCH   3   7
ATOM      7  C   UNL     1       2.449   7.263  19.101  0.00  0.00    +0.000 C 
ATOM      8  O   UNL     1       2.711   8.181  18.334  0.00  0.00    +0.000 OA
ATOM      9  N   UNL     1       1.845   7.457  20.333  0.00  0.00    +0.000 N 
ATOM     10  H   UNL     1       1.452   6.678  20.832  0.00  0.00    +0.000 HD
BRANCH   9  11
ATOM     11  C   UNL     1       1.430   8.765  20.802  0.00  0.00    +0.000 C 
ATOM     12  C   UNL     1       0.588   9.466  19.729  0.00  0.00    +0.000 C 
ATOM     13  C   UNL     1       0.091  10.823  20.214  0.00  0.00    +0.000 C 
ATOM     14  C   UNL     1      -0.658  10.715  21.543  0.00  0.00    +0.000 C 
ATOM     15  C   UNL     1       0.163   9.984  22.604  0.00  0.00    +0.000 C 
ATOM     16  C   UNL     1       0.630   8.622  22.104  0.00  0.00    +0.000 C 
BRANCH  14  17
ATOM     17  O   UNL     1      -0.989  12.016  22.012  0.00  0.00    +0.000 OA
ATOM     18  H   UNL     1      -1.038  11.984  22.983  0.00  0.00    +0.000 HD
ENDBRANCH  14  17
ENDBRANCH   9  11
ENDBRANCH   3   7
BRANCH   6  19
ATOM     19  N   UNL     1       3.859   1.868  17.856  0.00  0.00    +0.000 N 
ATOM     20  H   UNL     1       3.130   1.170  17.952  0.00  0.00    +0.000 HD
ATOM     21  H   UNL     1       4.385   1.782  16.988  0.00  0.00    +0.000 HD
ENDBRANCH   6  19
BRANCH   1  22
ATOM     22  O   UNL     1       4.947   3.946  16.426  0.00  0.00    +0.000 OA
BRANCH  22  24
ATOM     23  C   UNL     1       7.330   4.601  16.954  0.00  0.00    +0.000 C 
ATOM     24  C   UNL     1       6.041   4.833  16.151  0.00  0.00    +0.000 C 
BRANCH  24  25
ATOM     25  C   UNL     1       6.382   4.548  14.694  0.00  0.00    +0.000 A 
ATOM     26  C   UNL     1       5.622   3.652  13.935  0.00  0.00    +0.000 A 
ATOM     27  C   UNL     1       5.930   3.437  12.590  0.00  0.00    +0.000 A 
ATOM     28  C   UNL     1       6.992   4.116  11.992  0.00  0.00    +0.000 A 
ATOM     29  C   UNL     1       7.753   5.011  12.735  0.00  0.00    +0.000 A 
ATOM     30  C   UNL     1       7.451   5.227  14.076  0.00  0.00    +0.000 A 
ENDBRANCH  24  25
ENDBRANCH  22  24
ENDBRANCH   1  22
TORSDOF 7
ENDMDL
MODEL 4
REMARK VINA RESULT:      -7.6      0.422      1.036
REMARK  Name = 
REMARK  8 active torsions:
REMARK  status: ('A' for Active; 'I' for Inactive)
REMARK    1  A    between atoms: C_1  and  C_2
REMARK    2  A    between atoms: C_2  and  O_3
REMARK    3  A    between atoms: C_2  and  C_21
REMARK    4  A    between atoms: O_3  and  C_4
REMARK    5  A    between atoms: C_6  and  C_7
REMARK    6  A    between atoms: N_9  and  C_10
REMARK    7  A    between atoms: C_13  and  O_14
REMARK    8  A    between atoms: C_19  and  N_20
REMARK                            x       y       z     vdW  Elec       q    Type
REMARK                         _______ _______ _______ _____ _____    ______ ____
ROOT
ATOM      1  C   UNL     1       3.985   5.122  17.864  0.00  0.00    +0.000 A 
ATOM      2  C   UNL     1       3.452   6.373  17.574  0.00  0.00    +0.000 A 
ATOM      3  C   UNL     1       2.679   7.071  18.510  0.00  0.00    +0.000 A 
ATOM      4  C   UNL     1       2.420   6.477  19.748  0.00  0.00    +0.000 A 
ATOM      5  C   UNL     1       2.915   5.200  20.032  0.00  0.00    +0.000 A 
ATOM      6  C   UNL     1       3.670   4.498  19.084  0.00  0.00    +0.000 A 
ENDROOT
BRANCH   3   7
ATOM      7  C   UNL     1       2.170   8.452  18.234  0.00  0.00    +0.000 C 
ATOM      8  O   UNL     1       2.555   9.061  17.243  0.00  0.00    +0.000 OA
ATOM      9  N   UNL     1       1.260   8.979  19.137  0.00  0.00    +0.000 N 
ATOM     10  H   UNL     1       0.807   8.380  19.806  0.00  0.00    +0.000 HD
BRANCH   9  11
ATOM     11  C   UNL     1       0.652  10.284  18.964  0.00  0.00    +0.000 C 
ATOM     12  C   UNL     1      -0.859  10.135  18.748  0.00  0.00    +0.000 C 
ATOM     13  C   UNL     1      -1.536  11.495  18.615  0.00  0.00    +0.000 C 
ATOM     14  C   UNL     1      -1.218  12.408  19.801  0.00  0.00    +0.000 C 
ATOM     15  C   UNL     1       0.286  12.529  20.042  0.00  0.00    +0.000 C 
ATOM     16  C   UNL     1       0.937  11.158  20.192  0.00  0.00    +0.000 C 
BRANCH  14  17
ATOM     17  O   UNL     1      -1.766  13.700  19.569  0.00  0.00    +0.000 OA
ATOM     18  H   UNL     1      -2.085  14.050  20.419  0.00  0.00    +0.000 HD
ENDBRANCH  14  17
ENDBRANCH   9  11
ENDBRANCH   3   7
BRANCH   6  19
ATOM     19  N   UNL     1       4.281   3.285  19.451  0.00  0.00    +0.000 N 
ATOM     20  H   UNL     1       4.026   2.953  20.375  0.00  0.00    +0.000 HD
ATOM     21  H   UNL     1       4.174   2.577  18.727  0.00  0.00    +0.000 HD
ENDBRANCH   6  19
BRANCH   1  22
ATOM     22  O   UNL     1       4.941   4.527  17.091  0.00  0.00    +0.000 OA
BRANCH  22  24
ATOM     23  C   UNL     1       7.428   4.819  17.429  0.00  0.00    +0.000 C 
ATOM     24  C   UNL     1       6.140   5.205  16.688  0.00  0.00    +0.000 C 
BRANCH  24  25
ATOM     25  C   UNL     1       6.329   4.777  15.238  0.00  0.00    +0.000 A 
ATOM     26  C   UNL     1       5.402   3.944  14.603  0.00  0.00    +0.000 A 
ATOM     27  C   UNL     1       5.577   3.597  13.262  0.00  0.00    +0.000 A 
ATOM     28  C   UNL     1       6.671   4.080  12.544  0.00  0.00    +0.000 A 
ATOM     29  C   UNL     1       7.598   4.912  13.164  0.00  0.00    +0.000 A 
ATOM     30  C   UNL     1       7.429   5.258  14.501  0.00  0.00    +0.000 A 
ENDBRANCH  24  25
ENDBRANCH  22  24
ENDBRANCH   1  22
TORSDOF 7
ENDMDL
MODEL 5
REMARK VINA RESULT:      -7.5      2.370      4.774
REMARK  Name = 
REMARK  8 active torsions:
REMARK  status: ('A' for Active; 'I' for Inactive)
REMARK    1  A    between atoms: C_1  and  C_2
REMARK    2  A    between atoms: C_2  and  O_3
REMARK    3  A    between atoms: C_2  and  C_21
REMARK    4  A    between atoms: O_3  and  C_4
REMARK    5  A    between atoms: C_6  and  C_7
REMARK    6  A    between atoms: N_9  and  C_10
REMARK    7  A    between atoms: C_13  and  O_14
REMARK    8  A    between atoms: C_19  and  N_20
REMARK                            x       y       z     vdW  Elec       q    Type
REMARK                         _______ _______ _______ _____ _____    ______ ____
ROOT
ATOM      1  C   UNL     1       4.547   4.885  17.967  0.00  0.00    +0.000 A 
ATOM      2  C   UNL     1       3.661   5.719  18.640  0.00  0.00    +0.000 A 
ATOM      3  C   UNL     1       3.348   6.994  18.154  0.00  0.00    +0.000 A 
ATOM      4  C   UNL     1       3.966   7.440  16.982  0.00  0.00    +0.000 A 
ATOM      5  C   UNL     1       4.893   6.625  16.323  0.00  0.00    +0.000 A 
ATOM      6  C   UNL     1       5.218   5.359  16.825  0.00  0.00    +0.000 A 
ENDROOT
BRANCH   3   7
ATOM      7  C   UNL     1       2.334   7.865  18.829  0.00  0.00    +0.000 C 
ATOM      8  O   UNL     1       1.979   7.616  19.975  0.00  0.00    +0.000 OA
ATOM      9  N   UNL     1       1.843   8.938  18.102  0.00  0.00    +0.000 N 
ATOM     10  H   UNL     1       2.309   9.235  17.262  0.00  0.00    +0.000 HD
BRANCH   9  11
ATOM     11  C   UNL     1       0.895   9.886  18.653  0.00  0.00    +0.000 C 
ATOM     12  C   UNL     1       1.485  11.301  18.617  0.00  0.00    +0.000 C 
ATOM     13  C   UNL     1       0.491  12.331  19.141  0.00  0.00    +0.000 C 
ATOM     14  C   UNL     1      -0.848  12.255  18.405  0.00  0.00    +0.000 C 
ATOM     15  C   UNL     1      -1.423  10.839  18.407  0.00  0.00    +0.000 C 
ATOM     16  C   UNL     1      -0.418   9.832  17.860  0.00  0.00    +0.000 C 
BRANCH  14  17
ATOM     17  O   UNL     1      -1.777  13.145  19.013  0.00  0.00    +0.000 OA
ATOM     18  H   UNL     1      -2.110  13.749  18.326  0.00  0.00    +0.000 HD
ENDBRANCH  14  17
ENDBRANCH   9  11
ENDBRANCH   3   7
BRANCH   6  19
ATOM     19  N   UNL     1       6.033   4.504  16.062  0.00  0.00    +0.000 N 
ATOM     20  H   UNL     1       6.398   4.924  15.214  0.00  0.00    +0.000 HD
ATOM     21  H   UNL     1       6.753   4.064  16.633  0.00  0.00    +0.000 HD
ENDBRANCH   6  19
BRANCH   1  22
ATOM     22  O   UNL     1       4.684   3.558  18.260  0.00  0.00    +0.000 OA
BRANCH  22  24
ATOM     23  C   UNL     1       4.058   1.134  17.919  0.00  0.00    +0.000 C 
ATOM     24  C   UNL     1       3.635   2.605  18.032  0.00  0.00    +0.000 C 
BRANCH  24  25
ATOM     25  C   UNL     1       2.770   2.713  19.282  0.00  0.00    +0.000 A 
ATOM     26  C   UNL     1       3.317   2.542  20.558  0.00  0.00    +0.000 A 
ATOM     27  C   UNL     1       2.513   2.683  21.690  0.00  0.00    +0.000 A 
ATOM     28  C   UNL     1       1.160   2.999  21.559  0.00  0.00    +0.000 A 
ATOM     29  C   UNL     1       0.604   3.174  20.296  0.00  0.00    +0.000 A 
ATOM     30  C   UNL     1       1.403   3.032  19.166  0.00  0.00    +0.000 A 
ENDBRANCH  24  25
ENDBRANCH  22  24
ENDBRANCH   1  22
TORSDOF 7
ENDMDL
MODEL 6
REMARK VINA RESULT:      -7.5      1.757      2.409
REMARK  Name = 
REMARK  8 active torsions:
REMARK  status: ('A' for Active; 'I' for Inactive)
REMARK    1  A    between atoms: C_1  and  C_2
REMARK    2  A    between atoms: C_2  and  O_3
REMARK    3  A    between atoms: C_2  and  C_21
REMARK    4  A    between atoms: O_3  and  C_4
REMARK    5  A    between atoms: C_6  and  C_7
REMARK    6  A    between atoms: N_9  and  C_10
REMARK    7  A    between atoms: C_13  and  O_14
REMARK    8  A    between atoms: C_19  and  N_20
REMARK                            x       y       z     vdW  Elec       q    Type
REMARK                         _______ _______ _______ _____ _____    ______ ____
ROOT
ATOM      1  C   UNL     1       3.767   4.988  19.600  0.00  0.00    +0.000 A 
ATOM      2  C   UNL     1       3.287   6.281  19.767  0.00  0.00    +0.000 A 
ATOM      3  C   UNL     1       2.023   6.525  20.317  0.00  0.00    +0.000 A 
ATOM      4  C   UNL     1       1.222   5.437  20.676  0.00  0.00    +0.000 A 
ATOM      5  C   UNL     1       1.678   4.131  20.470  0.00  0.00    +0.000 A 
ATOM      6  C   UNL     1       2.936   3.893  19.901  0.00  0.00    +0.000 A 
ENDROOT
BRANCH   3   7
ATOM      7  C   UNL     1       1.533   7.917  20.574  0.00  0.00    +0.000 C 
ATOM      8  O   UNL     1       1.379   8.310  21.725  0.00  0.00    +0.000 OA
ATOM      9  N   UNL     1       1.279   8.709  19.466  0.00  0.00    +0.000 N 
ATOM     10  H   UNL     1       1.619   8.435  18.560  0.00  0.00    +0.000 HD
BRANCH   9  11
ATOM     11  C   UNL     1       0.849  10.090  19.573  0.00  0.00    +0.000 C 
ATOM     12  C   UNL     1       1.584  10.951  18.540  0.00  0.00    +0.000 C 
ATOM     13  C   UNL     1       1.114  12.401  18.592  0.00  0.00    +0.000 C 
ATOM     14  C   UNL     1      -0.405  12.513  18.448  0.00  0.00    +0.000 C 
ATOM     15  C   UNL     1      -1.141  11.627  19.452  0.00  0.00    +0.000 C 
ATOM     16  C   UNL     1      -0.669  10.180  19.367  0.00  0.00    +0.000 C 
BRANCH  14  17
ATOM     17  O   UNL     1      -0.803  13.866  18.629  0.00  0.00    +0.000 OA
ATOM     18  H   UNL     1      -0.325  14.221  19.399  0.00  0.00    +0.000 HD
ENDBRANCH  14  17
ENDBRANCH   9  11
ENDBRANCH   3   7
BRANCH   6  19
ATOM     19  N   UNL     1       3.430   2.578  19.847  0.00  0.00    +0.000 N 
ATOM     20  H   UNL     1       3.537   2.136  20.754  0.00  0.00    +0.000 HD
ATOM     21  H   UNL     1       2.907   2.008  19.184  0.00  0.00    +0.000 HD
ENDBRANCH   6  19
BRANCH   1  22
ATOM     22  O   UNL     1       5.073   4.713  19.311  0.00  0.00    +0.000 OA
BRANCH  22  24
ATOM     23  C   UNL     1       7.425   5.636  19.340  0.00  0.00    +0.000 C 
ATOM     24  C   UNL     1       5.982   5.709  18.821  0.00  0.00    +0.000 C 
BRANCH  24  25
ATOM     25  C   UNL     1       6.045   5.438  17.323  0.00  0.00    +0.000 A 
ATOM     26  C   UNL     1       5.192   6.097  16.432  0.00  0.00    +0.000 A 
ATOM     27  C   UNL     1       5.294   5.860  15.060  0.00  0.00    +0.000 A 
ATOM     28  C   UNL     1       6.249   4.970  14.566  0.00  0.00    +0.000 A 
ATOM     29  C   UNL     1       7.104   4.311  15.442  0.00  0.00    +0.000 A 
ATOM     30  C   UNL     1       7.004   4.542  16.811  0.00  0.00    +0.000 A 
ENDBRANCH  24  25
ENDBRANCH  22  24
ENDBRANCH   1  22
TORSDOF 7
ENDMDL
MODEL 7
REMARK VINA RESULT:      -7.5      1.696      3.010
REMARK  Name = 
REMARK  8 active torsions:
REMARK  status: ('A' for Active; 'I' for Inactive)
REMARK    1  A    between atoms: C_1  and  C_2
REMARK    2  A    between atoms: C_2  and  O_3
REMARK    3  A    between atoms: C_2  and  C_21
REMARK    4  A    between atoms: O_3  and  C_4
REMARK    5  A    between atoms: C_6  and  C_7
REMARK    6  A    between atoms: N_9  and  C_10
REMARK    7  A    between atoms: C_13  and  O_14
REMARK    8  A    between atoms: C_19  and  N_20
REMARK                            x       y       z     vdW  Elec       q    Type
REMARK                         _______ _______ _______ _____ _____    ______ ____
ROOT
ATOM      1  C   UNL     1       3.614   5.183  17.697  0.00  0.00    +0.000 A 
ATOM      2  C   UNL     1       3.022   6.375  18.097  0.00  0.00    +0.000 A 
ATOM      3  C   UNL     1       2.426   6.506  19.357  0.00  0.00    +0.000 A 
ATOM      4  C   UNL     1       2.407   5.401  20.213  0.00  0.00    +0.000 A 
ATOM      5  C   UNL     1       2.961   4.184  19.801  0.00  0.00    +0.000 A 
ATOM      6  C   UNL     1       3.538   4.053  18.531  0.00  0.00    +0.000 A 
ENDROOT
BRANCH   3   7
ATOM      7  C   UNL     1       1.858   7.811  19.826  0.00  0.00    +0.000 C 
ATOM      8  O   UNL     1       1.612   7.980  21.014  0.00  0.00    +0.000 OA
ATOM      9  N   UNL     1       1.642   8.784  18.863  0.00  0.00    +0.000 N 
ATOM     10  H   UNL     1       2.052   8.691  17.950  0.00  0.00    +0.000 HD
BRANCH   9  11
ATOM     11  C   UNL     1       1.144  10.106  19.187  0.00  0.00    +0.000 C 
ATOM     12  C   UNL     1       1.845  11.159  18.319  0.00  0.00    +0.000 C 
ATOM     13  C   UNL     1       1.304  12.557  18.599  0.00  0.00    +0.000 C 
ATOM     14  C   UNL     1      -0.217  12.619  18.450  0.00  0.00    +0.000 C 
ATOM     15  C   UNL     1      -0.918  11.548  19.284  0.00  0.00    +0.000 C 
ATOM     16  C   UNL     1      -0.375  10.158  18.972  0.00  0.00    +0.000 C 
BRANCH  14  17
ATOM     17  O   UNL     1      -0.683  13.905  18.841  0.00  0.00    +0.000 OA
ATOM     18  H   UNL     1       0.091  14.484  18.957  0.00  0.00    +0.000 HD
ENDBRANCH  14  17
ENDBRANCH   9  11
ENDBRANCH   3   7
BRANCH   6  19
ATOM     19  N   UNL     1       4.221   2.868  18.204  0.00  0.00    +0.000 N 
ATOM     20  H   UNL     1       3.615   2.091  17.963  0.00  0.00    +0.000 HD
ATOM     21  H   UNL     1       4.952   3.036  17.514  0.00  0.00    +0.000 HD
ENDBRANCH   6  19
BRANCH   1  22
ATOM     22  O   UNL     1       4.420   5.087  16.597  0.00  0.00    +0.000 OA
BRANCH  22  24
ATOM     23  C   UNL     1       6.398   4.207  15.296  0.00  0.00    +0.000 C 
ATOM     24  C   UNL     1       5.723   4.489  16.646  0.00  0.00    +0.000 C 
BRANCH  24  25
ATOM     25  C   UNL     1       6.578   5.538  17.347  0.00  0.00    +0.000 A 
ATOM     26  C   UNL     1       7.277   5.235  18.519  0.00  0.00    +0.000 A 
ATOM     27  C   UNL     1       8.084   6.201  19.123  0.00  0.00    +0.000 A 
ATOM     28  C   UNL     1       8.204   7.473  18.560  0.00  0.00    +0.000 A 
ATOM     29  C   UNL     1       7.516   7.785  17.392  0.00  0.00    +0.000 A 
ATOM     30  C   UNL     1       6.708   6.826  16.790  0.00  0.00    +0.000 A 
ENDBRANCH  24  25
ENDBRANCH  22  24
ENDBRANCH   1  22
TORSDOF 7
ENDMDL
MODEL 8
REMARK VINA RESULT:      -7.4      2.390      3.168
REMARK  Name = 
REMARK  8 active torsions:
REMARK  status: ('A' for Active; 'I' for Inactive)
REMARK    1  A    between atoms: C_1  and  C_2
REMARK    2  A    between atoms: C_2  and  O_3
REMARK    3  A    between atoms: C_2  and  C_21
REMARK    4  A    between atoms: O_3  and  C_4
REMARK    5  A    between atoms: C_6  and  C_7
REMARK    6  A    between atoms: N_9  and  C_10
REMARK    7  A    between atoms: C_13  and  O_14
REMARK    8  A    between atoms: C_19  and  N_20
REMARK                            x       y       z     vdW  Elec       q    Type
REMARK                         _______ _______ _______ _____ _____    ______ ____
ROOT
ATOM      1  C   UNL     1       3.838   4.480  19.580  0.00  0.00    +0.000 A 
ATOM      2  C   UNL     1       3.456   5.815  19.539  0.00  0.00    +0.000 A 
ATOM      3  C   UNL     1       2.222   6.237  20.049  0.00  0.00    +0.000 A 
ATOM      4  C   UNL     1       1.351   5.283  20.583  0.00  0.00    +0.000 A 
ATOM      5  C   UNL     1       1.709   3.930  20.589  0.00  0.00    +0.000 A 
ATOM      6  C   UNL     1       2.936   3.512  20.058  0.00  0.00    +0.000 A 
ENDROOT
BRANCH   3   7
ATOM      7  C   UNL     1       1.838   7.684  20.082  0.00  0.00    +0.000 C 
ATOM      8  O   UNL     1       2.178   8.429  19.170  0.00  0.00    +0.000 OA
ATOM      9  N   UNL     1       1.093   8.113  21.169  0.00  0.00    +0.000 N 
ATOM     10  H   UNL     1       0.653   7.443  21.776  0.00  0.00    +0.000 HD
BRANCH   9  11
ATOM     11  C   UNL     1       0.615   9.475  21.300  0.00  0.00    +0.000 C 
ATOM     12  C   UNL     1      -0.314   9.821  20.130  0.00  0.00    +0.000 C 
ATOM     13  C   UNL     1      -0.876  11.232  20.267  0.00  0.00    +0.000 C 
ATOM     14  C   UNL     1      -1.562  11.442  21.618  0.00  0.00    +0.000 C 
ATOM     15  C   UNL     1      -0.653  11.064  22.786  0.00  0.00    +0.000 C 
ATOM     16  C   UNL     1      -0.120   9.643  22.637  0.00  0.00    +0.000 C 
BRANCH  14  17
ATOM     17  O   UNL     1      -1.956  12.803  21.746  0.00  0.00    +0.000 OA
ATOM     18  H   UNL     1      -2.803  12.917  21.280  0.00  0.00    +0.000 HD
ENDBRANCH  14  17
ENDBRANCH   9  11
ENDBRANCH   3   7
BRANCH   6  19
ATOM     19  N   UNL     1       3.333   2.172  20.215  0.00  0.00    +0.000 N 
ATOM     20  H   UNL     1       3.393   1.651  19.347  0.00  0.00    +0.000 HD
ATOM     21  H   UNL     1       4.173   2.095  20.787  0.00  0.00    +0.000 HD
ENDBRANCH   6  19
BRANCH   1  22
ATOM     22  O   UNL     1       5.116   4.066  19.332  0.00  0.00    +0.000 OA
BRANCH  22  24
ATOM     23  C   UNL     1       4.727   4.161  16.838  0.00  0.00    +0.000 C 
ATOM     24  C   UNL     1       5.702   4.111  18.023  0.00  0.00    +0.000 C 
BRANCH  24  25
ATOM     25  C   UNL     1       6.467   5.428  18.012  0.00  0.00    +0.000 A 
ATOM     26  C   UNL     1       7.530   5.654  18.891  0.00  0.00    +0.000 A 
ATOM     27  C   UNL     1       8.241   6.855  18.836  0.00  0.00    +0.000 A 
ATOM     28  C   UNL     1       7.900   7.835  17.904  0.00  0.00    +0.000 A 
ATOM     29  C   UNL     1       6.845   7.621  17.022  0.00  0.00    +0.000 A 
ATOM     30  C   UNL     1       6.133   6.427  17.076  0.00  0.00    +0.000 A 
ENDBRANCH  24  25
ENDBRANCH  22  24
ENDBRANCH   1  22
TORSDOF 7
ENDMDL
MODEL 9
REMARK VINA RESULT:      -7.4      2.469      3.246
REMARK  Name = 
REMARK  8 active torsions:
REMARK  status: ('A' for Active; 'I' for Inactive)
REMARK    1  A    between atoms: C_1  and  C_2
REMARK    2  A    between atoms: C_2  and  O_3
REMARK    3  A    between atoms: C_2  and  C_21
REMARK    4  A    between atoms: O_3  and  C_4
REMARK    5  A    between atoms: C_6  and  C_7
REMARK    6  A    between atoms: N_9  and  C_10
REMARK    7  A    between atoms: C_13  and  O_14
REMARK    8  A    between atoms: C_19  and  N_20
REMARK                            x       y       z     vdW  Elec       q    Type
REMARK                         _______ _______ _______ _____ _____    ______ ____
ROOT
ATOM      1  C   UNL     1       3.612   4.689  19.527  0.00  0.00    +0.000 A 
ATOM      2  C   UNL     1       3.241   6.014  19.722  0.00  0.00    +0.000 A 
ATOM      3  C   UNL     1       1.978   6.353  20.223  0.00  0.00    +0.000 A 
ATOM      4  C   UNL     1       1.067   5.330  20.503  0.00  0.00    +0.000 A 
ATOM      5  C   UNL     1       1.415   3.996  20.267  0.00  0.00    +0.000 A 
ATOM      6  C   UNL     1       2.673   3.665  19.746  0.00  0.00    +0.000 A 
ENDROOT
BRANCH   3   7
ATOM      7  C   UNL     1       1.603   7.774  20.512  0.00  0.00    +0.000 C 
ATOM      8  O   UNL     1       1.630   8.192  21.663  0.00  0.00    +0.000 OA
ATOM      9  N   UNL     1       1.241   8.561  19.430  0.00  0.00    +0.000 N 
ATOM     10  H   UNL     1       1.437   8.254  18.493  0.00  0.00    +0.000 HD
BRANCH   9  11
ATOM     11  C   UNL     1       0.903   9.964  19.563  0.00  0.00    +0.000 C 
ATOM     12  C   UNL     1       1.581  10.776  18.454  0.00  0.00    +0.000 C 
ATOM     13  C   UNL     1       1.202  12.250  18.534  0.00  0.00    +0.000 C 
ATOM     14  C   UNL     1      -0.314  12.449  18.537  0.00  0.00    +0.000 C 
ATOM     15  C   UNL     1      -0.999  11.614  19.618  0.00  0.00    +0.000 C 
ATOM     16  C   UNL     1      -0.621  10.141  19.503  0.00  0.00    +0.000 C 
BRANCH  14  17
ATOM     17  O   UNL     1      -0.615  13.825  18.740  0.00  0.00    +0.000 OA
ATOM     18  H   UNL     1      -1.447  14.024  18.275  0.00  0.00    +0.000 HD
ENDBRANCH  14  17
ENDBRANCH   9  11
ENDBRANCH   3   7
BRANCH   6  19
ATOM     19  N   UNL     1       3.050   2.312  19.664  0.00  0.00    +0.000 N 
ATOM     20  H   UNL     1       3.305   1.896  20.553  0.00  0.00    +0.000 HD
ATOM     21  H   UNL     1       2.365   1.763  19.147  0.00  0.00    +0.000 HD
ENDBRANCH   6  19
BRANCH   1  22
ATOM     22  O   UNL     1       4.901   4.307  19.287  0.00  0.00    +0.000 OA
BRANCH  22  24
ATOM     23  C   UNL     1       4.483   4.399  16.797  0.00  0.00    +0.000 C 
ATOM     24  C   UNL     1       5.469   4.289  17.970  0.00  0.00    +0.000 C 
BRANCH  24  25
ATOM     25  C   UNL     1       6.333   5.543  17.929  0.00  0.00    +0.000 A 
ATOM     26  C   UNL     1       6.009   6.618  17.096  0.00  0.00    +0.000 A 
ATOM     27  C   UNL     1       6.794   7.772  17.105  0.00  0.00    +0.000 A 
ATOM     28  C   UNL     1       7.904   7.864  17.946  0.00  0.00    +0.000 A 
ATOM     29  C   UNL     1       8.235   6.803  18.781  0.00  0.00    +0.000 A 
ATOM     30  C   UNL     1       7.456   5.650  18.773  0.00  0.00    +0.000 A 
ENDBRANCH  24  25
ENDBRANCH  22  24
ENDBRANCH   1  22
TORSDOF 7
ENDMDL
