MODEL 1
REMARK VINA RESULT:      -7.9      0.000      0.000
REMARK  Name = 
REMARK  8 active torsions:
REMARK  status: ('A' for Active; 'I' for Inactive)
REMARK    1  A    between atoms: C_1  and  O_2
REMARK    2  A    between atoms: O_2  and  C_3
REMARK    3  A    between atoms: C_6  and  C_7
REMARK    4  A    between atoms: N_9  and  C_10
REMARK    5  A    between atoms: C_16  and  C_17
REMARK    6  A    between atoms: C_20  and  C_21
REMARK    7  A    between atoms: C_26  and  O_27
REMARK    8  A    between atoms: O_27  and  C_28
REMARK                            x       y       z     vdW  Elec       q    Type
REMARK                         _______ _______ _______ _____ _____    ______ ____
ROOT
ATOM      1  C   UNL     1       1.340  13.175  19.442  0.00  0.00    +0.000 C 
ATOM      2  N   UNL     1       0.382  12.888  18.615  0.00  0.00    +0.000 NA
ATOM      3  N   UNL     1      -0.374  11.926  19.202  0.00  0.00    +0.000 N 
ATOM      4  C   UNL     1       0.174  11.415  20.466  0.00  0.00    +0.000 C 
ATOM      5  C   UNL     1       1.367  12.357  20.703  0.00  0.00    +0.000 C 
ENDROOT
BRANCH   1   9
ATOM      6  C   UNL     1       4.215  16.286  18.785  0.00  0.00    +0.000 A 
ATOM      7  C   UNL     1       3.601  16.130  20.028  0.00  0.00    +0.000 A 
ATOM      8  C   UNL     1       2.665  15.115  20.231  0.00  0.00    +0.000 A 
ATOM      9  C   UNL     1       2.322  14.253  19.184  0.00  0.00    +0.000 A 
ATOM     10  C   UNL     1       2.926  14.417  17.934  0.00  0.00    +0.000 A 
ATOM     11  C   UNL     1       3.869  15.434  17.736  0.00  0.00    +0.000 A 
BRANCH   6  13
ATOM     12  C   UNL     1       6.457  17.008  19.003  0.00  0.00    +0.000 C 
ATOM     13  O   UNL     1       5.102  17.323  18.705  0.00  0.00    +0.000 OA
ENDBRANCH   6  13
ENDBRANCH   1   9
BRANCH   3  14
ATOM     14  C   UNL     1      -1.431  11.338  18.515  0.00  0.00    +0.000 A 
ATOM     15  C   UNL     1      -2.757  11.718  18.776  0.00  0.00    +0.000 A 
ATOM     16  C   UNL     1      -3.832  11.128  18.107  0.00  0.00    +0.000 A 
ATOM     17  C   UNL     1      -3.600  10.113  17.185  0.00  0.00    +0.000 A 
ATOM     18  C   UNL     1      -2.295   9.707  16.920  0.00  0.00    +0.000 A 
ATOM     19  C   UNL     1      -1.221  10.326  17.570  0.00  0.00    +0.000 A 
ENDBRANCH   3  14
BRANCH   4  20
ATOM     20  C   UNL     1       0.624   9.980  20.486  0.00  0.00    +0.000 A 
ATOM     21  N   UNL     1       0.276   9.110  21.445  0.00  0.00    +0.000 NA
ATOM     22  O   UNL     1       0.887   7.919  21.029  0.00  0.00    +0.000 OA
ATOM     23  C   UNL     1       1.560   8.203  19.869  0.00  0.00    +0.000 A 
ATOM     24  N   UNL     1       1.460   9.465  19.526  0.00  0.00    +0.000 NA
BRANCH  23  25
ATOM     25  C   UNL     1       2.351   7.130  19.285  0.00  0.00    +0.000 A 
ATOM     26  C   UNL     1       3.130   7.479  18.154  0.00  0.00    +0.000 A 
ATOM     27  C   UNL     1       3.880   6.537  17.449  0.00  0.00    +0.000 A 
ATOM     28  C   UNL     1       3.868   5.213  17.862  0.00  0.00    +0.000 A 
ATOM     29  C   UNL     1       3.118   4.852  18.981  0.00  0.00    +0.000 A 
ATOM     30  C   UNL     1       2.351   5.788  19.706  0.00  0.00    +0.000 A 
BRANCH  30  31
ATOM     31  O   UNL     1       1.745   5.164  20.761  0.00  0.00    +0.000 OA
ATOM     32  C   UNL     1       1.132   3.894  20.637  0.00  0.00    +0.000 C 
ENDBRANCH  30  31
ENDBRANCH  23  25
ENDBRANCH   4  20
TORSDOF 6
ENDMDL
MODEL 2
REMARK VINA RESULT:      -7.7      2.324      6.110
REMARK  Name = 
REMARK  8 active torsions:
REMARK  status: ('A' for Active; 'I' for Inactive)
REMARK    1  A    between atoms: C_1  and  O_2
REMARK    2  A    between atoms: O_2  and  C_3
REMARK    3  A    between atoms: C_6  and  C_7
REMARK    4  A    between atoms: N_9  and  C_10
REMARK    5  A    between atoms: C_16  and  C_17
REMARK    6  A    between atoms: C_20  and  C_21
REMARK    7  A    between atoms: C_26  and  O_27
REMARK    8  A    between atoms: O_27  and  C_28
REMARK                            x       y       z     vdW  Elec       q    Type
REMARK                         _______ _______ _______ _____ _____    ______ ____
ROOT
ATOM      1  C   UNL     1      -2.039  11.685  18.777  0.00  0.00    +0.000 C 
ATOM      2  N   UNL     1      -1.173  12.549  19.208  0.00  0.00    +0.000 NA
ATOM      3  N   UNL     1       0.038  12.172  18.725  0.00  0.00    +0.000 N 
ATOM      4  C   UNL     1       0.031  10.882  18.021  0.00  0.00    +0.000 C 
ATOM      5  C   UNL     1      -1.470  10.549  17.973  0.00  0.00    +0.000 C 
ENDROOT
BRANCH   1   9
ATOM      6  C   UNL     1      -6.233  12.163  19.532  0.00  0.00    +0.000 A 
ATOM      7  C   UNL     1      -5.284  12.766  20.358  0.00  0.00    +0.000 A 
ATOM      8  C   UNL     1      -3.920  12.602  20.105  0.00  0.00    +0.000 A 
ATOM      9  C   UNL     1      -3.493  11.818  19.027  0.00  0.00    +0.000 A 
ATOM     10  C   UNL     1      -4.442  11.203  18.207  0.00  0.00    +0.000 A 
ATOM     11  C   UNL     1      -5.809  11.374  18.462  0.00  0.00    +0.000 A 
BRANCH   6  13
ATOM     12  C   UNL     1      -7.826  12.265  21.276  0.00  0.00    +0.000 C 
ATOM     13  O   UNL     1      -7.533  12.384  19.889  0.00  0.00    +0.000 OA
ENDBRANCH   6  13
ENDBRANCH   1   9
BRANCH   3  14
ATOM     14  C   UNL     1       1.193  12.853  19.096  0.00  0.00    +0.000 A 
ATOM     15  C   UNL     1       1.448  13.152  20.443  0.00  0.00    +0.000 A 
ATOM     16  C   UNL     1       2.595  13.849  20.832  0.00  0.00    +0.000 A 
ATOM     17  C   UNL     1       3.495  14.293  19.869  0.00  0.00    +0.000 A 
ATOM     18  C   UNL     1       3.257  14.021  18.525  0.00  0.00    +0.000 A 
ATOM     19  C   UNL     1       2.122  13.295  18.146  0.00  0.00    +0.000 A 
ENDBRANCH   3  14
BRANCH   4  20
ATOM     20  C   UNL     1       0.801   9.754  18.653  0.00  0.00    +0.000 A 
ATOM     21  N   UNL     1       0.813   9.515  19.972  0.00  0.00    +0.000 NA
ATOM     22  O   UNL     1       1.616   8.371  20.079  0.00  0.00    +0.000 OA
ATOM     23  C   UNL     1       2.021   8.051  18.808  0.00  0.00    +0.000 A 
ATOM     24  N   UNL     1       1.579   8.900  17.911  0.00  0.00    +0.000 NA
BRANCH  23  25
ATOM     25  C   UNL     1       2.943   6.934  18.672  0.00  0.00    +0.000 A 
ATOM     26  C   UNL     1       3.874   7.024  17.606  0.00  0.00    +0.000 A 
ATOM     27  C   UNL     1       4.768   5.994  17.312  0.00  0.00    +0.000 A 
ATOM     28  C   UNL     1       4.753   4.841  18.082  0.00  0.00    +0.000 A 
ATOM     29  C   UNL     1       3.854   4.739  19.143  0.00  0.00    +0.000 A 
ATOM     30  C   UNL     1       2.940   5.766  19.457  0.00  0.00    +0.000 A 
BRANCH  30  31
ATOM     31  O   UNL     1       2.206   5.408  20.553  0.00  0.00    +0.000 OA
ATOM     32  C   UNL     1       1.204   4.409  20.497  0.00  0.00    +0.000 C 
ENDBRANCH  30  31
ENDBRANCH  23  25
ENDBRANCH   4  20
TORSDOF 6
ENDMDL
MODEL 3
REMARK VINA RESULT:      -7.6      2.621      6.121
REMARK  Name = 
REMARK  8 active torsions:
REMARK  status: ('A' for Active; 'I' for Inactive)
REMARK    1  A    between atoms: C_1  and  O_2
REMARK    2  A    between atoms: O_2  and  C_3
REMARK    3  A    between atoms: C_6  and  C_7
REMARK    4  A    between atoms: N_9  and  C_10
REMARK    5  A    between atoms: C_16  and  C_17
REMARK    6  A    between atoms: C_20  and  C_21
REMARK    7  A    between atoms: C_26  and  O_27
REMARK    8  A    between atoms: O_27  and  C_28
REMARK                            x       y       z     vdW  Elec       q    Type
REMARK                         _______ _______ _______ _____ _____    ______ ____
ROOT
ATOM      1  C   UNL     1      -2.111  12.229  19.713  0.00  0.00    +0.000 C 
ATOM      2  N   UNL     1      -1.121  13.036  19.944  0.00  0.00    +0.000 NA
ATOM      3  N   UNL     1      -0.059  12.574  19.237  0.00  0.00    +0.000 N 
ATOM      4  C   UNL     1      -0.291  11.283  18.576  0.00  0.00    +0.000 C 
ATOM      5  C   UNL     1      -1.790  11.052  18.835  0.00  0.00    +0.000 C 
ENDROOT
BRANCH   1   9
ATOM      6  C   UNL     1      -6.087  12.837  21.196  0.00  0.00    +0.000 A 
ATOM      7  C   UNL     1      -5.864  12.526  19.855  0.00  0.00    +0.000 A 
ATOM      8  C   UNL     1      -4.564  12.331  19.381  0.00  0.00    +0.000 A 
ATOM      9  C   UNL     1      -3.472  12.463  20.246  0.00  0.00    +0.000 A 
ATOM     10  C   UNL     1      -3.694  12.789  21.587  0.00  0.00    +0.000 A 
ATOM     11  C   UNL     1      -5.000  12.978  22.059  0.00  0.00    +0.000 A 
BRANCH   6  13
ATOM     12  C   UNL     1      -7.690  12.985  22.929  0.00  0.00    +0.000 C 
ATOM     13  O   UNL     1      -7.398  13.019  21.536  0.00  0.00    +0.000 OA
ENDBRANCH   6  13
ENDBRANCH   1   9
BRANCH   3  14
ATOM     14  C   UNL     1       1.189  13.177  19.356  0.00  0.00    +0.000 A 
ATOM     15  C   UNL     1       1.682  13.566  20.611  0.00  0.00    +0.000 A 
ATOM     16  C   UNL     1       2.926  14.187  20.747  0.00  0.00    +0.000 A 
ATOM     17  C   UNL     1       3.688  14.465  19.617  0.00  0.00    +0.000 A 
ATOM     18  C   UNL     1       3.214  14.102  18.360  0.00  0.00    +0.000 A 
ATOM     19  C   UNL     1       1.982  13.452  18.234  0.00  0.00    +0.000 A 
ENDBRANCH   3  14
BRANCH   4  20
ATOM     20  C   UNL     1       0.515  10.110  19.063  0.00  0.00    +0.000 A 
ATOM     21  N   UNL     1       0.638   9.785  20.358  0.00  0.00    +0.000 NA
ATOM     22  O   UNL     1       1.431   8.629  20.320  0.00  0.00    +0.000 OA
ATOM     23  C   UNL     1       1.720   8.389  19.002  0.00  0.00    +0.000 A 
ATOM     24  N   UNL     1       1.214   9.299  18.203  0.00  0.00    +0.000 NA
BRANCH  23  25
ATOM     25  C   UNL     1       2.611   7.275  18.714  0.00  0.00    +0.000 A 
ATOM     26  C   UNL     1       3.513   7.465  17.637  0.00  0.00    +0.000 A 
ATOM     27  C   UNL     1       4.374   6.457  17.203  0.00  0.00    +0.000 A 
ATOM     28  C   UNL     1       4.352   5.225  17.839  0.00  0.00    +0.000 A 
ATOM     29  C   UNL     1       3.481   5.023  18.909  0.00  0.00    +0.000 A 
ATOM     30  C   UNL     1       2.601   6.027  19.362  0.00  0.00    +0.000 A 
BRANCH  30  31
ATOM     31  O   UNL     1       1.889   5.563  20.433  0.00  0.00    +0.000 OA
ATOM     32  C   UNL     1       1.203   4.324  20.404  0.00  0.00    +0.000 C 
ENDBRANCH  30  31
ENDBRANCH  23  25
ENDBRANCH   4  20
TORSDOF 6
ENDMDL
MODEL 4
REMARK VINA RESULT:      -7.6      2.684      8.290
REMARK  Name = 
REMARK  8 active torsions:
REMARK  status: ('A' for Active; 'I' for Inactive)
REMARK    1  A    between atoms: C_1  and  O_2
REMARK    2  A    between atoms: O_2  and  C_3
REMARK    3  A    between atoms: C_6  and  C_7
REMARK    4  A    between atoms: N_9  and  C_10
REMARK    5  A    between atoms: C_16  and  C_17
REMARK    6  A    between atoms: C_20  and  C_21
REMARK    7  A    between atoms: C_26  and  O_27
REMARK    8  A    between atoms: O_27  and  C_28
REMARK                            x       y       z     vdW  Elec       q    Type
REMARK                         _______ _______ _______ _____ _____    ______ ____
ROOT
ATOM      1  C   UNL     1       2.152   8.099  18.452  0.00  0.00    +0.000 C 
ATOM      2  N   UNL     1       1.717   8.203  19.670  0.00  0.00    +0.000 NA
ATOM      3  N   UNL     1       0.868   9.261  19.700  0.00  0.00    +0.000 N 
ATOM      4  C   UNL     1       0.813  10.025  18.447  0.00  0.00    +0.000 C 
ATOM      5  C   UNL     1       1.667   9.160  17.504  0.00  0.00    +0.000 C 
ENDROOT
BRANCH   1   9
ATOM      6  C   UNL     1       4.791   4.963  17.194  0.00  0.00    +0.000 A 
ATOM      7  C   UNL     1       5.089   6.300  16.926  0.00  0.00    +0.000 A 
ATOM      8  C   UNL     1       4.222   7.314  17.339  0.00  0.00    +0.000 A 
ATOM      9  C   UNL     1       3.037   6.996  18.012  0.00  0.00    +0.000 A 
ATOM     10  C   UNL     1       2.730   5.657  18.269  0.00  0.00    +0.000 A 
ATOM     11  C   UNL     1       3.605   4.644  17.857  0.00  0.00    +0.000 A 
BRANCH   6  13
ATOM     12  C   UNL     1       7.033   4.551  16.565  0.00  0.00    +0.000 C 
ATOM     13  O   UNL     1       5.707   4.062  16.728  0.00  0.00    +0.000 OA
ENDBRANCH   6  13
ENDBRANCH   1   9
BRANCH   3  14
ATOM     14  C   UNL     1       0.309   9.688  20.900  0.00  0.00    +0.000 A 
ATOM     15  C   UNL     1       0.668   9.084  22.115  0.00  0.00    +0.000 A 
ATOM     16  C   UNL     1       0.106   9.490  23.328  0.00  0.00    +0.000 A 
ATOM     17  C   UNL     1      -0.861  10.491  23.342  0.00  0.00    +0.000 A 
ATOM     18  C   UNL     1      -1.245  11.095  22.149  0.00  0.00    +0.000 A 
ATOM     19  C   UNL     1      -0.653  10.706  20.941  0.00  0.00    +0.000 A 
ENDBRANCH   3  14
BRANCH   4  20
ATOM     20  C   UNL     1       1.333  11.436  18.482  0.00  0.00    +0.000 A 
ATOM     21  N   UNL     1       2.589  11.770  18.152  0.00  0.00    +0.000 NA
ATOM     22  O   UNL     1       2.596  13.164  18.300  0.00  0.00    +0.000 OA
ATOM     23  C   UNL     1       1.343  13.524  18.726  0.00  0.00    +0.000 A 
ATOM     24  N   UNL     1       0.553  12.490  18.892  0.00  0.00    +0.000 NA
BRANCH  23  25
ATOM     25  C   UNL     1       1.130  14.930  19.033  0.00  0.00    +0.000 A 
ATOM     26  C   UNL     1      -0.068  15.499  18.531  0.00  0.00    +0.000 A 
ATOM     27  C   UNL     1      -0.369  16.852  18.686  0.00  0.00    +0.000 A 
ATOM     28  C   UNL     1       0.527  17.675  19.350  0.00  0.00    +0.000 A 
ATOM     29  C   UNL     1       1.705  17.132  19.863  0.00  0.00    +0.000 A 
ATOM     30  C   UNL     1       2.030  15.767  19.716  0.00  0.00    +0.000 A 
BRANCH  30  31
ATOM     31  O   UNL     1       3.221  15.511  20.335  0.00  0.00    +0.000 OA
ATOM     32  C   UNL     1       3.305  15.207  21.716  0.00  0.00    +0.000 C 
ENDBRANCH  30  31
ENDBRANCH  23  25
ENDBRANCH   4  20
TORSDOF 6
ENDMDL
MODEL 5
REMARK VINA RESULT:      -7.6      2.501      8.469
REMARK  Name = 
REMARK  8 active torsions:
REMARK  status: ('A' for Active; 'I' for Inactive)
REMARK    1  A    between atoms: C_1  and  O_2
REMARK    2  A    between atoms: O_2  and  C_3
REMARK    3  A    between atoms: C_6  and  C_7
REMARK    4  A    between atoms: N_9  and  C_10
REMARK    5  A    between atoms: C_16  and  C_17
REMARK    6  A    between atoms: C_20  and  C_21
REMARK    7  A    between atoms: C_26  and  O_27
REMARK    8  A    between atoms: O_27  and  C_28
REMARK                            x       y       z     vdW  Elec       q    Type
REMARK                         _______ _______ _______ _____ _____    ______ ____
ROOT
ATOM      1  C   UNL     1       2.118   8.239  18.464  0.00  0.00    +0.000 C 
ATOM      2  N   UNL     1       1.673   8.324  19.679  0.00  0.00    +0.000 NA
ATOM      3  N   UNL     1       0.829   9.386  19.720  0.00  0.00    +0.000 N 
ATOM      4  C   UNL     1       0.789  10.172  18.479  0.00  0.00    +0.000 C 
ATOM      5  C   UNL     1       1.647   9.318  17.529  0.00  0.00    +0.000 C 
ENDROOT
BRANCH   1   9
ATOM      6  C   UNL     1       4.596   5.001  17.139  0.00  0.00    +0.000 A 
ATOM      7  C   UNL     1       3.413   4.757  17.837  0.00  0.00    +0.000 A 
ATOM      8  C   UNL     1       2.614   5.819  18.266  0.00  0.00    +0.000 A 
ATOM      9  C   UNL     1       3.002   7.140  18.012  0.00  0.00    +0.000 A 
ATOM     10  C   UNL     1       4.193   7.386  17.325  0.00  0.00    +0.000 A 
ATOM     11  C   UNL     1       4.989   6.317  16.892  0.00  0.00    +0.000 A 
BRANCH   6  13
ATOM     12  C   UNL     1       6.011   3.960  15.556  0.00  0.00    +0.000 C 
ATOM     13  O   UNL     1       5.299   3.884  16.785  0.00  0.00    +0.000 OA
ENDBRANCH   6  13
ENDBRANCH   1   9
BRANCH   3  14
ATOM     14  C   UNL     1       0.261   9.796  20.921  0.00  0.00    +0.000 A 
ATOM     15  C   UNL     1       0.578   9.145  22.124  0.00  0.00    +0.000 A 
ATOM     16  C   UNL     1       0.006   9.533  23.338  0.00  0.00    +0.000 A 
ATOM     17  C   UNL     1      -0.928  10.564  23.365  0.00  0.00    +0.000 A 
ATOM     18  C   UNL     1      -1.270  11.215  22.184  0.00  0.00    +0.000 A 
ATOM     19  C   UNL     1      -0.668  10.843  20.976  0.00  0.00    +0.000 A 
ENDBRANCH   3  14
BRANCH   4  20
ATOM     20  C   UNL     1       1.316  11.579  18.543  0.00  0.00    +0.000 A 
ATOM     21  N   UNL     1       2.621  11.878  18.602  0.00  0.00    +0.000 NA
ATOM     22  O   UNL     1       2.625  13.280  18.609  0.00  0.00    +0.000 OA
ATOM     23  C   UNL     1       1.314  13.681  18.574  0.00  0.00    +0.000 A 
ATOM     24  N   UNL     1       0.480  12.668  18.576  0.00  0.00    +0.000 NA
BRANCH  23  25
ATOM     25  C   UNL     1       1.059  15.110  18.658  0.00  0.00    +0.000 A 
ATOM     26  C   UNL     1      -0.236  15.484  19.098  0.00  0.00    +0.000 A 
ATOM     27  C   UNL     1      -0.644  16.817  19.158  0.00  0.00    +0.000 A 
ATOM     28  C   UNL     1       0.239  17.815  18.775  0.00  0.00    +0.000 A 
ATOM     29  C   UNL     1       1.522  17.469  18.352  0.00  0.00    +0.000 A 
ATOM     30  C   UNL     1       1.954  16.128  18.282  0.00  0.00    +0.000 A 
BRANCH  30  31
ATOM     31  O   UNL     1       3.255  16.088  17.862  0.00  0.00    +0.000 OA
ATOM     32  C   UNL     1       4.324  16.544  18.671  0.00  0.00    +0.000 C 
ENDBRANCH  30  31
ENDBRANCH  23  25
ENDBRANCH   4  20
TORSDOF 6
ENDMDL
MODEL 6
REMARK VINA RESULT:      -7.5      2.624      6.095
REMARK  Name = 
REMARK  8 active torsions:
REMARK  status: ('A' for Active; 'I' for Inactive)
REMARK    1  A    between atoms: C_1  and  O_2
REMARK    2  A    between atoms: O_2  and  C_3
REMARK    3  A    between atoms: C_6  and  C_7
REMARK    4  A    between atoms: N_9  and  C_10
REMARK    5  A    between atoms: C_16  and  C_17
REMARK    6  A    between atoms: C_20  and  C_21
REMARK    7  A    between atoms: C_26  and  O_27
REMARK    8  A    between atoms: O_27  and  C_28
REMARK                            x       y       z     vdW  Elec       q    Type
REMARK                         _______ _______ _______ _____ _____    ______ ____
ROOT
ATOM      1  C   UNL     1      -2.102  12.296  19.740  0.00  0.00    +0.000 C 
ATOM      2  N   UNL     1      -1.105  13.096  19.965  0.00  0.00    +0.000 NA
ATOM      3  N   UNL     1      -0.051  12.626  19.252  0.00  0.00    +0.000 N 
ATOM      4  C   UNL     1      -0.296  11.337  18.592  0.00  0.00    +0.000 C 
ATOM      5  C   UNL     1      -1.794  11.117  18.860  0.00  0.00    +0.000 C 
ENDROOT
BRANCH   1   9
ATOM      6  C   UNL     1      -5.996  13.080  21.353  0.00  0.00    +0.000 A 
ATOM      7  C   UNL     1      -4.847  13.337  22.101  0.00  0.00    +0.000 A 
ATOM      8  C   UNL     1      -3.583  13.077  21.567  0.00  0.00    +0.000 A 
ATOM      9  C   UNL     1      -3.459  12.539  20.281  0.00  0.00    +0.000 A 
ATOM     10  C   UNL     1      -4.610  12.268  19.536  0.00  0.00    +0.000 A 
ATOM     11  C   UNL     1      -5.875  12.535  20.074  0.00  0.00    +0.000 A 
BRANCH   6  13
ATOM     12  C   UNL     1      -7.916  12.238  22.448  0.00  0.00    +0.000 C 
ATOM     13  O   UNL     1      -7.174  13.361  21.987  0.00  0.00    +0.000 OA
ENDBRANCH   6  13
ENDBRANCH   1   9
BRANCH   3  14
ATOM     14  C   UNL     1       1.202  13.221  19.362  0.00  0.00    +0.000 A 
ATOM     15  C   UNL     1       1.984  13.465  18.223  0.00  0.00    +0.000 A 
ATOM     16  C   UNL     1       3.250  14.048  18.316  0.00  0.00    +0.000 A 
ATOM     17  C   UNL     1       3.775  14.366  19.565  0.00  0.00    +0.000 A 
ATOM     18  C   UNL     1       3.025  14.120  20.711  0.00  0.00    +0.000 A 
ATOM     19  C   UNL     1       1.744  13.567  20.607  0.00  0.00    +0.000 A 
ENDBRANCH   3  14
BRANCH   4  20
ATOM     20  C   UNL     1       0.505  10.158  19.075  0.00  0.00    +0.000 A 
ATOM     21  N   UNL     1       0.631   9.830  20.369  0.00  0.00    +0.000 NA
ATOM     22  O   UNL     1       1.416   8.670  20.327  0.00  0.00    +0.000 OA
ATOM     23  C   UNL     1       1.700   8.431  19.006  0.00  0.00    +0.000 A 
ATOM     24  N   UNL     1       1.196   9.344  18.211  0.00  0.00    +0.000 NA
BRANCH  23  25
ATOM     25  C   UNL     1       2.583   7.312  18.714  0.00  0.00    +0.000 A 
ATOM     26  C   UNL     1       3.496   7.505  17.646  0.00  0.00    +0.000 A 
ATOM     27  C   UNL     1       4.351   6.494  17.208  0.00  0.00    +0.000 A 
ATOM     28  C   UNL     1       4.313   5.256  17.831  0.00  0.00    +0.000 A 
ATOM     29  C   UNL     1       3.432   5.050  18.892  0.00  0.00    +0.000 A 
ATOM     30  C   UNL     1       2.557   6.057  19.349  0.00  0.00    +0.000 A 
BRANCH  30  31
ATOM     31  O   UNL     1       1.832   5.588  20.409  0.00  0.00    +0.000 OA
ATOM     32  C   UNL     1       1.389   4.245  20.486  0.00  0.00    +0.000 C 
ENDBRANCH  30  31
ENDBRANCH  23  25
ENDBRANCH   4  20
TORSDOF 6
ENDMDL
MODEL 7
REMARK VINA RESULT:      -7.5      2.492      8.365
REMARK  Name = 
REMARK  8 active torsions:
REMARK  status: ('A' for Active; 'I' for Inactive)
REMARK    1  A    between atoms: C_1  and  O_2
REMARK    2  A    between atoms: O_2  and  C_3
REMARK    3  A    between atoms: C_6  and  C_7
REMARK    4  A    between atoms: N_9  and  C_10
REMARK    5  A    between atoms: C_16  and  C_17
REMARK    6  A    between atoms: C_20  and  C_21
REMARK    7  A    between atoms: C_26  and  O_27
REMARK    8  A    between atoms: O_27  and  C_28
REMARK                            x       y       z     vdW  Elec       q    Type
REMARK                         _______ _______ _______ _____ _____    ______ ____
ROOT
ATOM      1  C   UNL     1       2.177   8.082  18.522  0.00  0.00    +0.000 C 
ATOM      2  N   UNL     1       1.706   8.197  19.726  0.00  0.00    +0.000 NA
ATOM      3  N   UNL     1       0.853   9.252  19.719  0.00  0.00    +0.000 N 
ATOM      4  C   UNL     1       0.832  10.002  18.456  0.00  0.00    +0.000 C 
ATOM      5  C   UNL     1       1.716   9.130  17.548  0.00  0.00    +0.000 C 
ENDROOT
BRANCH   1   9
ATOM      6  C   UNL     1       4.861   4.948  17.357  0.00  0.00    +0.000 A 
ATOM      7  C   UNL     1       5.031   6.249  16.883  0.00  0.00    +0.000 A 
ATOM      8  C   UNL     1       4.150   7.262  17.267  0.00  0.00    +0.000 A 
ATOM      9  C   UNL     1       3.078   6.978  18.120  0.00  0.00    +0.000 A 
ATOM     10  C   UNL     1       2.898   5.672  18.585  0.00  0.00    +0.000 A 
ATOM     11  C   UNL     1       3.788   4.660  18.201  0.00  0.00    +0.000 A 
BRANCH   6  13
ATOM     12  C   UNL     1       7.088   4.544  16.671  0.00  0.00    +0.000 C 
ATOM     13  O   UNL     1       5.776   4.042  16.900  0.00  0.00    +0.000 OA
ENDBRANCH   6  13
ENDBRANCH   1   9
BRANCH   3  14
ATOM     14  C   UNL     1       0.257   9.690  20.897  0.00  0.00    +0.000 A 
ATOM     15  C   UNL     1      -0.635  10.774  20.891  0.00  0.00    +0.000 A 
ATOM     16  C   UNL     1      -1.231  11.237  22.066  0.00  0.00    +0.000 A 
ATOM     17  C   UNL     1      -0.915  10.642  23.283  0.00  0.00    +0.000 A 
ATOM     18  C   UNL     1      -0.022   9.576  23.318  0.00  0.00    +0.000 A 
ATOM     19  C   UNL     1       0.547   9.096  22.132  0.00  0.00    +0.000 A 
ENDBRANCH   3  14
BRANCH   4  20
ATOM     20  C   UNL     1       1.346  11.416  18.491  0.00  0.00    +0.000 A 
ATOM     21  N   UNL     1       2.626  11.743  18.263  0.00  0.00    +0.000 NA
ATOM     22  O   UNL     1       2.618  13.141  18.365  0.00  0.00    +0.000 OA
ATOM     23  C   UNL     1       1.332  13.510  18.666  0.00  0.00    +0.000 A 
ATOM     24  N   UNL     1       0.531  12.479  18.795  0.00  0.00    +0.000 NA
BRANCH  23  25
ATOM     25  C   UNL     1       1.091  14.924  18.906  0.00  0.00    +0.000 A 
ATOM     26  C   UNL     1      -0.238  15.371  18.697  0.00  0.00    +0.000 A 
ATOM     27  C   UNL     1      -0.599  16.713  18.819  0.00  0.00    +0.000 A 
ATOM     28  C   UNL     1       0.369  17.648  19.154  0.00  0.00    +0.000 A 
ATOM     29  C   UNL     1       1.679  17.227  19.377  0.00  0.00    +0.000 A 
ATOM     30  C   UNL     1       2.066  15.876  19.257  0.00  0.00    +0.000 A 
BRANCH  30  31
ATOM     31  O   UNL     1       3.394  15.751  19.555  0.00  0.00    +0.000 OA
ATOM     32  C   UNL     1       4.332  16.773  19.268  0.00  0.00    +0.000 C 
ENDBRANCH  30  31
ENDBRANCH  23  25
ENDBRANCH   4  20
TORSDOF 6
ENDMDL
MODEL 8
REMARK VINA RESULT:      -7.5      0.998      1.745
REMARK  Name = 
REMARK  8 active torsions:
REMARK  status: ('A' for Active; 'I' for Inactive)
REMARK    1  A    between atoms: C_1  and  O_2
REMARK    2  A    between atoms: O_2  and  C_3
REMARK    3  A    between atoms: C_6  and  C_7
REMARK    4  A    between atoms: N_9  and  C_10
REMARK    5  A    between atoms: C_16  and  C_17
REMARK    6  A    between atoms: C_20  and  C_21
REMARK    7  A    between atoms: C_26  and  O_27
REMARK    8  A    between atoms: O_27  and  C_28
REMARK                            x       y       z     vdW  Elec       q    Type
REMARK                         _______ _______ _______ _____ _____    ______ ____
ROOT
ATOM      1  C   UNL     1       1.619  13.028  19.523  0.00  0.00    +0.000 C 
ATOM      2  N   UNL     1       0.695  12.742  18.659  0.00  0.00    +0.000 NA
ATOM      3  N   UNL     1      -0.208  11.950  19.290  0.00  0.00    +0.000 N 
ATOM      4  C   UNL     1       0.187  11.550  20.648  0.00  0.00    +0.000 C 
ATOM      5  C   UNL     1       1.462  12.382  20.871  0.00  0.00    +0.000 C 
ENDROOT
BRANCH   1   9
ATOM      6  C   UNL     1       4.905  15.663  18.718  0.00  0.00    +0.000 A 
ATOM      7  C   UNL     1       4.647  15.217  20.015  0.00  0.00    +0.000 A 
ATOM      8  C   UNL     1       3.573  14.360  20.266  0.00  0.00    +0.000 A 
ATOM      9  C   UNL     1       2.735  13.954  19.221  0.00  0.00    +0.000 A 
ATOM     10  C   UNL     1       2.985  14.410  17.924  0.00  0.00    +0.000 A 
ATOM     11  C   UNL     1       4.067  15.266  17.676  0.00  0.00    +0.000 A 
BRANCH   6  13
ATOM     12  C   UNL     1       7.231  15.889  18.355  0.00  0.00    +0.000 C 
ATOM     13  O   UNL     1       5.973  16.507  18.600  0.00  0.00    +0.000 OA
ENDBRANCH   6  13
ENDBRANCH   1   9
BRANCH   3  14
ATOM     14  C   UNL     1      -1.275  11.395  18.592  0.00  0.00    +0.000 A 
ATOM     15  C   UNL     1      -2.590  11.822  18.833  0.00  0.00    +0.000 A 
ATOM     16  C   UNL     1      -3.676  11.265  18.152  0.00  0.00    +0.000 A 
ATOM     17  C   UNL     1      -3.467  10.238  17.238  0.00  0.00    +0.000 A 
ATOM     18  C   UNL     1      -2.173   9.787  16.993  0.00  0.00    +0.000 A 
ATOM     19  C   UNL     1      -1.088  10.371  17.654  0.00  0.00    +0.000 A 
ENDBRANCH   3  14
BRANCH   4  20
ATOM     20  C   UNL     1       0.464  10.089  20.877  0.00  0.00    +0.000 A 
ATOM     21  N   UNL     1       0.007   9.408  21.938  0.00  0.00    +0.000 NA
ATOM     22  O   UNL     1       0.477   8.108  21.706  0.00  0.00    +0.000 OA
ATOM     23  C   UNL     1       1.189   8.147  20.535  0.00  0.00    +0.000 A 
ATOM     24  N   UNL     1       1.242   9.352  20.019  0.00  0.00    +0.000 NA
BRANCH  23  25
ATOM     25  C   UNL     1       1.853   6.919  20.125  0.00  0.00    +0.000 A 
ATOM     26  C   UNL     1       1.608   5.782  20.936  0.00  0.00    +0.000 A 
ATOM     27  C   UNL     1       2.235   4.557  20.706  0.00  0.00    +0.000 A 
ATOM     28  C   UNL     1       3.128   4.439  19.652  0.00  0.00    +0.000 A 
ATOM     29  C   UNL     1       3.372   5.542  18.835  0.00  0.00    +0.000 A 
ATOM     30  C   UNL     1       2.752   6.790  19.051  0.00  0.00    +0.000 A 
BRANCH  30  31
ATOM     31  O   UNL     1       3.154   7.674  18.089  0.00  0.00    +0.000 OA
ATOM     32  C   UNL     1       4.182   7.368  17.164  0.00  0.00    +0.000 C 
ENDBRANCH  30  31
ENDBRANCH  23  25
ENDBRANCH   4  20
TORSDOF 6
ENDMDL
MODEL 9
REMARK VINA RESULT:      -7.5      2.455      6.314
REMARK  Name = 
REMARK  8 active torsions:
REMARK  status: ('A' for Active; 'I' for Inactive)
REMARK    1  A    between atoms: C_1  and  O_2
REMARK    2  A    between atoms: O_2  and  C_3
REMARK    3  A    between atoms: C_6  and  C_7
REMARK    4  A    between atoms: N_9  and  C_10
REMARK    5  A    between atoms: C_16  and  C_17
REMARK    6  A    between atoms: C_20  and  C_21
REMARK    7  A    between atoms: C_26  and  O_27
REMARK    8  A    between atoms: O_27  and  C_28
REMARK                            x       y       z     vdW  Elec       q    Type
REMARK                         _______ _______ _______ _____ _____    ______ ____
ROOT
ATOM      1  C   UNL     1      -1.956  11.536  18.572  0.00  0.00    +0.000 C 
ATOM      2  N   UNL     1      -1.118  12.417  19.025  0.00  0.00    +0.000 NA
ATOM      3  N   UNL     1       0.122  12.019  18.642  0.00  0.00    +0.000 N 
ATOM      4  C   UNL     1       0.158  10.702  17.993  0.00  0.00    +0.000 C 
ATOM      5  C   UNL     1      -1.338  10.369  17.855  0.00  0.00    +0.000 C 
ENDROOT
BRANCH   1   9
ATOM      6  C   UNL     1      -6.189  12.049  19.020  0.00  0.00    +0.000 A 
ATOM      7  C   UNL     1      -5.297  12.660  19.902  0.00  0.00    +0.000 A 
ATOM      8  C   UNL     1      -3.920  12.485  19.749  0.00  0.00    +0.000 A 
ATOM      9  C   UNL     1      -3.423  11.682  18.716  0.00  0.00    +0.000 A 
ATOM     10  C   UNL     1      -4.316  11.058  17.840  0.00  0.00    +0.000 A 
ATOM     11  C   UNL     1      -5.696  11.241  17.995  0.00  0.00    +0.000 A 
BRANCH   6  13
ATOM     12  C   UNL     1      -7.808  12.800  20.572  0.00  0.00    +0.000 C 
ATOM     13  O   UNL     1      -7.510  12.282  19.281  0.00  0.00    +0.000 OA
ENDBRANCH   6  13
ENDBRANCH   1   9
BRANCH   3  14
ATOM     14  C   UNL     1       1.251  12.714  19.063  0.00  0.00    +0.000 A 
ATOM     15  C   UNL     1       1.428  13.045  20.415  0.00  0.00    +0.000 A 
ATOM     16  C   UNL     1       2.548  13.755  20.854  0.00  0.00    +0.000 A 
ATOM     17  C   UNL     1       3.501  14.181  19.934  0.00  0.00    +0.000 A 
ATOM     18  C   UNL     1       3.341  13.878  18.585  0.00  0.00    +0.000 A 
ATOM     19  C   UNL     1       2.232  13.138  18.158  0.00  0.00    +0.000 A 
ENDBRANCH   3  14
BRANCH   4  20
ATOM     20  C   UNL     1       0.879   9.600  18.721  0.00  0.00    +0.000 A 
ATOM     21  N   UNL     1       0.980   9.539  20.056  0.00  0.00    +0.000 NA
ATOM     22  O   UNL     1       1.688   8.348  20.266  0.00  0.00    +0.000 OA
ATOM     23  C   UNL     1       1.959   7.824  19.028  0.00  0.00    +0.000 A 
ATOM     24  N   UNL     1       1.518   8.584  18.054  0.00  0.00    +0.000 NA
BRANCH  23  25
ATOM     25  C   UNL     1       2.768   6.615  18.986  0.00  0.00    +0.000 A 
ATOM     26  C   UNL     1       2.471   5.636  19.967  0.00  0.00    +0.000 A 
ATOM     27  C   UNL     1       3.213   4.461  20.092  0.00  0.00    +0.000 A 
ATOM     28  C   UNL     1       4.278   4.236  19.232  0.00  0.00    +0.000 A 
ATOM     29  C   UNL     1       4.578   5.181  18.252  0.00  0.00    +0.000 A 
ATOM     30  C   UNL     1       3.842   6.377  18.110  0.00  0.00    +0.000 A 
BRANCH  30  31
ATOM     31  O   UNL     1       4.337   7.097  17.059  0.00  0.00    +0.000 OA
ATOM     32  C   UNL     1       5.192   6.523  16.086  0.00  0.00    +0.000 C 
ENDBRANCH  30  31
ENDBRANCH  23  25
ENDBRANCH   4  20
TORSDOF 6
ENDMDL
