MODEL 1
REMARK VINA RESULT:      -7.7      0.000      0.000
REMARK  Name = 
REMARK  8 active torsions:
REMARK  status: ('A' for Active; 'I' for Inactive)
REMARK    1  A    between atoms: C_1  and  C_2
REMARK    2  A    between atoms: C_2  and  C_3
REMARK    3  A    between atoms: C_7  and  C_8
REMARK    4  A    between atoms: C_8  and  O_9
REMARK    5  A    between atoms: C_8  and  C_10
REMARK    6  A    between atoms: C_14  and  N_15
REMARK    7  A    between atoms: C_19  and  C_20
REMARK    8  A    between atoms: C_19  and  C_21
REMARK                            x       y       z     vdW  Elec       q    Type
REMARK                         _______ _______ _______ _____ _____    ______ ____
ROOT
ATOM      1  C   UNL     1       7.587   7.498  17.496  0.00  0.00    +0.000 C 
ATOM      2  C   UNL     1       7.023   6.156  18.018  0.00  0.00    +0.000 C 
ATOM      3  C   UNL     1       7.990   5.695  19.132  0.00  0.00    +0.000 C 
ATOM      4  C   UNL     1       5.620   6.368  18.637  0.00  0.00    +0.000 C 
ATOM      5  C   UNL     1       4.500   6.121  17.647  0.00  0.00    +0.000 C 
ATOM      6  O   UNL     1       3.512   6.851  17.603  0.00  0.00    +0.000 OA
ATOM      7  C   UNL     1       4.613   4.919  16.731  0.00  0.00    +0.000 C 
ATOM      8  C   UNL     1       5.976   5.061  15.993  0.00  0.00    +0.000 C 
ATOM      9  C   UNL     1       5.983   6.311  15.077  0.00  0.00    +0.000 C 
ATOM     10  C   UNL     1       6.237   3.872  15.036  0.00  0.00    +0.000 C 
ATOM     11  N   UNL     1       7.067   5.091  16.990  0.00  0.00    +0.000 NA
ATOM     12  H   UNL     1       7.975   5.111  16.517  0.00  0.00    +0.000 HD
ENDROOT
BRANCH   7  13
ATOM     13  C   UNL     1       4.403   3.612  17.551  0.00  0.00    +0.000 C 
BRANCH  13  14
ATOM     14  C   UNL     1       3.100   3.456  18.334  0.00  0.00    +0.000 A 
ATOM     15  C   UNL     1       1.844   3.420  17.705  0.00  0.00    +0.000 A 
ATOM     16  C   UNL     1       0.680   3.110  18.421  0.00  0.00    +0.000 A 
ATOM     17  C   UNL     1       0.748   2.801  19.777  0.00  0.00    +0.000 A 
ATOM     18  C   UNL     1       1.988   2.837  20.422  0.00  0.00    +0.000 A 
ATOM     19  C   UNL     1       3.149   3.182  19.716  0.00  0.00    +0.000 A 
BRANCH  18  20
ATOM     20  N   UNL     1       2.085   2.437  21.831  0.00  0.00    +0.000 N 
ATOM     21  O   UNL     1       1.069   2.552  22.532  0.00  0.00    +0.000 OA
ATOM     22  O   UNL     1       3.168   1.989  22.235  0.00  0.00    +0.000 OA
ENDBRANCH  18  20
ENDBRANCH  13  14
BRANCH  13  23
ATOM     23  O   UNL     1       5.494   3.346  18.434  0.00  0.00    +0.000 OA
ATOM     24  H   UNL     1       5.119   2.930  19.238  0.00  0.00    +0.000 HD
ENDBRANCH  13  23
ENDBRANCH   7  13
TORSDOF 4
ENDMDL
MODEL 2
REMARK VINA RESULT:      -7.0      2.188      6.533
REMARK  Name = 
REMARK  8 active torsions:
REMARK  status: ('A' for Active; 'I' for Inactive)
REMARK    1  A    between atoms: C_1  and  C_2
REMARK    2  A    between atoms: C_2  and  C_3
REMARK    3  A    between atoms: C_7  and  C_8
REMARK    4  A    between atoms: C_8  and  O_9
REMARK    5  A    between atoms: C_8  and  C_10
REMARK    6  A    between atoms: C_14  and  N_15
REMARK    7  A    between atoms: C_19  and  C_20
REMARK    8  A    between atoms: C_19  and  C_21
REMARK                            x       y       z     vdW  Elec       q    Type
REMARK                         _______ _______ _______ _____ _____    ______ ____
ROOT
ATOM      1  C   UNL     1       0.423   2.595  20.204  0.00  0.00    +0.000 C 
ATOM      2  C   UNL     1       1.854   3.152  20.383  0.00  0.00    +0.000 C 
ATOM      3  C   UNL     1       2.044   3.349  21.905  0.00  0.00    +0.000 C 
ATOM      4  C   UNL     1       2.897   2.123  19.884  0.00  0.00    +0.000 C 
ATOM      5  C   UNL     1       3.301   2.353  18.441  0.00  0.00    +0.000 C 
ATOM      6  O   UNL     1       3.453   1.414  17.662  0.00  0.00    +0.000 OA
ATOM      7  C   UNL     1       3.551   3.777  17.991  0.00  0.00    +0.000 C 
ATOM      8  C   UNL     1       2.259   4.575  18.333  0.00  0.00    +0.000 C 
ATOM      9  C   UNL     1       1.055   4.061  17.504  0.00  0.00    +0.000 C 
ATOM     10  C   UNL     1       2.389   6.070  17.949  0.00  0.00    +0.000 C 
ATOM     11  N   UNL     1       2.011   4.499  19.788  0.00  0.00    +0.000 NA
ATOM     12  H   UNL     1       1.206   5.079  20.038  0.00  0.00    +0.000 HD
ENDROOT
BRANCH   7  13
ATOM     13  C   UNL     1       4.875   4.302  18.621  0.00  0.00    +0.000 C 
BRANCH  13  14
ATOM     14  C   UNL     1       5.787   5.173  17.758  0.00  0.00    +0.000 A 
ATOM     15  C   UNL     1       6.564   6.213  18.296  0.00  0.00    +0.000 A 
ATOM     16  C   UNL     1       7.515   6.887  17.519  0.00  0.00    +0.000 A 
ATOM     17  C   UNL     1       7.732   6.519  16.194  0.00  0.00    +0.000 A 
ATOM     18  C   UNL     1       6.966   5.490  15.639  0.00  0.00    +0.000 A 
ATOM     19  C   UNL     1       5.988   4.837  16.403  0.00  0.00    +0.000 A 
BRANCH  18  20
ATOM     20  N   UNL     1       7.239   5.039  14.269  0.00  0.00    +0.000 N 
ATOM     21  O   UNL     1       8.158   5.599  13.652  0.00  0.00    +0.000 OA
ATOM     22  O   UNL     1       6.552   4.114  13.814  0.00  0.00    +0.000 OA
ENDBRANCH  18  20
ENDBRANCH  13  14
BRANCH  13  23
ATOM     23  O   UNL     1       5.659   3.250  19.188  0.00  0.00    +0.000 OA
ATOM     24  H   UNL     1       6.516   3.642  19.456  0.00  0.00    +0.000 HD
ENDBRANCH  13  23
ENDBRANCH   7  13
TORSDOF 4
ENDMDL
MODEL 3
REMARK VINA RESULT:      -7.0      3.390      4.344
REMARK  Name = 
REMARK  8 active torsions:
REMARK  status: ('A' for Active; 'I' for Inactive)
REMARK    1  A    between atoms: C_1  and  C_2
REMARK    2  A    between atoms: C_2  and  C_3
REMARK    3  A    between atoms: C_7  and  C_8
REMARK    4  A    between atoms: C_8  and  O_9
REMARK    5  A    between atoms: C_8  and  C_10
REMARK    6  A    between atoms: C_14  and  N_15
REMARK    7  A    between atoms: C_19  and  C_20
REMARK    8  A    between atoms: C_19  and  C_21
REMARK                            x       y       z     vdW  Elec       q    Type
REMARK                         _______ _______ _______ _____ _____    ______ ____
ROOT
ATOM      1  C   UNL     1       7.731   4.692  17.283  0.00  0.00    +0.000 C 
ATOM      2  C   UNL     1       6.668   5.115  18.323  0.00  0.00    +0.000 C 
ATOM      3  C   UNL     1       7.421   5.248  19.668  0.00  0.00    +0.000 C 
ATOM      4  C   UNL     1       6.073   6.496  17.952  0.00  0.00    +0.000 C 
ATOM      5  C   UNL     1       4.804   6.385  17.131  0.00  0.00    +0.000 C 
ATOM      6  O   UNL     1       4.590   7.133  16.180  0.00  0.00    +0.000 OA
ATOM      7  C   UNL     1       3.782   5.344  17.539  0.00  0.00    +0.000 C 
ATOM      8  C   UNL     1       4.537   3.982  17.572  0.00  0.00    +0.000 C 
ATOM      9  C   UNL     1       5.022   3.584  16.155  0.00  0.00    +0.000 C 
ATOM     10  C   UNL     1       3.607   2.822  18.008  0.00  0.00    +0.000 C 
ATOM     11  N   UNL     1       5.648   4.066  18.543  0.00  0.00    +0.000 NA
ATOM     12  H   UNL     1       6.108   3.155  18.629  0.00  0.00    +0.000 HD
ENDROOT
BRANCH   7  13
ATOM     13  C   UNL     1       3.087   5.782  18.863  0.00  0.00    +0.000 C 
BRANCH  13  14
ATOM     14  C   UNL     1       2.463   7.175  18.920  0.00  0.00    +0.000 A 
ATOM     15  C   UNL     1       2.206   7.933  17.765  0.00  0.00    +0.000 A 
ATOM     16  C   UNL     1       1.483   9.131  17.827  0.00  0.00    +0.000 A 
ATOM     17  C   UNL     1       0.977   9.587  19.042  0.00  0.00    +0.000 A 
ATOM     18  C   UNL     1       1.226   8.850  20.203  0.00  0.00    +0.000 A 
ATOM     19  C   UNL     1       1.979   7.669  20.149  0.00  0.00    +0.000 A 
BRANCH  18  20
ATOM     20  N   UNL     1       0.631   9.276  21.475  0.00  0.00    +0.000 N 
ATOM     21  O   UNL     1       1.231  10.144  22.127  0.00  0.00    +0.000 OA
ATOM     22  O   UNL     1      -0.443   8.761  21.817  0.00  0.00    +0.000 OA
ENDBRANCH  18  20
ENDBRANCH  13  14
BRANCH  13  23
ATOM     23  O   UNL     1       3.938   5.620  20.000  0.00  0.00    +0.000 OA
ATOM     24  H   UNL     1       3.795   6.397  20.578  0.00  0.00    +0.000 HD
ENDBRANCH  13  23
ENDBRANCH   7  13
TORSDOF 4
ENDMDL
MODEL 4
REMARK VINA RESULT:      -6.8      1.405      1.913
REMARK  Name = 
REMARK  8 active torsions:
REMARK  status: ('A' for Active; 'I' for Inactive)
REMARK    1  A    between atoms: C_1  and  C_2
REMARK    2  A    between atoms: C_2  and  C_3
REMARK    3  A    between atoms: C_7  and  C_8
REMARK    4  A    between atoms: C_8  and  O_9
REMARK    5  A    between atoms: C_8  and  C_10
REMARK    6  A    between atoms: C_14  and  N_15
REMARK    7  A    between atoms: C_19  and  C_20
REMARK    8  A    between atoms: C_19  and  C_21
REMARK                            x       y       z     vdW  Elec       q    Type
REMARK                         _______ _______ _______ _____ _____    ______ ____
ROOT
ATOM      1  C   UNL     1       8.196   4.821  17.397  0.00  0.00    +0.000 C 
ATOM      2  C   UNL     1       6.957   5.242  18.219  0.00  0.00    +0.000 C 
ATOM      3  C   UNL     1       7.465   5.480  19.660  0.00  0.00    +0.000 C 
ATOM      4  C   UNL     1       6.377   6.570  17.674  0.00  0.00    +0.000 C 
ATOM      5  C   UNL     1       5.271   6.353  16.661  0.00  0.00    +0.000 C 
ATOM      6  O   UNL     1       5.190   7.041  15.645  0.00  0.00    +0.000 OA
ATOM      7  C   UNL     1       4.238   5.285  16.953  0.00  0.00    +0.000 C 
ATOM      8  C   UNL     1       5.031   3.966  17.191  0.00  0.00    +0.000 C 
ATOM      9  C   UNL     1       5.765   3.522  15.900  0.00  0.00    +0.000 C 
ATOM     10  C   UNL     1       4.090   2.784  17.533  0.00  0.00    +0.000 C 
ATOM     11  N   UNL     1       5.958   4.155  18.327  0.00  0.00    +0.000 NA
ATOM     12  H   UNL     1       6.434   3.274  18.541  0.00  0.00    +0.000 HD
ENDROOT
BRANCH   7  13
ATOM     13  C   UNL     1       3.312   5.754  18.115  0.00  0.00    +0.000 C 
BRANCH  13  14
ATOM     14  C   UNL     1       2.307   4.752  18.683  0.00  0.00    +0.000 A 
ATOM     15  C   UNL     1       1.293   4.177  17.899  0.00  0.00    +0.000 A 
ATOM     16  C   UNL     1       0.491   3.140  18.393  0.00  0.00    +0.000 A 
ATOM     17  C   UNL     1       0.702   2.635  19.673  0.00  0.00    +0.000 A 
ATOM     18  C   UNL     1       1.703   3.197  20.470  0.00  0.00    +0.000 A 
ATOM     19  C   UNL     1       2.484   4.258  19.992  0.00  0.00    +0.000 A 
BRANCH  18  20
ATOM     20  N   UNL     1       1.989   2.622  21.790  0.00  0.00    +0.000 N 
ATOM     21  O   UNL     1       1.052   2.544  22.599  0.00  0.00    +0.000 OA
ATOM     22  O   UNL     1       3.143   2.229  22.016  0.00  0.00    +0.000 OA
ENDBRANCH  18  20
ENDBRANCH  13  14
BRANCH  13  23
ATOM     23  O   UNL     1       2.616   6.961  17.798  0.00  0.00    +0.000 OA
ATOM     24  H   UNL     1       1.830   6.710  17.270  0.00  0.00    +0.000 HD
ENDBRANCH  13  23
ENDBRANCH   7  13
TORSDOF 4
ENDMDL
MODEL 5
REMARK VINA RESULT:      -6.7      3.663      5.572
REMARK  Name = 
REMARK  8 active torsions:
REMARK  status: ('A' for Active; 'I' for Inactive)
REMARK    1  A    between atoms: C_1  and  C_2
REMARK    2  A    between atoms: C_2  and  C_3
REMARK    3  A    between atoms: C_7  and  C_8
REMARK    4  A    between atoms: C_8  and  O_9
REMARK    5  A    between atoms: C_8  and  C_10
REMARK    6  A    between atoms: C_14  and  N_15
REMARK    7  A    between atoms: C_19  and  C_20
REMARK    8  A    between atoms: C_19  and  C_21
REMARK                            x       y       z     vdW  Elec       q    Type
REMARK                         _______ _______ _______ _____ _____    ______ ____
ROOT
ATOM      1  C   UNL     1       3.890   0.993  18.676  0.00  0.00    +0.000 C 
ATOM      2  C   UNL     1       4.078   2.321  19.445  0.00  0.00    +0.000 C 
ATOM      3  C   UNL     1       5.063   2.009  20.595  0.00  0.00    +0.000 C 
ATOM      4  C   UNL     1       4.716   3.389  18.524  0.00  0.00    +0.000 C 
ATOM      5  C   UNL     1       3.685   4.266  17.842  0.00  0.00    +0.000 C 
ATOM      6  O   UNL     1       3.804   4.596  16.664  0.00  0.00    +0.000 OA
ATOM      7  C   UNL     1       2.514   4.760  18.667  0.00  0.00    +0.000 C 
ATOM      8  C   UNL     1       1.844   3.492  19.273  0.00  0.00    +0.000 C 
ATOM      9  C   UNL     1       1.245   2.597  18.158  0.00  0.00    +0.000 C 
ATOM     10  C   UNL     1       0.637   3.857  20.173  0.00  0.00    +0.000 C 
ATOM     11  N   UNL     1       2.830   2.770  20.103  0.00  0.00    +0.000 NA
ATOM     12  H   UNL     1       2.384   1.974  20.566  0.00  0.00    +0.000 HD
ENDROOT
BRANCH   7  13
ATOM     13  C   UNL     1       3.004   5.835  19.682  0.00  0.00    +0.000 C 
BRANCH  13  14
ATOM     14  C   UNL     1       2.386   7.230  19.606  0.00  0.00    +0.000 A 
ATOM     15  C   UNL     1       2.314   7.957  18.405  0.00  0.00    +0.000 A 
ATOM     16  C   UNL     1       1.597   9.157  18.323  0.00  0.00    +0.000 A 
ATOM     17  C   UNL     1       0.912   9.647  19.432  0.00  0.00    +0.000 A 
ATOM     18  C   UNL     1       0.975   8.941  20.637  0.00  0.00    +0.000 A 
ATOM     19  C   UNL     1       1.721   7.758  20.732  0.00  0.00    +0.000 A 
BRANCH  18  20
ATOM     20  N   UNL     1       0.193   9.402  21.790  0.00  0.00    +0.000 N 
ATOM     21  O   UNL     1       0.468  10.515  22.263  0.00  0.00    +0.000 OA
ATOM     22  O   UNL     1      -0.709   8.665  22.214  0.00  0.00    +0.000 OA
ENDBRANCH  18  20
ENDBRANCH  13  14
BRANCH  13  23
ATOM     23  O   UNL     1       4.427   5.971  19.682  0.00  0.00    +0.000 OA
ATOM     24  H   UNL     1       4.765   5.448  20.439  0.00  0.00    +0.000 HD
ENDBRANCH  13  23
ENDBRANCH   7  13
TORSDOF 4
ENDMDL
MODEL 6
REMARK VINA RESULT:      -6.7      2.231      6.312
REMARK  Name = 
REMARK  8 active torsions:
REMARK  status: ('A' for Active; 'I' for Inactive)
REMARK    1  A    between atoms: C_1  and  C_2
REMARK    2  A    between atoms: C_2  and  C_3
REMARK    3  A    between atoms: C_7  and  C_8
REMARK    4  A    between atoms: C_8  and  O_9
REMARK    5  A    between atoms: C_8  and  C_10
REMARK    6  A    between atoms: C_14  and  N_15
REMARK    7  A    between atoms: C_19  and  C_20
REMARK    8  A    between atoms: C_19  and  C_21
REMARK                            x       y       z     vdW  Elec       q    Type
REMARK                         _______ _______ _______ _____ _____    ______ ____
ROOT
ATOM      1  C   UNL     1       0.328   2.776  20.191  0.00  0.00    +0.000 C 
ATOM      2  C   UNL     1       1.799   3.213  20.380  0.00  0.00    +0.000 C 
ATOM      3  C   UNL     1       2.010   3.342  21.906  0.00  0.00    +0.000 C 
ATOM      4  C   UNL     1       2.757   2.124  19.839  0.00  0.00    +0.000 C 
ATOM      5  C   UNL     1       3.172   2.370  18.402  0.00  0.00    +0.000 C 
ATOM      6  O   UNL     1       3.247   1.450  17.591  0.00  0.00    +0.000 OA
ATOM      7  C   UNL     1       3.531   3.786  17.999  0.00  0.00    +0.000 C 
ATOM      8  C   UNL     1       2.306   4.670  18.376  0.00  0.00    +0.000 C 
ATOM      9  C   UNL     1       1.062   4.279  17.538  0.00  0.00    +0.000 C 
ATOM     10  C   UNL     1       2.551   6.162  18.042  0.00  0.00    +0.000 C 
ATOM     11  N   UNL     1       2.059   4.563  19.829  0.00  0.00    +0.000 NA
ATOM     12  H   UNL     1       1.302   5.195  20.104  0.00  0.00    +0.000 HD
ENDROOT
BRANCH   7  13
ATOM     13  C   UNL     1       4.894   4.184  18.638  0.00  0.00    +0.000 C 
BRANCH  13  14
ATOM     14  C   UNL     1       5.929   4.875  17.751  0.00  0.00    +0.000 A 
ATOM     15  C   UNL     1       6.124   4.521  16.406  0.00  0.00    +0.000 A 
ATOM     16  C   UNL     1       6.955   5.275  15.568  0.00  0.00    +0.000 A 
ATOM     17  C   UNL     1       7.591   6.417  16.048  0.00  0.00    +0.000 A 
ATOM     18  C   UNL     1       7.414   6.783  17.386  0.00  0.00    +0.000 A 
ATOM     19  C   UNL     1       6.611   6.011  18.236  0.00  0.00    +0.000 A 
BRANCH  18  20
ATOM     20  N   UNL     1       8.014   8.027  17.884  0.00  0.00    +0.000 N 
ATOM     21  O   UNL     1       7.790   9.068  17.247  0.00  0.00    +0.000 OA
ATOM     22  O   UNL     1       8.692   7.972  18.919  0.00  0.00    +0.000 OA
ENDBRANCH  18  20
ENDBRANCH  13  14
BRANCH  13  23
ATOM     23  O   UNL     1       5.525   3.084  19.296  0.00  0.00    +0.000 OA
ATOM     24  H   UNL     1       5.717   3.369  20.213  0.00  0.00    +0.000 HD
ENDBRANCH  13  23
ENDBRANCH   7  13
TORSDOF 4
ENDMDL
MODEL 7
REMARK VINA RESULT:      -6.6      3.101      6.505
REMARK  Name = 
REMARK  8 active torsions:
REMARK  status: ('A' for Active; 'I' for Inactive)
REMARK    1  A    between atoms: C_1  and  C_2
REMARK    2  A    between atoms: C_2  and  C_3
REMARK    3  A    between atoms: C_7  and  C_8
REMARK    4  A    between atoms: C_8  and  O_9
REMARK    5  A    between atoms: C_8  and  C_10
REMARK    6  A    between atoms: C_14  and  N_15
REMARK    7  A    between atoms: C_19  and  C_20
REMARK    8  A    between atoms: C_19  and  C_21
REMARK                            x       y       z     vdW  Elec       q    Type
REMARK                         _______ _______ _______ _____ _____    ______ ____
ROOT
ATOM      1  C   UNL     1       2.858   4.406  20.798  0.00  0.00    +0.000 C 
ATOM      2  C   UNL     1       3.108   5.197  19.494  0.00  0.00    +0.000 C 
ATOM      3  C   UNL     1       2.255   6.481  19.606  0.00  0.00    +0.000 C 
ATOM      4  C   UNL     1       4.599   5.602  19.389  0.00  0.00    +0.000 C 
ATOM      5  C   UNL     1       5.423   4.603  18.600  0.00  0.00    +0.000 C 
ATOM      6  O   UNL     1       6.552   4.278  18.961  0.00  0.00    +0.000 OA
ATOM      7  C   UNL     1       4.828   4.042  17.325  0.00  0.00    +0.000 C 
ATOM      8  C   UNL     1       3.452   3.429  17.719  0.00  0.00    +0.000 C 
ATOM      9  C   UNL     1       3.637   2.228  18.680  0.00  0.00    +0.000 C 
ATOM     10  C   UNL     1       2.714   2.839  16.491  0.00  0.00    +0.000 C 
ATOM     11  N   UNL     1       2.598   4.486  18.299  0.00  0.00    +0.000 NA
ATOM     12  H   UNL     1       1.665   4.114  18.496  0.00  0.00    +0.000 HD
ENDROOT
BRANCH   7  13
ATOM     13  C   UNL     1       4.804   5.145  16.226  0.00  0.00    +0.000 C 
BRANCH  13  14
ATOM     14  C   UNL     1       5.576   4.889  14.932  0.00  0.00    +0.000 A 
ATOM     15  C   UNL     1       6.924   5.255  14.775  0.00  0.00    +0.000 A 
ATOM     16  C   UNL     1       7.657   4.862  13.648  0.00  0.00    +0.000 A 
ATOM     17  C   UNL     1       7.069   4.072  12.664  0.00  0.00    +0.000 A 
ATOM     18  C   UNL     1       5.728   3.701  12.800  0.00  0.00    +0.000 A 
ATOM     19  C   UNL     1       4.981   4.122  13.909  0.00  0.00    +0.000 A 
BRANCH  18  20
ATOM     20  N   UNL     1       5.119   2.803  11.812  0.00  0.00    +0.000 N 
ATOM     21  O   UNL     1       5.743   1.774  11.510  0.00  0.00    +0.000 OA
ATOM     22  O   UNL     1       4.011   3.111  11.350  0.00  0.00    +0.000 OA
ENDBRANCH  18  20
ENDBRANCH  13  14
BRANCH  13  23
ATOM     23  O   UNL     1       5.188   6.424  16.735  0.00  0.00    +0.000 OA
ATOM     24  H   UNL     1       4.826   6.493  17.643  0.00  0.00    +0.000 HD
ENDBRANCH  13  23
ENDBRANCH   7  13
TORSDOF 4
ENDMDL
MODEL 8
REMARK VINA RESULT:      -6.6      1.111      2.759
REMARK  Name = 
REMARK  8 active torsions:
REMARK  status: ('A' for Active; 'I' for Inactive)
REMARK    1  A    between atoms: C_1  and  C_2
REMARK    2  A    between atoms: C_2  and  C_3
REMARK    3  A    between atoms: C_7  and  C_8
REMARK    4  A    between atoms: C_8  and  O_9
REMARK    5  A    between atoms: C_8  and  C_10
REMARK    6  A    between atoms: C_14  and  N_15
REMARK    7  A    between atoms: C_19  and  C_20
REMARK    8  A    between atoms: C_19  and  C_21
REMARK                            x       y       z     vdW  Elec       q    Type
REMARK                         _______ _______ _______ _____ _____    ______ ____
ROOT
ATOM      1  C   UNL     1       7.371   4.428  15.493  0.00  0.00    +0.000 C 
ATOM      2  C   UNL     1       5.928   4.871  15.828  0.00  0.00    +0.000 C 
ATOM      3  C   UNL     1       5.122   4.712  14.519  0.00  0.00    +0.000 C 
ATOM      4  C   UNL     1       5.316   3.938  16.902  0.00  0.00    +0.000 C 
ATOM      5  C   UNL     1       5.497   4.469  18.310  0.00  0.00    +0.000 C 
ATOM      6  O   UNL     1       5.793   3.724  19.241  0.00  0.00    +0.000 OA
ATOM      7  C   UNL     1       5.263   5.947  18.547  0.00  0.00    +0.000 C 
ATOM      8  C   UNL     1       6.194   6.700  17.553  0.00  0.00    +0.000 C 
ATOM      9  C   UNL     1       7.685   6.436  17.882  0.00  0.00    +0.000 C 
ATOM     10  C   UNL     1       6.034   8.237  17.668  0.00  0.00    +0.000 C 
ATOM     11  N   UNL     1       5.847   6.309  16.170  0.00  0.00    +0.000 NA
ATOM     12  H   UNL     1       6.402   6.851  15.502  0.00  0.00    +0.000 HD
ENDROOT
BRANCH   7  13
ATOM     13  C   UNL     1       3.741   6.261  18.443  0.00  0.00    +0.000 C 
BRANCH  13  14
ATOM     14  C   UNL     1       2.752   5.141  18.762  0.00  0.00    +0.000 A 
ATOM     15  C   UNL     1       1.933   4.559  17.780  0.00  0.00    +0.000 A 
ATOM     16  C   UNL     1       1.158   3.425  18.058  0.00  0.00    +0.000 A 
ATOM     17  C   UNL     1       1.205   2.831  19.316  0.00  0.00    +0.000 A 
ATOM     18  C   UNL     1       2.010   3.398  20.308  0.00  0.00    +0.000 A 
ATOM     19  C   UNL     1       2.759   4.553  20.044  0.00  0.00    +0.000 A 
BRANCH  18  20
ATOM     20  N   UNL     1       2.130   2.736  21.612  0.00  0.00    +0.000 N 
ATOM     21  O   UNL     1       1.107   2.651  22.310  0.00  0.00    +0.000 OA
ATOM     22  O   UNL     1       3.237   2.283  21.935  0.00  0.00    +0.000 OA
ENDBRANCH  18  20
ENDBRANCH  13  14
BRANCH  13  23
ATOM     23  O   UNL     1       3.391   6.827  17.179  0.00  0.00    +0.000 OA
ATOM     24  H   UNL     1       2.579   7.358  17.316  0.00  0.00    +0.000 HD
ENDBRANCH  13  23
ENDBRANCH   7  13
TORSDOF 4
ENDMDL
MODEL 9
REMARK VINA RESULT:      -6.6      2.684      6.617
REMARK  Name = 
REMARK  8 active torsions:
REMARK  status: ('A' for Active; 'I' for Inactive)
REMARK    1  A    between atoms: C_1  and  C_2
REMARK    2  A    between atoms: C_2  and  C_3
REMARK    3  A    between atoms: C_7  and  C_8
REMARK    4  A    between atoms: C_8  and  O_9
REMARK    5  A    between atoms: C_8  and  C_10
REMARK    6  A    between atoms: C_14  and  N_15
REMARK    7  A    between atoms: C_19  and  C_20
REMARK    8  A    between atoms: C_19  and  C_21
REMARK                            x       y       z     vdW  Elec       q    Type
REMARK                         _______ _______ _______ _____ _____    ______ ____
ROOT
ATOM      1  C   UNL     1       1.627   2.937  21.541  0.00  0.00    +0.000 C 
ATOM      2  C   UNL     1       1.703   3.174  20.015  0.00  0.00    +0.000 C 
ATOM      3  C   UNL     1       0.243   3.142  19.508  0.00  0.00    +0.000 C 
ATOM      4  C   UNL     1       2.299   4.572  19.718  0.00  0.00    +0.000 C 
ATOM      5  C   UNL     1       3.798   4.534  19.494  0.00  0.00    +0.000 C 
ATOM      6  O   UNL     1       4.536   5.400  19.957  0.00  0.00    +0.000 OA
ATOM      7  C   UNL     1       4.362   3.412  18.646  0.00  0.00    +0.000 C 
ATOM      8  C   UNL     1       3.870   2.085  19.296  0.00  0.00    +0.000 C 
ATOM      9  C   UNL     1       4.472   1.907  20.713  0.00  0.00    +0.000 C 
ATOM     10  C   UNL     1       4.354   0.845  18.505  0.00  0.00    +0.000 C 
ATOM     11  N   UNL     1       2.392   2.069  19.308  0.00  0.00    +0.000 NA
ATOM     12  H   UNL     1       2.053   1.172  19.667  0.00  0.00    +0.000 HD
ENDROOT
BRANCH   7  13
ATOM     13  C   UNL     1       3.975   3.636  17.154  0.00  0.00    +0.000 C 
BRANCH  13  14
ATOM     14  C   UNL     1       5.039   4.197  16.212  0.00  0.00    +0.000 A 
ATOM     15  C   UNL     1       6.140   4.936  16.676  0.00  0.00    +0.000 A 
ATOM     16  C   UNL     1       7.188   5.296  15.818  0.00  0.00    +0.000 A 
ATOM     17  C   UNL     1       7.172   4.904  14.482  0.00  0.00    +0.000 A 
ATOM     18  C   UNL     1       6.082   4.173  14.000  0.00  0.00    +0.000 A 
ATOM     19  C   UNL     1       5.016   3.841  14.848  0.00  0.00    +0.000 A 
BRANCH  18  20
ATOM     20  N   UNL     1       6.090   3.685  12.616  0.00  0.00    +0.000 N 
ATOM     21  O   UNL     1       5.086   3.076  12.216  0.00  0.00    +0.000 OA
ATOM     22  O   UNL     1       7.087   3.924  11.920  0.00  0.00    +0.000 OA
ENDBRANCH  18  20
ENDBRANCH  13  14
BRANCH  13  23
ATOM     23  O   UNL     1       2.789   4.420  17.015  0.00  0.00    +0.000 OA
ATOM     24  H   UNL     1       3.065   5.305  16.698  0.00  0.00    +0.000 HD
ENDBRANCH  13  23
ENDBRANCH   7  13
TORSDOF 4
ENDMDL
