MODEL 1
REMARK VINA RESULT:      -9.1      0.000      0.000
REMARK  Name = 
REMARK  8 active torsions:
REMARK  status: ('A' for Active; 'I' for Inactive)
REMARK    1  A    between atoms: C_1  and  C_2
REMARK    2  A    between atoms: C_2  and  C_3
REMARK    3  A    between atoms: C_2  and  O_4
REMARK    4  A    between atoms: C_2  and  C_16
REMARK    5  A    between atoms: O_4  and  C_5
REMARK    6  A    between atoms: C_5  and  C_7
REMARK    7  A    between atoms: C_8  and  C_9
REMARK    8  A    between atoms: C_12  and  O_13
REMARK                            x       y       z     vdW  Elec       q    Type
REMARK                         _______ _______ _______ _____ _____    ______ ____
ROOT
ATOM      1  C   UNL     1       0.931   2.356  18.768  0.00  0.00    +0.000 C 
ATOM      2  C   UNL     1       1.741   3.144  19.806  0.00  0.00    +0.000 C 
ATOM      3  C   UNL     1       1.091   2.804  21.187  0.00  0.00    +0.000 C 
ENDROOT
BRANCH   2   4
ATOM      4  C   UNL     1       1.658   4.694  19.664  0.00  0.00    +0.000 C 
ATOM      5  C   UNL     1       2.215   5.394  20.906  0.00  0.00    +0.000 C 
ATOM      6  C   UNL     1       1.977   6.750  20.389  0.00  0.00    +0.000 A 
ATOM      7  C   UNL     1       1.436   7.822  21.060  0.00  0.00    +0.000 A 
ATOM      8  C   UNL     1       1.106   8.932  20.299  0.00  0.00    +0.000 A 
ATOM      9  C   UNL     1       0.190   9.928  20.827  0.00  0.00    +0.000 A 
ATOM     10  C   UNL     1      -0.055  11.023  20.105  0.00  0.00    +0.000 A 
ATOM     11  C   UNL     1       0.669  11.294  18.851  0.00  0.00    +0.000 A 
ATOM     12  O   UNL     1       0.656  12.419  18.363  0.00  0.00    +0.000 OA
ATOM     13  O   UNL     1       1.306  10.213  18.245  0.00  0.00    +0.000 OA
ATOM     14  C   UNL     1       1.496   9.003  18.949  0.00  0.00    +0.000 A 
ATOM     15  C   UNL     1       2.021   7.892  18.266  0.00  0.00    +0.000 A 
ATOM     16  C   UNL     1       2.153   6.735  19.009  0.00  0.00    +0.000 A 
ATOM     17  O   UNL     1       2.276   5.418  18.546  0.00  0.00    +0.000 OA
ENDBRANCH   2   4
BRANCH   2  18
ATOM     18  O   UNL     1       3.098   2.646  19.925  0.00  0.00    +0.000 OA
BRANCH  18  19
ATOM     19  C   UNL     1       3.747   2.214  18.819  0.00  0.00    +0.000 C 
ATOM     20  O   UNL     1       3.746   1.082  18.365  0.00  0.00    +0.000 OA
BRANCH  19  21
ATOM     21  C   UNL     1       4.495   3.338  18.239  0.00  0.00    +0.000 C 
ATOM     22  C   UNL     1       5.212   4.137  19.044  0.00  0.00    +0.000 C 
BRANCH  22  23
ATOM     23  C   UNL     1       6.041   5.276  18.624  0.00  0.00    +0.000 A 
ATOM     24  C   UNL     1       7.283   5.575  19.197  0.00  0.00    +0.000 A 
ATOM     25  C   UNL     1       8.041   6.659  18.737  0.00  0.00    +0.000 A 
ATOM     26  C   UNL     1       7.557   7.443  17.695  0.00  0.00    +0.000 A 
ATOM     27  C   UNL     1       6.336   7.154  17.102  0.00  0.00    +0.000 A 
ATOM     28  C   UNL     1       5.584   6.069  17.561  0.00  0.00    +0.000 A 
BRANCH  26  29
ATOM     29  O   UNL     1       8.258   8.510  17.218  0.00  0.00    +0.000 OA
ATOM     30  H   UNL     1       8.652   8.983  17.968  0.00  0.00    +0.000 HD
ENDBRANCH  26  29
ENDBRANCH  22  23
ENDBRANCH  19  21
ENDBRANCH  18  19
ENDBRANCH   2  18
TORSDOF 6
ENDMDL
MODEL 2
REMARK VINA RESULT:      -8.9      2.536      6.594
REMARK  Name = 
REMARK  8 active torsions:
REMARK  status: ('A' for Active; 'I' for Inactive)
REMARK    1  A    between atoms: C_1  and  C_2
REMARK    2  A    between atoms: C_2  and  C_3
REMARK    3  A    between atoms: C_2  and  O_4
REMARK    4  A    between atoms: C_2  and  C_16
REMARK    5  A    between atoms: O_4  and  C_5
REMARK    6  A    between atoms: C_5  and  C_7
REMARK    7  A    between atoms: C_8  and  C_9
REMARK    8  A    between atoms: C_12  and  O_13
REMARK                            x       y       z     vdW  Elec       q    Type
REMARK                         _______ _______ _______ _____ _____    ______ ____
ROOT
ATOM      1  C   UNL     1       4.595   1.245  20.338  0.00  0.00    +0.000 C 
ATOM      2  C   UNL     1       3.922   2.517  19.804  0.00  0.00    +0.000 C 
ATOM      3  C   UNL     1       2.511   2.062  19.304  0.00  0.00    +0.000 C 
ENDROOT
BRANCH   2   4
ATOM      4  C   UNL     1       4.625   3.163  18.571  0.00  0.00    +0.000 C 
ATOM      5  C   UNL     1       3.601   3.627  17.532  0.00  0.00    +0.000 C 
ATOM      6  C   UNL     1       4.613   4.152  16.602  0.00  0.00    +0.000 A 
ATOM      7  C   UNL     1       4.668   3.984  15.238  0.00  0.00    +0.000 A 
ATOM      8  C   UNL     1       5.835   4.384  14.608  0.00  0.00    +0.000 A 
ATOM      9  C   UNL     1       6.143   3.897  13.274  0.00  0.00    +0.000 A 
ATOM     10  C   UNL     1       7.236   4.353  12.659  0.00  0.00    +0.000 A 
ATOM     11  C   UNL     1       8.061   5.420  13.251  0.00  0.00    +0.000 A 
ATOM     12  O   UNL     1       8.870   6.028  12.560  0.00  0.00    +0.000 OA
ATOM     13  O   UNL     1       7.908   5.649  14.618  0.00  0.00    +0.000 OA
ATOM     14  C   UNL     1       6.813   5.100  15.322  0.00  0.00    +0.000 A 
ATOM     15  C   UNL     1       6.760   5.240  16.719  0.00  0.00    +0.000 A 
ATOM     16  C   UNL     1       5.678   4.654  17.344  0.00  0.00    +0.000 A 
ATOM     17  O   UNL     1       5.543   4.301  18.693  0.00  0.00    +0.000 OA
ENDBRANCH   2   4
BRANCH   2  18
ATOM     18  O   UNL     1       3.632   3.462  20.864  0.00  0.00    +0.000 OA
BRANCH  18  19
ATOM     19  C   UNL     1       2.361   3.591  21.310  0.00  0.00    +0.000 C 
ATOM     20  O   UNL     1       1.755   2.816  22.031  0.00  0.00    +0.000 OA
BRANCH  19  21
ATOM     21  C   UNL     1       1.791   4.831  20.765  0.00  0.00    +0.000 C 
ATOM     22  C   UNL     1       2.613   5.787  20.307  0.00  0.00    +0.000 C 
BRANCH  22  23
ATOM     23  C   UNL     1       2.209   7.064  19.700  0.00  0.00    +0.000 A 
ATOM     24  C   UNL     1       1.533   8.069  20.403  0.00  0.00    +0.000 A 
ATOM     25  C   UNL     1       1.196   9.277  19.779  0.00  0.00    +0.000 A 
ATOM     26  C   UNL     1       1.543   9.481  18.448  0.00  0.00    +0.000 A 
ATOM     27  C   UNL     1       2.227   8.505  17.737  0.00  0.00    +0.000 A 
ATOM     28  C   UNL     1       2.565   7.303  18.364  0.00  0.00    +0.000 A 
BRANCH  26  29
ATOM     29  O   UNL     1       1.232  10.639  17.799  0.00  0.00    +0.000 OA
ATOM     30  H   UNL     1       0.832  10.417  16.942  0.00  0.00    +0.000 HD
ENDBRANCH  26  29
ENDBRANCH  22  23
ENDBRANCH  19  21
ENDBRANCH  18  19
ENDBRANCH   2  18
TORSDOF 6
ENDMDL
MODEL 3
REMARK VINA RESULT:      -8.4      3.304      5.467
REMARK  Name = 
REMARK  8 active torsions:
REMARK  status: ('A' for Active; 'I' for Inactive)
REMARK    1  A    between atoms: C_1  and  C_2
REMARK    2  A    between atoms: C_2  and  C_3
REMARK    3  A    between atoms: C_2  and  O_4
REMARK    4  A    between atoms: C_2  and  C_16
REMARK    5  A    between atoms: O_4  and  C_5
REMARK    6  A    between atoms: C_5  and  C_7
REMARK    7  A    between atoms: C_8  and  C_9
REMARK    8  A    between atoms: C_12  and  O_13
REMARK                            x       y       z     vdW  Elec       q    Type
REMARK                         _______ _______ _______ _____ _____    ______ ____
ROOT
ATOM      1  C   UNL     1       6.322   5.177  15.495  0.00  0.00    +0.000 C 
ATOM      2  C   UNL     1       6.588   5.784  16.879  0.00  0.00    +0.000 C 
ATOM      3  C   UNL     1       7.245   4.638  17.717  0.00  0.00    +0.000 C 
ENDROOT
BRANCH   2   4
ATOM      4  C   UNL     1       5.311   6.210  17.666  0.00  0.00    +0.000 C 
ATOM      5  C   UNL     1       4.229   6.738  16.720  0.00  0.00    +0.000 C 
ATOM      6  C   UNL     1       3.258   6.999  17.793  0.00  0.00    +0.000 A 
ATOM      7  C   UNL     1       2.470   8.115  17.960  0.00  0.00    +0.000 A 
ATOM      8  C   UNL     1       1.798   8.228  19.166  0.00  0.00    +0.000 A 
ATOM      9  C   UNL     1       1.277   9.517  19.588  0.00  0.00    +0.000 A 
ATOM     10  C   UNL     1       0.571   9.587  20.718  0.00  0.00    +0.000 A 
ATOM     11  C   UNL     1       0.211   8.375  21.475  0.00  0.00    +0.000 A 
ATOM     12  O   UNL     1      -0.671   8.419  22.325  0.00  0.00    +0.000 OA
ATOM     13  O   UNL     1       0.951   7.224  21.209  0.00  0.00    +0.000 OA
ATOM     14  C   UNL     1       1.786   7.151  20.071  0.00  0.00    +0.000 A 
ATOM     15  C   UNL     1       2.616   6.030  19.905  0.00  0.00    +0.000 A 
ATOM     16  C   UNL     1       3.426   6.040  18.787  0.00  0.00    +0.000 A 
ATOM     17  O   UNL     1       4.587   5.290  18.551  0.00  0.00    +0.000 OA
ENDBRANCH   2   4
BRANCH   2  18
ATOM     18  O   UNL     1       7.608   6.814  16.832  0.00  0.00    +0.000 OA
BRANCH  18  19
ATOM     19  C   UNL     1       7.989   7.425  17.978  0.00  0.00    +0.000 C 
ATOM     20  O   UNL     1       8.169   6.900  19.063  0.00  0.00    +0.000 OA
BRANCH  19  21
ATOM     21  C   UNL     1       8.139   8.864  17.719  0.00  0.00    +0.000 C 
ATOM     22  C   UNL     1       8.950   9.592  18.501  0.00  0.00    +0.000 C 
BRANCH  22  23
ATOM     23  C   UNL     1       9.239  11.027  18.356  0.00  0.00    +0.000 A 
ATOM     24  C   UNL     1       8.315  11.949  17.850  0.00  0.00    +0.000 A 
ATOM     25  C   UNL     1       8.638  13.309  17.760  0.00  0.00    +0.000 A 
ATOM     26  C   UNL     1       9.887  13.748  18.185  0.00  0.00    +0.000 A 
ATOM     27  C   UNL     1      10.811  12.853  18.706  0.00  0.00    +0.000 A 
ATOM     28  C   UNL     1      10.485  11.498  18.798  0.00  0.00    +0.000 A 
BRANCH  26  29
ATOM     29  O   UNL     1      10.245  15.061  18.113  0.00  0.00    +0.000 OA
ATOM     30  H   UNL     1       9.593  15.589  18.602  0.00  0.00    +0.000 HD
ENDBRANCH  26  29
ENDBRANCH  22  23
ENDBRANCH  19  21
ENDBRANCH  18  19
ENDBRANCH   2  18
TORSDOF 6
ENDMDL
MODEL 4
REMARK VINA RESULT:      -8.3      2.681      4.335
REMARK  Name = 
REMARK  8 active torsions:
REMARK  status: ('A' for Active; 'I' for Inactive)
REMARK    1  A    between atoms: C_1  and  C_2
REMARK    2  A    between atoms: C_2  and  C_3
REMARK    3  A    between atoms: C_2  and  O_4
REMARK    4  A    between atoms: C_2  and  C_16
REMARK    5  A    between atoms: O_4  and  C_5
REMARK    6  A    between atoms: C_5  and  C_7
REMARK    7  A    between atoms: C_8  and  C_9
REMARK    8  A    between atoms: C_12  and  O_13
REMARK                            x       y       z     vdW  Elec       q    Type
REMARK                         _______ _______ _______ _____ _____    ______ ____
ROOT
ATOM      1  C   UNL     1       5.084   4.324  16.892  0.00  0.00    +0.000 C 
ATOM      2  C   UNL     1       5.372   5.081  18.195  0.00  0.00    +0.000 C 
ATOM      3  C   UNL     1       5.349   3.996  19.321  0.00  0.00    +0.000 C 
ENDROOT
BRANCH   2   4
ATOM      4  C   UNL     1       4.294   6.134  18.595  0.00  0.00    +0.000 C 
ATOM      5  C   UNL     1       3.379   6.466  17.413  0.00  0.00    +0.000 C 
ATOM      6  C   UNL     1       2.556   7.420  18.170  0.00  0.00    +0.000 A 
ATOM      7  C   UNL     1       2.125   8.663  17.766  0.00  0.00    +0.000 A 
ATOM      8  C   UNL     1       1.550   9.468  18.736  0.00  0.00    +0.000 A 
ATOM      9  C   UNL     1       1.431  10.899  18.515  0.00  0.00    +0.000 A 
ATOM     10  C   UNL     1       0.808  11.642  19.431  0.00  0.00    +0.000 A 
ATOM     11  C   UNL     1       0.141  11.029  20.593  0.00  0.00    +0.000 A 
ATOM     12  O   UNL     1      -0.666  11.676  21.251  0.00  0.00    +0.000 OA
ATOM     13  O   UNL     1       0.513   9.726  20.917  0.00  0.00    +0.000 OA
ATOM     14  C   UNL     1       1.257   8.942  20.008  0.00  0.00    +0.000 A 
ATOM     15  C   UNL     1       1.728   7.683  20.419  0.00  0.00    +0.000 A 
ATOM     16  C   UNL     1       2.473   6.985  19.489  0.00  0.00    +0.000 A 
ATOM     17  O   UNL     1       3.364   5.926  19.711  0.00  0.00    +0.000 OA
ENDBRANCH   2   4
BRANCH   2  18
ATOM     18  O   UNL     1       6.726   5.598  18.234  0.00  0.00    +0.000 OA
BRANCH  18  19
ATOM     19  C   UNL     1       7.097   6.558  17.355  0.00  0.00    +0.000 C 
ATOM     20  O   UNL     1       6.837   6.602  16.165  0.00  0.00    +0.000 OA
BRANCH  19  21
ATOM     21  C   UNL     1       7.902   7.562  18.064  0.00  0.00    +0.000 C 
ATOM     22  C   UNL     1       7.860   8.842  17.664  0.00  0.00    +0.000 C 
BRANCH  22  23
ATOM     23  C   UNL     1       8.571   9.971  18.283  0.00  0.00    +0.000 A 
ATOM     24  C   UNL     1       8.677  11.232  17.686  0.00  0.00    +0.000 A 
ATOM     25  C   UNL     1       9.346  12.278  18.335  0.00  0.00    +0.000 A 
ATOM     26  C   UNL     1       9.904  12.060  19.590  0.00  0.00    +0.000 A 
ATOM     27  C   UNL     1       9.796  10.822  20.208  0.00  0.00    +0.000 A 
ATOM     28  C   UNL     1       9.125   9.783  19.558  0.00  0.00    +0.000 A 
BRANCH  26  29
ATOM     29  O   UNL     1      10.567  13.047  20.258  0.00  0.00    +0.000 OA
ATOM     30  H   UNL     1      10.427  12.926  21.211  0.00  0.00    +0.000 HD
ENDBRANCH  26  29
ENDBRANCH  22  23
ENDBRANCH  19  21
ENDBRANCH  18  19
ENDBRANCH   2  18
TORSDOF 6
ENDMDL
MODEL 5
REMARK VINA RESULT:      -8.0      2.854      4.465
REMARK  Name = 
REMARK  8 active torsions:
REMARK  status: ('A' for Active; 'I' for Inactive)
REMARK    1  A    between atoms: C_1  and  C_2
REMARK    2  A    between atoms: C_2  and  C_3
REMARK    3  A    between atoms: C_2  and  O_4
REMARK    4  A    between atoms: C_2  and  C_16
REMARK    5  A    between atoms: O_4  and  C_5
REMARK    6  A    between atoms: C_5  and  C_7
REMARK    7  A    between atoms: C_8  and  C_9
REMARK    8  A    between atoms: C_12  and  O_13
REMARK                            x       y       z     vdW  Elec       q    Type
REMARK                         _______ _______ _______ _____ _____    ______ ____
ROOT
ATOM      1  C   UNL     1       4.870   6.632  16.039  0.00  0.00    +0.000 C 
ATOM      2  C   UNL     1       4.895   6.285  17.534  0.00  0.00    +0.000 C 
ATOM      3  C   UNL     1       4.542   4.763  17.613  0.00  0.00    +0.000 C 
ENDROOT
BRANCH   2   4
ATOM      4  C   UNL     1       3.822   7.018  18.396  0.00  0.00    +0.000 C 
ATOM      5  C   UNL     1       2.691   7.567  17.523  0.00  0.00    +0.000 C 
ATOM      6  C   UNL     1       1.939   8.132  18.654  0.00  0.00    +0.000 A 
ATOM      7  C   UNL     1       1.346   9.371  18.733  0.00  0.00    +0.000 A 
ATOM      8  C   UNL     1       0.887   9.763  19.979  0.00  0.00    +0.000 A 
ATOM      9  C   UNL     1       0.617  11.166  20.244  0.00  0.00    +0.000 A 
ATOM     10  C   UNL     1       0.107  11.511  21.428  0.00  0.00    +0.000 A 
ATOM     11  C   UNL     1      -0.296  10.494  22.416  0.00  0.00    +0.000 A 
ATOM     12  O   UNL     1      -1.024  10.801  23.354  0.00  0.00    +0.000 OA
ATOM     13  O   UNL     1       0.231   9.214  22.252  0.00  0.00    +0.000 OA
ATOM     14  C   UNL     1       0.865   8.845  21.045  0.00  0.00    +0.000 A 
ATOM     15  C   UNL     1       1.500   7.594  20.962  0.00  0.00    +0.000 A 
ATOM     16  C   UNL     1       2.125   7.313  19.763  0.00  0.00    +0.000 A 
ATOM     17  O   UNL     1       3.122   6.363  19.508  0.00  0.00    +0.000 OA
ENDBRANCH   2   4
BRANCH   2  18
ATOM     18  O   UNL     1       6.233   6.364  18.086  0.00  0.00    +0.000 OA
BRANCH  18  19
ATOM     19  C   UNL     1       7.295   6.423  17.250  0.00  0.00    +0.000 C 
ATOM     20  O   UNL     1       7.774   5.504  16.608  0.00  0.00    +0.000 OA
BRANCH  19  21
ATOM     21  C   UNL     1       7.817   7.797  17.244  0.00  0.00    +0.000 C 
ATOM     22  C   UNL     1       8.115   8.393  18.409  0.00  0.00    +0.000 C 
BRANCH  22  23
ATOM     23  C   UNL     1       8.677   9.741  18.577  0.00  0.00    +0.000 A 
ATOM     24  C   UNL     1       9.602  10.069  19.576  0.00  0.00    +0.000 A 
ATOM     25  C   UNL     1      10.123  11.365  19.671  0.00  0.00    +0.000 A 
ATOM     26  C   UNL     1       9.722  12.335  18.758  0.00  0.00    +0.000 A 
ATOM     27  C   UNL     1       8.819  12.028  17.750  0.00  0.00    +0.000 A 
ATOM     28  C   UNL     1       8.304  10.732  17.656  0.00  0.00    +0.000 A 
BRANCH  26  29
ATOM     29  O   UNL     1      10.200  13.611  18.815  0.00  0.00    +0.000 OA
ATOM     30  H   UNL     1      11.148  13.597  18.605  0.00  0.00    +0.000 HD
ENDBRANCH  26  29
ENDBRANCH  22  23
ENDBRANCH  19  21
ENDBRANCH  18  19
ENDBRANCH   2  18
TORSDOF 6
ENDMDL
MODEL 6
REMARK VINA RESULT:      -7.8      0.684      1.118
REMARK  Name = 
REMARK  8 active torsions:
REMARK  status: ('A' for Active; 'I' for Inactive)
REMARK    1  A    between atoms: C_1  and  C_2
REMARK    2  A    between atoms: C_2  and  C_3
REMARK    3  A    between atoms: C_2  and  O_4
REMARK    4  A    between atoms: C_2  and  C_16
REMARK    5  A    between atoms: O_4  and  C_5
REMARK    6  A    between atoms: C_5  and  C_7
REMARK    7  A    between atoms: C_8  and  C_9
REMARK    8  A    between atoms: C_12  and  O_13
REMARK                            x       y       z     vdW  Elec       q    Type
REMARK                         _______ _______ _______ _____ _____    ______ ____
ROOT
ATOM      1  C   UNL     1       0.316   2.484  19.231  0.00  0.00    +0.000 C 
ATOM      2  C   UNL     1       1.669   3.177  19.023  0.00  0.00    +0.000 C 
ATOM      3  C   UNL     1       2.553   2.736  20.237  0.00  0.00    +0.000 C 
ENDROOT
BRANCH   2   4
ATOM      4  C   UNL     1       1.624   4.734  19.071  0.00  0.00    +0.000 C 
ATOM      5  C   UNL     1       2.234   5.266  20.370  0.00  0.00    +0.000 C 
ATOM      6  C   UNL     1       2.019   6.680  20.027  0.00  0.00    +0.000 A 
ATOM      7  C   UNL     1       1.526   7.675  20.838  0.00  0.00    +0.000 A 
ATOM      8  C   UNL     1       1.205   8.876  20.226  0.00  0.00    +0.000 A 
ATOM      9  C   UNL     1       0.332   9.823  20.898  0.00  0.00    +0.000 A 
ATOM     10  C   UNL     1       0.096  11.002  20.321  0.00  0.00    +0.000 A 
ATOM     11  C   UNL     1       0.791  11.406  19.087  0.00  0.00    +0.000 A 
ATOM     12  O   UNL     1       0.795  12.581  18.738  0.00  0.00    +0.000 OA
ATOM     13  O   UNL     1       1.381  10.390  18.336  0.00  0.00    +0.000 OA
ATOM     14  C   UNL     1       1.559   9.100  18.883  0.00  0.00    +0.000 A 
ATOM     15  C   UNL     1       2.034   8.068  18.056  0.00  0.00    +0.000 A 
ATOM     16  C   UNL     1       2.155   6.827  18.650  0.00  0.00    +0.000 A 
ATOM     17  O   UNL     1       2.230   5.573  18.029  0.00  0.00    +0.000 OA
ENDBRANCH   2   4
BRANCH   2  18
ATOM     18  O   UNL     1       2.373   2.654  17.869  0.00  0.00    +0.000 OA
BRANCH  18  19
ATOM     19  C   UNL     1       3.670   2.287  17.990  0.00  0.00    +0.000 C 
ATOM     20  O   UNL     1       4.093   1.218  18.397  0.00  0.00    +0.000 OA
BRANCH  19  21
ATOM     21  C   UNL     1       4.521   3.407  17.567  0.00  0.00    +0.000 C 
ATOM     22  C   UNL     1       5.025   4.238  18.493  0.00  0.00    +0.000 C 
BRANCH  22  23
ATOM     23  C   UNL     1       5.918   5.379  18.243  0.00  0.00    +0.000 A 
ATOM     24  C   UNL     1       5.597   6.429  17.374  0.00  0.00    +0.000 A 
ATOM     25  C   UNL     1       6.477   7.504  17.196  0.00  0.00    +0.000 A 
ATOM     26  C   UNL     1       7.679   7.530  17.895  0.00  0.00    +0.000 A 
ATOM     27  C   UNL     1       8.009   6.508  18.774  0.00  0.00    +0.000 A 
ATOM     28  C   UNL     1       7.127   5.440  18.952  0.00  0.00    +0.000 A 
BRANCH  26  29
ATOM     29  O   UNL     1       8.568   8.555  17.750  0.00  0.00    +0.000 OA
ATOM     30  H   UNL     1       9.280   8.442  18.400  0.00  0.00    +0.000 HD
ENDBRANCH  26  29
ENDBRANCH  22  23
ENDBRANCH  19  21
ENDBRANCH  18  19
ENDBRANCH   2  18
TORSDOF 6
ENDMDL
MODEL 7
REMARK VINA RESULT:      -7.8      1.768      1.986
REMARK  Name = 
REMARK  8 active torsions:
REMARK  status: ('A' for Active; 'I' for Inactive)
REMARK    1  A    between atoms: C_1  and  C_2
REMARK    2  A    between atoms: C_2  and  C_3
REMARK    3  A    between atoms: C_2  and  O_4
REMARK    4  A    between atoms: C_2  and  C_16
REMARK    5  A    between atoms: O_4  and  C_5
REMARK    6  A    between atoms: C_5  and  C_7
REMARK    7  A    between atoms: C_8  and  C_9
REMARK    8  A    between atoms: C_12  and  O_13
REMARK                            x       y       z     vdW  Elec       q    Type
REMARK                         _______ _______ _______ _____ _____    ______ ____
ROOT
ATOM      1  C   UNL     1       0.988   2.706  18.626  0.00  0.00    +0.000 C 
ATOM      2  C   UNL     1       1.764   3.475  19.704  0.00  0.00    +0.000 C 
ATOM      3  C   UNL     1       1.089   3.085  21.060  0.00  0.00    +0.000 C 
ENDROOT
BRANCH   2   4
ATOM      4  C   UNL     1       1.660   5.027  19.606  0.00  0.00    +0.000 C 
ATOM      5  C   UNL     1       2.011   5.691  20.940  0.00  0.00    +0.000 C 
ATOM      6  C   UNL     1       1.814   7.060  20.441  0.00  0.00    +0.000 A 
ATOM      7  C   UNL     1       1.152   8.094  21.063  0.00  0.00    +0.000 A 
ATOM      8  C   UNL     1       0.907   9.224  20.301  0.00  0.00    +0.000 A 
ATOM      9  C   UNL     1      -0.103  10.179  20.723  0.00  0.00    +0.000 A 
ATOM     10  C   UNL     1      -0.270  11.296  20.012  0.00  0.00    +0.000 A 
ATOM     11  C   UNL     1       0.621  11.631  18.888  0.00  0.00    +0.000 A 
ATOM     12  O   UNL     1       0.649  12.773  18.443  0.00  0.00    +0.000 OA
ATOM     13  O   UNL     1       1.369  10.587  18.344  0.00  0.00    +0.000 OA
ATOM     14  C   UNL     1       1.488   9.355  19.026  0.00  0.00    +0.000 A 
ATOM     15  C   UNL     1       2.136   8.283  18.389  0.00  0.00    +0.000 A 
ATOM     16  C   UNL     1       2.190   7.102  19.102  0.00  0.00    +0.000 A 
ATOM     17  O   UNL     1       2.415   5.807  18.617  0.00  0.00    +0.000 OA
ENDBRANCH   2   4
BRANCH   2  18
ATOM     18  O   UNL     1       3.125   2.994  19.838  0.00  0.00    +0.000 OA
BRANCH  18  19
ATOM     19  C   UNL     1       3.662   2.234  18.855  0.00  0.00    +0.000 C 
ATOM     20  O   UNL     1       3.382   1.079  18.586  0.00  0.00    +0.000 OA
BRANCH  19  21
ATOM     21  C   UNL     1       4.681   3.024  18.150  0.00  0.00    +0.000 C 
ATOM     22  C   UNL     1       4.680   3.053  16.809  0.00  0.00    +0.000 C 
BRANCH  22  23
ATOM     23  C   UNL     1       5.601   3.817  15.955  0.00  0.00    +0.000 A 
ATOM     24  C   UNL     1       6.471   4.797  16.448  0.00  0.00    +0.000 A 
ATOM     25  C   UNL     1       7.346   5.475  15.589  0.00  0.00    +0.000 A 
ATOM     26  C   UNL     1       7.354   5.166  14.234  0.00  0.00    +0.000 A 
ATOM     27  C   UNL     1       6.512   4.186  13.726  0.00  0.00    +0.000 A 
ATOM     28  C   UNL     1       5.644   3.509  14.586  0.00  0.00    +0.000 A 
BRANCH  26  29
ATOM     29  O   UNL     1       8.185   5.803  13.361  0.00  0.00    +0.000 OA
ATOM     30  H   UNL     1       9.052   5.915  13.784  0.00  0.00    +0.000 HD
ENDBRANCH  26  29
ENDBRANCH  22  23
ENDBRANCH  19  21
ENDBRANCH  18  19
ENDBRANCH   2  18
TORSDOF 6
ENDMDL
MODEL 8
REMARK VINA RESULT:      -7.8      2.169      5.154
REMARK  Name = 
REMARK  8 active torsions:
REMARK  status: ('A' for Active; 'I' for Inactive)
REMARK    1  A    between atoms: C_1  and  C_2
REMARK    2  A    between atoms: C_2  and  C_3
REMARK    3  A    between atoms: C_2  and  O_4
REMARK    4  A    between atoms: C_2  and  C_16
REMARK    5  A    between atoms: O_4  and  C_5
REMARK    6  A    between atoms: C_5  and  C_7
REMARK    7  A    between atoms: C_8  and  C_9
REMARK    8  A    between atoms: C_12  and  O_13
REMARK                            x       y       z     vdW  Elec       q    Type
REMARK                         _______ _______ _______ _____ _____    ______ ____
ROOT
ATOM      1  C   UNL     1       7.580   5.249  17.905  0.00  0.00    +0.000 C 
ATOM      2  C   UNL     1       6.749   6.298  17.153  0.00  0.00    +0.000 C 
ATOM      3  C   UNL     1       7.643   7.580  17.106  0.00  0.00    +0.000 C 
ENDROOT
BRANCH   2   4
ATOM      4  C   UNL     1       5.429   6.723  17.865  0.00  0.00    +0.000 C 
ATOM      5  C   UNL     1       4.343   7.084  16.848  0.00  0.00    +0.000 C 
ATOM      6  C   UNL     1       3.330   7.394  17.868  0.00  0.00    +0.000 A 
ATOM      7  C   UNL     1       2.475   8.470  17.902  0.00  0.00    +0.000 A 
ATOM      8  C   UNL     1       1.765   8.666  19.075  0.00  0.00    +0.000 A 
ATOM      9  C   UNL     1       1.159   9.957  19.351  0.00  0.00    +0.000 A 
ATOM     10  C   UNL     1       0.420  10.099  20.453  0.00  0.00    +0.000 A 
ATOM     11  C   UNL     1       0.112   8.951  21.324  0.00  0.00    +0.000 A 
ATOM     12  O   UNL     1      -0.794   9.028  22.147  0.00  0.00    +0.000 OA
ATOM     13  O   UNL     1       0.924   7.826  21.194  0.00  0.00    +0.000 OA
ATOM     14  C   UNL     1       1.792   7.688  20.087  0.00  0.00    +0.000 A 
ATOM     15  C   UNL     1       2.691   6.609  20.055  0.00  0.00    +0.000 A 
ATOM     16  C   UNL     1       3.529   6.553  18.959  0.00  0.00    +0.000 A 
ATOM     17  O   UNL     1       4.737   5.856  18.826  0.00  0.00    +0.000 OA
ENDBRANCH   2   4
BRANCH   2  18
ATOM     18  O   UNL     1       6.566   5.946  15.759  0.00  0.00    +0.000 OA
BRANCH  18  19
ATOM     19  C   UNL     1       6.167   4.694  15.435  0.00  0.00    +0.000 C 
ATOM     20  O   UNL     1       6.772   3.886  14.752  0.00  0.00    +0.000 OA
BRANCH  19  21
ATOM     21  C   UNL     1       4.845   4.451  16.030  0.00  0.00    +0.000 C 
ATOM     22  C   UNL     1       4.670   3.392  16.835  0.00  0.00    +0.000 C 
BRANCH  22  23
ATOM     23  C   UNL     1       3.429   3.027  17.535  0.00  0.00    +0.000 A 
ATOM     24  C   UNL     1       3.329   1.930  18.399  0.00  0.00    +0.000 A 
ATOM     25  C   UNL     1       2.127   1.647  19.060  0.00  0.00    +0.000 A 
ATOM     26  C   UNL     1       1.023   2.470  18.859  0.00  0.00    +0.000 A 
ATOM     27  C   UNL     1       1.106   3.572  18.020  0.00  0.00    +0.000 A 
ATOM     28  C   UNL     1       2.308   3.853  17.366  0.00  0.00    +0.000 A 
BRANCH  26  29
ATOM     29  O   UNL     1      -0.168   2.230  19.478  0.00  0.00    +0.000 OA
ATOM     30  H   UNL     1      -0.494   1.360  19.198  0.00  0.00    +0.000 HD
ENDBRANCH  26  29
ENDBRANCH  22  23
ENDBRANCH  19  21
ENDBRANCH  18  19
ENDBRANCH   2  18
TORSDOF 6
ENDMDL
MODEL 9
REMARK VINA RESULT:      -7.8      4.097      6.697
REMARK  Name = 
REMARK  8 active torsions:
REMARK  status: ('A' for Active; 'I' for Inactive)
REMARK    1  A    between atoms: C_1  and  C_2
REMARK    2  A    between atoms: C_2  and  C_3
REMARK    3  A    between atoms: C_2  and  O_4
REMARK    4  A    between atoms: C_2  and  C_16
REMARK    5  A    between atoms: O_4  and  C_5
REMARK    6  A    between atoms: C_5  and  C_7
REMARK    7  A    between atoms: C_8  and  C_9
REMARK    8  A    between atoms: C_12  and  O_13
REMARK                            x       y       z     vdW  Elec       q    Type
REMARK                         _______ _______ _______ _____ _____    ______ ____
ROOT
ATOM      1  C   UNL     1       5.716   7.001  15.177  0.00  0.00    +0.000 C 
ATOM      2  C   UNL     1       6.423   5.897  15.975  0.00  0.00    +0.000 C 
ATOM      3  C   UNL     1       6.866   4.836  14.914  0.00  0.00    +0.000 C 
ENDROOT
BRANCH   2   4
ATOM      4  C   UNL     1       5.516   5.135  16.988  0.00  0.00    +0.000 C 
ATOM      5  C   UNL     1       4.530   4.214  16.265  0.00  0.00    +0.000 C 
ATOM      6  C   UNL     1       3.916   3.710  17.502  0.00  0.00    +0.000 A 
ATOM      7  C   UNL     1       2.577   3.542  17.768  0.00  0.00    +0.000 A 
ATOM      8  C   UNL     1       2.232   3.263  19.080  0.00  0.00    +0.000 A 
ATOM      9  C   UNL     1       0.864   3.459  19.529  0.00  0.00    +0.000 A 
ATOM     10  C   UNL     1       0.540   3.115  20.777  0.00  0.00    +0.000 A 
ATOM     11  C   UNL     1       1.505   2.436  21.660  0.00  0.00    +0.000 A 
ATOM     12  O   UNL     1       1.116   1.867  22.674  0.00  0.00    +0.000 OA
ATOM     13  O   UNL     1       2.851   2.525  21.310  0.00  0.00    +0.000 OA
ATOM     14  C   UNL     1       3.233   2.978  20.027  0.00  0.00    +0.000 A 
ATOM     15  C   UNL     1       4.596   3.181  19.753  0.00  0.00    +0.000 A 
ATOM     16  C   UNL     1       4.894   3.654  18.490  0.00  0.00    +0.000 A 
ATOM     17  O   UNL     1       6.064   4.291  18.057  0.00  0.00    +0.000 OA
ENDBRANCH   2   4
BRANCH   2  18
ATOM     18  O   UNL     1       7.670   6.359  16.551  0.00  0.00    +0.000 OA
BRANCH  18  19
ATOM     19  C   UNL     1       7.664   6.940  17.773  0.00  0.00    +0.000 C 
ATOM     20  O   UNL     1       7.483   6.388  18.845  0.00  0.00    +0.000 OA
BRANCH  19  21
ATOM     21  C   UNL     1       7.893   8.383  17.613  0.00  0.00    +0.000 C 
ATOM     22  C   UNL     1       8.647   9.034  18.512  0.00  0.00    +0.000 C 
BRANCH  22  23
ATOM     23  C   UNL     1       9.002  10.460  18.479  0.00  0.00    +0.000 A 
ATOM     24  C   UNL     1       8.373  11.389  17.640  0.00  0.00    +0.000 A 
ATOM     25  C   UNL     1       8.736  12.741  17.671  0.00  0.00    +0.000 A 
ATOM     26  C   UNL     1       9.726  13.166  18.550  0.00  0.00    +0.000 A 
ATOM     27  C   UNL     1      10.350  12.266  19.402  0.00  0.00    +0.000 A 
ATOM     28  C   UNL     1       9.983  10.918  19.371  0.00  0.00    +0.000 A 
BRANCH  26  29
ATOM     29  O   UNL     1      10.114  14.472  18.612  0.00  0.00    +0.000 OA
ATOM     30  H   UNL     1      10.685  14.663  17.851  0.00  0.00    +0.000 HD
ENDBRANCH  26  29
ENDBRANCH  22  23
ENDBRANCH  19  21
ENDBRANCH  18  19
ENDBRANCH   2  18
TORSDOF 6
ENDMDL
