MODEL 1
REMARK VINA RESULT:      -7.9      0.000      0.000
REMARK  Name = 
REMARK  7 active torsions:
REMARK  status: ('A' for Active; 'I' for Inactive)
REMARK    1  A    between atoms: C_1  and  O_2
REMARK    2  A    between atoms: O_2  and  C_3
REMARK    3  A    between atoms: N_11  and  C_12
REMARK    4  A    between atoms: C_12  and  C_13
REMARK    5  A    between atoms: C_13  and  C_14
REMARK    6  A    between atoms: C_14  and  N_15
REMARK    7  A    between atoms: C_20  and  C_22
REMARK                            x       y       z     vdW  Elec       q    Type
REMARK                         _______ _______ _______ _____ _____    ______ ____
ROOT
ATOM      1  C   UNL     1       0.948  11.257  19.343  0.00  0.00    +0.000 A 
ATOM      2  C   UNL     1       0.256  12.141  20.184  0.00  0.00    +0.000 A 
ATOM      3  C   UNL     1      -0.209  11.724  21.427  0.00  0.00    +0.000 A 
ATOM      4  C   UNL     1       0.004  10.418  21.868  0.00  0.00    +0.000 A 
ATOM      5 CL   UNL     1      -0.587   9.957  23.418  0.00  0.00    +0.000 Cl
ATOM      6  C   UNL     1       0.685   9.522  21.031  0.00  0.00    +0.000 A 
ATOM      7  S   UNL     1       1.115   7.876  21.284  0.00  0.00    +0.000 S 
ATOM      8  C   UNL     1       1.799   7.761  19.718  0.00  0.00    +0.000 A 
ATOM      9  N   UNL     1       2.407   6.573  19.232  0.00  0.00    +0.000 N 
ATOM     10  C   UNL     1       2.034   5.324  19.813  0.00  0.00    +0.000 C 
ATOM     11  O   UNL     1       1.199   5.175  20.704  0.00  0.00    +0.000 OA
ATOM     12  N   UNL     1       1.780   8.900  19.062  0.00  0.00    +0.000 NA
ATOM     13  C   UNL     1       1.146   9.914  19.773  0.00  0.00    +0.000 A 
ENDROOT
BRANCH  10  14
ATOM     14  C   UNL     1       2.576   4.011  19.313  0.00  0.00    +0.000 A 
ATOM     15  C   UNL     1       2.017   3.501  18.121  0.00  0.00    +0.000 A 
ATOM     16  C   UNL     1       2.443   2.284  17.576  0.00  0.00    +0.000 A 
ATOM     17  C   UNL     1       3.455   1.566  18.206  0.00  0.00    +0.000 A 
ATOM     18  C   UNL     1       3.974   2.041  19.402  0.00  0.00    +0.000 A 
ATOM     19  F   UNL     1       4.937   1.346  20.022  0.00  0.00    +0.000 F 
ATOM     20  C   UNL     1       3.512   3.222  19.981  0.00  0.00    +0.000 A 
ENDBRANCH  10  14
BRANCH   1  22
ATOM     21  C   UNL     1       2.333  12.688  18.042  0.00  0.00    +0.000 C 
ATOM     22  O   UNL     1       1.398  11.611  18.093  0.00  0.00    +0.000 OA
ENDBRANCH   1  22
BRANCH   9  23
ATOM     23  C   UNL     1       3.284   6.621  18.038  0.00  0.00    +0.000 C 
BRANCH  23  24
ATOM     24  C   UNL     1       4.785   6.882  18.191  0.00  0.00    +0.000 C 
BRANCH  24  25
ATOM     25  C   UNL     1       5.589   5.586  18.228  0.00  0.00    +0.000 C 
BRANCH  25  26
ATOM     26  N   UNL     1       6.041   5.224  16.898  0.00  0.00    +0.000 N 
ATOM     27  C   UNL     1       5.480   4.284  16.080  0.00  0.00    +0.000 A 
ATOM     28  C   UNL     1       6.299   4.248  14.977  0.00  0.00    +0.000 A 
ATOM     29  N   UNL     1       7.325   5.148  15.099  0.00  0.00    +0.000 NA
ATOM     30  C   UNL     1       7.148   5.719  16.272  0.00  0.00    +0.000 A 
ENDBRANCH  25  26
ENDBRANCH  24  25
ENDBRANCH  23  24
ENDBRANCH   9  23
TORSDOF 6
ENDMDL
MODEL 2
REMARK VINA RESULT:      -7.5      2.886      4.372
REMARK  Name = 
REMARK  7 active torsions:
REMARK  status: ('A' for Active; 'I' for Inactive)
REMARK    1  A    between atoms: C_1  and  O_2
REMARK    2  A    between atoms: O_2  and  C_3
REMARK    3  A    between atoms: N_11  and  C_12
REMARK    4  A    between atoms: C_12  and  C_13
REMARK    5  A    between atoms: C_13  and  C_14
REMARK    6  A    between atoms: C_14  and  N_15
REMARK    7  A    between atoms: C_20  and  C_22
REMARK                            x       y       z     vdW  Elec       q    Type
REMARK                         _______ _______ _______ _____ _____    ______ ____
ROOT
ATOM      1  C   UNL     1      -0.211  11.004  21.718  0.00  0.00    +0.000 A 
ATOM      2  C   UNL     1      -1.027  12.125  21.509  0.00  0.00    +0.000 A 
ATOM      3  C   UNL     1      -1.333  12.554  20.222  0.00  0.00    +0.000 A 
ATOM      4  C   UNL     1      -0.835  11.877  19.107  0.00  0.00    +0.000 A 
ATOM      5 CL   UNL     1      -1.248  12.447  17.536  0.00  0.00    +0.000 Cl
ATOM      6  C   UNL     1      -0.008  10.762  19.304  0.00  0.00    +0.000 A 
ATOM      7  S   UNL     1       0.740   9.719  18.159  0.00  0.00    +0.000 S 
ATOM      8  C   UNL     1       1.505   8.820  19.401  0.00  0.00    +0.000 A 
ATOM      9  N   UNL     1       2.336   7.699  19.136  0.00  0.00    +0.000 N 
ATOM     10  C   UNL     1       2.954   7.592  17.854  0.00  0.00    +0.000 C 
ATOM     11  O   UNL     1       2.848   8.411  16.942  0.00  0.00    +0.000 OA
ATOM     12  N   UNL     1       1.169   9.220  20.607  0.00  0.00    +0.000 NA
ATOM     13  C   UNL     1       0.324  10.324  20.587  0.00  0.00    +0.000 A 
ENDROOT
BRANCH  10  14
ATOM     14  C   UNL     1       3.905   6.476  17.512  0.00  0.00    +0.000 A 
ATOM     15  C   UNL     1       3.352   5.185  17.366  0.00  0.00    +0.000 A 
ATOM     16  C   UNL     1       4.151   4.078  17.058  0.00  0.00    +0.000 A 
ATOM     17  C   UNL     1       5.518   4.249  16.868  0.00  0.00    +0.000 A 
ATOM     18  C   UNL     1       6.073   5.507  17.057  0.00  0.00    +0.000 A 
ATOM     19  F   UNL     1       7.391   5.675  16.891  0.00  0.00    +0.000 F 
ATOM     20  C   UNL     1       5.292   6.602  17.422  0.00  0.00    +0.000 A 
ENDBRANCH  10  14
BRANCH   1  22
ATOM     21  C   UNL     1      -0.589   9.447  23.477  0.00  0.00    +0.000 C 
ATOM     22  O   UNL     1       0.145  10.561  22.970  0.00  0.00    +0.000 OA
ENDBRANCH   1  22
BRANCH   9  23
ATOM     23  C   UNL     1       2.679   6.754  20.224  0.00  0.00    +0.000 C 
BRANCH  23  24
ATOM     24  C   UNL     1       1.622   5.794  20.778  0.00  0.00    +0.000 C 
BRANCH  24  25
ATOM     25  C   UNL     1       2.222   4.445  21.161  0.00  0.00    +0.000 C 
BRANCH  25  26
ATOM     26  N   UNL     1       1.898   3.439  20.166  0.00  0.00    +0.000 N 
ATOM     27  C   UNL     1       2.676   2.372  19.812  0.00  0.00    +0.000 A 
ATOM     28  C   UNL     1       1.988   1.765  18.789  0.00  0.00    +0.000 A 
ATOM     29  N   UNL     1       0.815   2.422  18.528  0.00  0.00    +0.000 NA
ATOM     30  C   UNL     1       0.790   3.433  19.371  0.00  0.00    +0.000 A 
ENDBRANCH  25  26
ENDBRANCH  24  25
ENDBRANCH  23  24
ENDBRANCH   9  23
TORSDOF 6
ENDMDL
MODEL 3
REMARK VINA RESULT:      -7.5      3.969      8.985
REMARK  Name = 
REMARK  7 active torsions:
REMARK  status: ('A' for Active; 'I' for Inactive)
REMARK    1  A    between atoms: C_1  and  O_2
REMARK    2  A    between atoms: O_2  and  C_3
REMARK    3  A    between atoms: N_11  and  C_12
REMARK    4  A    between atoms: C_12  and  C_13
REMARK    5  A    between atoms: C_13  and  C_14
REMARK    6  A    between atoms: C_14  and  N_15
REMARK    7  A    between atoms: C_20  and  C_22
REMARK                            x       y       z     vdW  Elec       q    Type
REMARK                         _______ _______ _______ _____ _____    ______ ____
ROOT
ATOM      1  C   UNL     1       2.946   3.698  20.461  0.00  0.00    +0.000 A 
ATOM      2  C   UNL     1       3.589   2.611  19.850  0.00  0.00    +0.000 A 
ATOM      3  C   UNL     1       4.157   2.738  18.588  0.00  0.00    +0.000 A 
ATOM      4  C   UNL     1       4.102   3.950  17.898  0.00  0.00    +0.000 A 
ATOM      5 CL   UNL     1       4.827   4.054  16.340  0.00  0.00    +0.000 Cl
ATOM      6  C   UNL     1       3.451   5.040  18.493  0.00  0.00    +0.000 A 
ATOM      7  S   UNL     1       3.229   6.647  17.922  0.00  0.00    +0.000 S 
ATOM      8  C   UNL     1       2.316   7.069  19.309  0.00  0.00    +0.000 A 
ATOM      9  N   UNL     1       1.788   8.371  19.512  0.00  0.00    +0.000 N 
ATOM     10  C   UNL     1       1.570   9.208  18.377  0.00  0.00    +0.000 C 
ATOM     11  O   UNL     1       1.782   8.890  17.208  0.00  0.00    +0.000 OA
ATOM     12  N   UNL     1       2.238   6.096  20.189  0.00  0.00    +0.000 NA
ATOM     13  C   UNL     1       2.861   4.930  19.753  0.00  0.00    +0.000 A 
ENDROOT
BRANCH  10  14
ATOM     14  C   UNL     1       0.949  10.574  18.494  0.00  0.00    +0.000 A 
ATOM     15  C   UNL     1       1.825  11.662  18.697  0.00  0.00    +0.000 A 
ATOM     16  C   UNL     1       1.349  12.971  18.828  0.00  0.00    +0.000 A 
ATOM     17  C   UNL     1      -0.017  13.217  18.736  0.00  0.00    +0.000 A 
ATOM     18  C   UNL     1      -0.886  12.146  18.584  0.00  0.00    +0.000 A 
ATOM     19  F   UNL     1      -2.204  12.375  18.510  0.00  0.00    +0.000 F 
ATOM     20  C   UNL     1      -0.423  10.834  18.512  0.00  0.00    +0.000 A 
ENDBRANCH  10  14
BRANCH   1  22
ATOM     21  C   UNL     1       1.459   2.508  21.887  0.00  0.00    +0.000 C 
ATOM     22  O   UNL     1       2.341   3.613  21.693  0.00  0.00    +0.000 OA
ENDBRANCH   1  22
BRANCH   9  23
ATOM     23  C   UNL     1       1.324   8.783  20.858  0.00  0.00    +0.000 C 
BRANCH  23  24
ATOM     24  C   UNL     1      -0.164   8.719  21.216  0.00  0.00    +0.000 C 
BRANCH  24  25
ATOM     25  C   UNL     1      -0.425   9.174  22.649  0.00  0.00    +0.000 C 
BRANCH  25  26
ATOM     26  N   UNL     1      -0.753  10.587  22.686  0.00  0.00    +0.000 N 
ATOM     27  C   UNL     1      -1.861  11.146  23.260  0.00  0.00    +0.000 A 
ATOM     28  C   UNL     1      -1.763  12.486  22.970  0.00  0.00    +0.000 A 
ATOM     29  N   UNL     1      -0.625  12.752  22.256  0.00  0.00    +0.000 NA
ATOM     30  C   UNL     1      -0.038  11.586  22.094  0.00  0.00    +0.000 A 
ENDBRANCH  25  26
ENDBRANCH  24  25
ENDBRANCH  23  24
ENDBRANCH   9  23
TORSDOF 6
ENDMDL
MODEL 4
REMARK VINA RESULT:      -7.4      2.757      4.321
REMARK  Name = 
REMARK  7 active torsions:
REMARK  status: ('A' for Active; 'I' for Inactive)
REMARK    1  A    between atoms: C_1  and  O_2
REMARK    2  A    between atoms: O_2  and  C_3
REMARK    3  A    between atoms: N_11  and  C_12
REMARK    4  A    between atoms: C_12  and  C_13
REMARK    5  A    between atoms: C_13  and  C_14
REMARK    6  A    between atoms: C_14  and  N_15
REMARK    7  A    between atoms: C_20  and  C_22
REMARK                            x       y       z     vdW  Elec       q    Type
REMARK                         _______ _______ _______ _____ _____    ______ ____
ROOT
ATOM      1  C   UNL     1      -0.222  11.010  21.851  0.00  0.00    +0.000 A 
ATOM      2  C   UNL     1      -1.015  12.153  21.671  0.00  0.00    +0.000 A 
ATOM      3  C   UNL     1      -1.296  12.631  20.395  0.00  0.00    +0.000 A 
ATOM      4  C   UNL     1      -0.796  11.984  19.264  0.00  0.00    +0.000 A 
ATOM      5 CL   UNL     1      -1.179  12.613  17.709  0.00  0.00    +0.000 Cl
ATOM      6  C   UNL     1       0.008  10.847  19.433  0.00  0.00    +0.000 A 
ATOM      7  S   UNL     1       0.751   9.830  18.262  0.00  0.00    +0.000 S 
ATOM      8  C   UNL     1       1.483   8.875  19.481  0.00  0.00    +0.000 A 
ATOM      9  N   UNL     1       2.297   7.748  19.187  0.00  0.00    +0.000 N 
ATOM     10  C   UNL     1       2.929   7.673  17.910  0.00  0.00    +0.000 C 
ATOM     11  O   UNL     1       2.849   8.524  17.026  0.00  0.00    +0.000 OA
ATOM     12  N   UNL     1       1.140   9.239  20.696  0.00  0.00    +0.000 NA
ATOM     13  C   UNL     1       0.315  10.360  20.704  0.00  0.00    +0.000 A 
ENDROOT
BRANCH  10  14
ATOM     14  C   UNL     1       3.864   6.552  17.541  0.00  0.00    +0.000 A 
ATOM     15  C   UNL     1       5.208   6.897  17.282  0.00  0.00    +0.000 A 
ATOM     16  C   UNL     1       6.155   5.931  16.923  0.00  0.00    +0.000 A 
ATOM     17  C   UNL     1       5.775   4.595  16.838  0.00  0.00    +0.000 A 
ATOM     18  C   UNL     1       4.445   4.258  17.045  0.00  0.00    +0.000 A 
ATOM     19  F   UNL     1       4.070   2.976  16.949  0.00  0.00    +0.000 F 
ATOM     20  C   UNL     1       3.485   5.223  17.345  0.00  0.00    +0.000 A 
ENDBRANCH  10  14
BRANCH   1  22
ATOM     21  C   UNL     1      -0.462   9.260  23.444  0.00  0.00    +0.000 C 
ATOM     22  O   UNL     1       0.111  10.519  23.091  0.00  0.00    +0.000 OA
ENDBRANCH   1  22
BRANCH   9  23
ATOM     23  C   UNL     1       2.609   6.761  20.247  0.00  0.00    +0.000 C 
BRANCH  23  24
ATOM     24  C   UNL     1       1.549   5.756  20.706  0.00  0.00    +0.000 C 
BRANCH  24  25
ATOM     25  C   UNL     1       2.172   4.462  21.219  0.00  0.00    +0.000 C 
BRANCH  25  26
ATOM     26  N   UNL     1       2.061   3.410  20.226  0.00  0.00    +0.000 N 
ATOM     27  C   UNL     1       0.957   3.121  19.473  0.00  0.00    +0.000 A 
ATOM     28  C   UNL     1       1.312   2.008  18.749  0.00  0.00    +0.000 A 
ATOM     29  N   UNL     1       2.598   1.630  19.030  0.00  0.00    +0.000 NA
ATOM     30  C   UNL     1       3.024   2.490  19.930  0.00  0.00    +0.000 A 
ENDBRANCH  25  26
ENDBRANCH  24  25
ENDBRANCH  23  24
ENDBRANCH   9  23
TORSDOF 6
ENDMDL
MODEL 5
REMARK VINA RESULT:      -7.4      3.954      9.007
REMARK  Name = 
REMARK  7 active torsions:
REMARK  status: ('A' for Active; 'I' for Inactive)
REMARK    1  A    between atoms: C_1  and  O_2
REMARK    2  A    between atoms: O_2  and  C_3
REMARK    3  A    between atoms: N_11  and  C_12
REMARK    4  A    between atoms: C_12  and  C_13
REMARK    5  A    between atoms: C_13  and  C_14
REMARK    6  A    between atoms: C_14  and  N_15
REMARK    7  A    between atoms: C_20  and  C_22
REMARK                            x       y       z     vdW  Elec       q    Type
REMARK                         _______ _______ _______ _____ _____    ______ ____
ROOT
ATOM      1  C   UNL     1       2.926   3.830  20.290  0.00  0.00    +0.000 A 
ATOM      2  C   UNL     1       3.535   2.738  19.655  0.00  0.00    +0.000 A 
ATOM      3  C   UNL     1       4.061   2.863  18.373  0.00  0.00    +0.000 A 
ATOM      4  C   UNL     1       3.996   4.078  17.689  0.00  0.00    +0.000 A 
ATOM      5 CL   UNL     1       4.667   4.179  16.108  0.00  0.00    +0.000 Cl
ATOM      6  C   UNL     1       3.378   5.173  18.311  0.00  0.00    +0.000 A 
ATOM      7  S   UNL     1       3.153   6.784  17.752  0.00  0.00    +0.000 S 
ATOM      8  C   UNL     1       2.294   7.211  19.171  0.00  0.00    +0.000 A 
ATOM      9  N   UNL     1       1.788   8.519  19.398  0.00  0.00    +0.000 N 
ATOM     10  C   UNL     1       1.540   9.362  18.273  0.00  0.00    +0.000 C 
ATOM     11  O   UNL     1       1.708   9.046  17.096  0.00  0.00    +0.000 OA
ATOM     12  N   UNL     1       2.236   6.236  20.051  0.00  0.00    +0.000 NA
ATOM     13  C   UNL     1       2.830   5.066  19.590  0.00  0.00    +0.000 A 
ENDROOT
BRANCH  10  14
ATOM     14  C   UNL     1       0.938  10.735  18.416  0.00  0.00    +0.000 A 
ATOM     15  C   UNL     1      -0.465  10.834  18.303  0.00  0.00    +0.000 A 
ATOM     16  C   UNL     1      -1.122  12.065  18.411  0.00  0.00    +0.000 A 
ATOM     17  C   UNL     1      -0.385  13.218  18.657  0.00  0.00    +0.000 A 
ATOM     18  C   UNL     1       0.999  13.132  18.721  0.00  0.00    +0.000 A 
ATOM     19  F   UNL     1       1.717  14.242  18.942  0.00  0.00    +0.000 F 
ATOM     20  C   UNL     1       1.664  11.919  18.555  0.00  0.00    +0.000 A 
ENDBRANCH  10  14
BRANCH   1  22
ATOM     21  C   UNL     1       1.305   2.803  21.696  0.00  0.00    +0.000 C 
ATOM     22  O   UNL     1       2.363   3.747  21.542  0.00  0.00    +0.000 OA
ENDBRANCH   1  22
BRANCH   9  23
ATOM     23  C   UNL     1       1.376   8.931  20.760  0.00  0.00    +0.000 C 
BRANCH  23  24
ATOM     24  C   UNL     1      -0.105   8.942  21.149  0.00  0.00    +0.000 C 
BRANCH  24  25
ATOM     25  C   UNL     1      -0.314   9.419  22.583  0.00  0.00    +0.000 C 
BRANCH  25  26
ATOM     26  N   UNL     1      -0.658  10.828  22.611  0.00  0.00    +0.000 N 
ATOM     27  C   UNL     1       0.038  11.843  22.015  0.00  0.00    +0.000 A 
ATOM     28  C   UNL     1      -0.628  12.986  22.387  0.00  0.00    +0.000 A 
ATOM     29  N   UNL     1      -1.710  12.690  23.173  0.00  0.00    +0.000 NA
ATOM     30  C   UNL     1      -1.700  11.380  23.297  0.00  0.00    +0.000 A 
ENDBRANCH  25  26
ENDBRANCH  24  25
ENDBRANCH  23  24
ENDBRANCH   9  23
TORSDOF 6
ENDMDL
MODEL 6
REMARK VINA RESULT:      -7.3      1.094      1.331
REMARK  Name = 
REMARK  7 active torsions:
REMARK  status: ('A' for Active; 'I' for Inactive)
REMARK    1  A    between atoms: C_1  and  O_2
REMARK    2  A    between atoms: O_2  and  C_3
REMARK    3  A    between atoms: N_11  and  C_12
REMARK    4  A    between atoms: C_12  and  C_13
REMARK    5  A    between atoms: C_13  and  C_14
REMARK    6  A    between atoms: C_14  and  N_15
REMARK    7  A    between atoms: C_20  and  C_22
REMARK                            x       y       z     vdW  Elec       q    Type
REMARK                         _______ _______ _______ _____ _____    ______ ____
ROOT
ATOM      1  C   UNL     1       0.218  11.983  19.577  0.00  0.00    +0.000 A 
ATOM      2  C   UNL     1      -0.498  12.755  20.503  0.00  0.00    +0.000 A 
ATOM      3  C   UNL     1      -0.824  12.243  21.755  0.00  0.00    +0.000 A 
ATOM      4  C   UNL     1      -0.445  10.950  22.119  0.00  0.00    +0.000 A 
ATOM      5 CL   UNL     1      -0.870  10.369  23.682  0.00  0.00    +0.000 Cl
ATOM      6  C   UNL     1       0.260  10.166  21.195  0.00  0.00    +0.000 A 
ATOM      7  S   UNL     1       0.876   8.566  21.341  0.00  0.00    +0.000 S 
ATOM      8  C   UNL     1       1.451   8.586  19.727  0.00  0.00    +0.000 A 
ATOM      9  N   UNL     1       2.142   7.490  19.145  0.00  0.00    +0.000 N 
ATOM     10  C   UNL     1       1.944   6.186  19.693  0.00  0.00    +0.000 C 
ATOM     11  O   UNL     1       1.196   5.915  20.631  0.00  0.00    +0.000 OA
ATOM     12  N   UNL     1       1.266   9.742  19.128  0.00  0.00    +0.000 NA
ATOM     13  C   UNL     1       0.585  10.653  19.929  0.00  0.00    +0.000 A 
ENDROOT
BRANCH  10  14
ATOM     14  C   UNL     1       2.580   4.959  19.095  0.00  0.00    +0.000 A 
ATOM     15  C   UNL     1       2.055   4.499  17.868  0.00  0.00    +0.000 A 
ATOM     16  C   UNL     1       2.568   3.362  17.233  0.00  0.00    +0.000 A 
ATOM     17  C   UNL     1       3.634   2.678  17.807  0.00  0.00    +0.000 A 
ATOM     18  C   UNL     1       4.122   3.099  19.036  0.00  0.00    +0.000 A 
ATOM     19  F   UNL     1       5.138   2.434  19.602  0.00  0.00    +0.000 F 
ATOM     20  C   UNL     1       3.576   4.195  19.703  0.00  0.00    +0.000 A 
ENDBRANCH  10  14
BRANCH   1  22
ATOM     21  C   UNL     1       0.949  13.794  18.219  0.00  0.00    +0.000 C 
ATOM     22  O   UNL     1       0.535  12.432  18.316  0.00  0.00    +0.000 OA
ENDBRANCH   1  22
BRANCH   9  23
ATOM     23  C   UNL     1       2.918   7.678  17.898  0.00  0.00    +0.000 C 
BRANCH  23  24
ATOM     24  C   UNL     1       4.436   7.474  17.893  0.00  0.00    +0.000 C 
BRANCH  24  25
ATOM     25  C   UNL     1       4.901   6.679  16.677  0.00  0.00    +0.000 C 
BRANCH  25  26
ATOM     26  N   UNL     1       6.024   5.827  17.019  0.00  0.00    +0.000 N 
ATOM     27  C   UNL     1       6.632   5.741  18.241  0.00  0.00    +0.000 A 
ATOM     28  C   UNL     1       7.679   4.872  18.048  0.00  0.00    +0.000 A 
ATOM     29  N   UNL     1       7.710   4.421  16.755  0.00  0.00    +0.000 NA
ATOM     30  C   UNL     1       6.703   5.019  16.155  0.00  0.00    +0.000 A 
ENDBRANCH  25  26
ENDBRANCH  24  25
ENDBRANCH  23  24
ENDBRANCH   9  23
TORSDOF 6
ENDMDL
MODEL 7
REMARK VINA RESULT:      -7.3      0.919      1.287
REMARK  Name = 
REMARK  7 active torsions:
REMARK  status: ('A' for Active; 'I' for Inactive)
REMARK    1  A    between atoms: C_1  and  O_2
REMARK    2  A    between atoms: O_2  and  C_3
REMARK    3  A    between atoms: N_11  and  C_12
REMARK    4  A    between atoms: C_12  and  C_13
REMARK    5  A    between atoms: C_13  and  C_14
REMARK    6  A    between atoms: C_14  and  N_15
REMARK    7  A    between atoms: C_20  and  C_22
REMARK                            x       y       z     vdW  Elec       q    Type
REMARK                         _______ _______ _______ _____ _____    ______ ____
ROOT
ATOM      1  C   UNL     1       0.929  11.409  19.356  0.00  0.00    +0.000 A 
ATOM      2  C   UNL     1       0.230  12.303  20.180  0.00  0.00    +0.000 A 
ATOM      3  C   UNL     1      -0.258  11.896  21.418  0.00  0.00    +0.000 A 
ATOM      4  C   UNL     1      -0.062  10.590  21.869  0.00  0.00    +0.000 A 
ATOM      5 CL   UNL     1      -0.681  10.141  23.411  0.00  0.00    +0.000 Cl
ATOM      6  C   UNL     1       0.626   9.685  21.048  0.00  0.00    +0.000 A 
ATOM      7  S   UNL     1       1.040   8.037  21.315  0.00  0.00    +0.000 S 
ATOM      8  C   UNL     1       1.748   7.909  19.761  0.00  0.00    +0.000 A 
ATOM      9  N   UNL     1       2.356   6.715  19.291  0.00  0.00    +0.000 N 
ATOM     10  C   UNL     1       1.964   5.471  19.873  0.00  0.00    +0.000 C 
ATOM     11  O   UNL     1       1.114   5.333  20.751  0.00  0.00    +0.000 OA
ATOM     12  N   UNL     1       1.748   9.045  19.100  0.00  0.00    +0.000 NA
ATOM     13  C   UNL     1       1.110  10.067  19.796  0.00  0.00    +0.000 A 
ENDROOT
BRANCH  10  14
ATOM     14  C   UNL     1       2.504   4.152  19.387  0.00  0.00    +0.000 A 
ATOM     15  C   UNL     1       3.551   3.573  20.136  0.00  0.00    +0.000 A 
ATOM     16  C   UNL     1       4.129   2.354  19.765  0.00  0.00    +0.000 A 
ATOM     17  C   UNL     1       3.651   1.681  18.646  0.00  0.00    +0.000 A 
ATOM     18  C   UNL     1       2.655   2.268  17.879  0.00  0.00    +0.000 A 
ATOM     19  F   UNL     1       2.202   1.632  16.791  0.00  0.00    +0.000 F 
ATOM     20  C   UNL     1       2.116   3.511  18.210  0.00  0.00    +0.000 A 
ENDBRANCH  10  14
BRANCH   1  22
ATOM     21  C   UNL     1       2.518  12.643  18.086  0.00  0.00    +0.000 C 
ATOM     22  O   UNL     1       1.402  11.754  18.112  0.00  0.00    +0.000 OA
ENDBRANCH   1  22
BRANCH   9  23
ATOM     23  C   UNL     1       3.252   6.751  18.112  0.00  0.00    +0.000 C 
BRANCH  23  24
ATOM     24  C   UNL     1       4.755   6.503  18.274  0.00  0.00    +0.000 C 
BRANCH  24  25
ATOM     25  C   UNL     1       5.551   7.029  17.084  0.00  0.00    +0.000 C 
BRANCH  25  26
ATOM     26  N   UNL     1       6.153   5.935  16.345  0.00  0.00    +0.000 N 
ATOM     27  C   UNL     1       5.600   5.276  15.282  0.00  0.00    +0.000 A 
ATOM     28  C   UNL     1       6.503   4.284  14.981  0.00  0.00    +0.000 A 
ATOM     29  N   UNL     1       7.587   4.337  15.817  0.00  0.00    +0.000 NA
ATOM     30  C   UNL     1       7.345   5.339  16.635  0.00  0.00    +0.000 A 
ENDBRANCH  25  26
ENDBRANCH  24  25
ENDBRANCH  23  24
ENDBRANCH   9  23
TORSDOF 6
ENDMDL
MODEL 8
REMARK VINA RESULT:      -7.1      2.675      4.737
REMARK  Name = 
REMARK  7 active torsions:
REMARK  status: ('A' for Active; 'I' for Inactive)
REMARK    1  A    between atoms: C_1  and  O_2
REMARK    2  A    between atoms: O_2  and  C_3
REMARK    3  A    between atoms: N_11  and  C_12
REMARK    4  A    between atoms: C_12  and  C_13
REMARK    5  A    between atoms: C_13  and  C_14
REMARK    6  A    between atoms: C_14  and  N_15
REMARK    7  A    between atoms: C_20  and  C_22
REMARK                            x       y       z     vdW  Elec       q    Type
REMARK                         _______ _______ _______ _____ _____    ______ ____
ROOT
ATOM      1  C   UNL     1      -0.130   9.782  21.118  0.00  0.00    +0.000 A 
ATOM      2  C   UNL     1      -0.657  11.080  21.188  0.00  0.00    +0.000 A 
ATOM      3  C   UNL     1      -0.314  12.040  20.242  0.00  0.00    +0.000 A 
ATOM      4  C   UNL     1       0.562  11.734  19.199  0.00  0.00    +0.000 A 
ATOM      5 CL   UNL     1       0.948  12.958  18.052  0.00  0.00    +0.000 Cl
ATOM      6  C   UNL     1       1.105  10.443  19.127  0.00  0.00    +0.000 A 
ATOM      7  S   UNL     1       2.183   9.756  17.976  0.00  0.00    +0.000 S 
ATOM      8  C   UNL     1       2.225   8.270  18.826  0.00  0.00    +0.000 A 
ATOM      9  N   UNL     1       2.977   7.151  18.379  0.00  0.00    +0.000 N 
ATOM     10  C   UNL     1       4.089   7.374  17.512  0.00  0.00    +0.000 C 
ATOM     11  O   UNL     1       4.478   8.475  17.124  0.00  0.00    +0.000 OA
ATOM     12  N   UNL     1       1.426   8.251  19.870  0.00  0.00    +0.000 NA
ATOM     13  C   UNL     1       0.787   9.469  20.074  0.00  0.00    +0.000 A 
ENDROOT
BRANCH  10  14
ATOM     14  C   UNL     1       4.982   6.255  17.047  0.00  0.00    +0.000 A 
ATOM     15  C   UNL     1       6.034   5.875  17.909  0.00  0.00    +0.000 A 
ATOM     16  C   UNL     1       6.926   4.853  17.567  0.00  0.00    +0.000 A 
ATOM     17  C   UNL     1       6.767   4.176  16.362  0.00  0.00    +0.000 A 
ATOM     18  C   UNL     1       5.764   4.578  15.491  0.00  0.00    +0.000 A 
ATOM     19  F   UNL     1       5.615   3.942  14.322  0.00  0.00    +0.000 F 
ATOM     20  C   UNL     1       4.909   5.635  15.799  0.00  0.00    +0.000 A 
ENDBRANCH  10  14
BRANCH   1  22
ATOM     21  C   UNL     1      -0.383   9.216  23.415  0.00  0.00    +0.000 C 
ATOM     22  O   UNL     1      -0.413   8.809  22.048  0.00  0.00    +0.000 OA
ENDBRANCH   1  22
BRANCH   9  23
ATOM     23  C   UNL     1       2.708   5.804  18.935  0.00  0.00    +0.000 C 
BRANCH  23  24
ATOM     24  C   UNL     1       1.958   4.759  18.104  0.00  0.00    +0.000 C 
BRANCH  24  25
ATOM     25  C   UNL     1       2.432   3.341  18.407  0.00  0.00    +0.000 C 
BRANCH  25  26
ATOM     26  N   UNL     1       2.219   3.017  19.806  0.00  0.00    +0.000 N 
ATOM     27  C   UNL     1       1.011   2.907  20.435  0.00  0.00    +0.000 A 
ATOM     28  C   UNL     1       1.326   2.667  21.752  0.00  0.00    +0.000 A 
ATOM     29  N   UNL     1       2.683   2.614  21.930  0.00  0.00    +0.000 NA
ATOM     30  C   UNL     1       3.198   2.835  20.739  0.00  0.00    +0.000 A 
ENDBRANCH  25  26
ENDBRANCH  24  25
ENDBRANCH  23  24
ENDBRANCH   9  23
TORSDOF 6
ENDMDL
MODEL 9
REMARK VINA RESULT:      -7.1      3.944      8.382
REMARK  Name = 
REMARK  7 active torsions:
REMARK  status: ('A' for Active; 'I' for Inactive)
REMARK    1  A    between atoms: C_1  and  O_2
REMARK    2  A    between atoms: O_2  and  C_3
REMARK    3  A    between atoms: N_11  and  C_12
REMARK    4  A    between atoms: C_12  and  C_13
REMARK    5  A    between atoms: C_13  and  C_14
REMARK    6  A    between atoms: C_14  and  N_15
REMARK    7  A    between atoms: C_20  and  C_22
REMARK                            x       y       z     vdW  Elec       q    Type
REMARK                         _______ _______ _______ _____ _____    ______ ____
ROOT
ATOM      1  C   UNL     1       3.939   5.364  17.731  0.00  0.00    +0.000 A 
ATOM      2  C   UNL     1       4.355   4.039  17.929  0.00  0.00    +0.000 A 
ATOM      3  C   UNL     1       3.957   3.330  19.058  0.00  0.00    +0.000 A 
ATOM      4  C   UNL     1       3.135   3.919  20.019  0.00  0.00    +0.000 A 
ATOM      5 CL   UNL     1       2.668   2.995  21.394  0.00  0.00    +0.000 Cl
ATOM      6  C   UNL     1       2.723   5.248  19.837  0.00  0.00    +0.000 A 
ATOM      7  S   UNL     1       1.712   6.240  20.812  0.00  0.00    +0.000 S 
ATOM      8  C   UNL     1       1.924   7.577  19.763  0.00  0.00    +0.000 A 
ATOM      9  N   UNL     1       1.296   8.831  19.982  0.00  0.00    +0.000 N 
ATOM     10  C   UNL     1       0.888   9.172  21.307  0.00  0.00    +0.000 C 
ATOM     11  O   UNL     1       1.053   8.470  22.304  0.00  0.00    +0.000 OA
ATOM     12  N   UNL     1       2.646   7.290  18.702  0.00  0.00    +0.000 NA
ATOM     13  C   UNL     1       3.123   5.983  18.720  0.00  0.00    +0.000 A 
ENDROOT
BRANCH  10  14
ATOM     14  C   UNL     1       0.280  10.508  21.642  0.00  0.00    +0.000 A 
ATOM     15  C   UNL     1       0.901  11.650  21.093  0.00  0.00    +0.000 A 
ATOM     16  C   UNL     1       0.420  12.939  21.350  0.00  0.00    +0.000 A 
ATOM     17  C   UNL     1      -0.708  13.105  22.146  0.00  0.00    +0.000 A 
ATOM     18  C   UNL     1      -1.293  11.989  22.727  0.00  0.00    +0.000 A 
ATOM     19  F   UNL     1      -2.370  12.143  23.508  0.00  0.00    +0.000 F 
ATOM     20  C   UNL     1      -0.784  10.707  22.523  0.00  0.00    +0.000 A 
ENDBRANCH  10  14
BRANCH   1  22
ATOM     21  C   UNL     1       5.580   6.796  16.774  0.00  0.00    +0.000 C 
ATOM     22  O   UNL     1       4.331   6.116  16.649  0.00  0.00    +0.000 OA
ENDBRANCH   1  22
BRANCH   9  23
ATOM     23  C   UNL     1       1.219   9.826  18.886  0.00  0.00    +0.000 C 
BRANCH  23  24
ATOM     24  C   UNL     1       0.044   9.806  17.904  0.00  0.00    +0.000 C 
BRANCH  24  25
ATOM     25  C   UNL     1      -1.263  10.227  18.568  0.00  0.00    +0.000 C 
BRANCH  25  26
ATOM     26  N   UNL     1      -2.284  10.489  17.572  0.00  0.00    +0.000 N 
ATOM     27  C   UNL     1      -2.291  10.036  16.282  0.00  0.00    +0.000 A 
ATOM     28  C   UNL     1      -3.407  10.608  15.719  0.00  0.00    +0.000 A 
ATOM     29  N   UNL     1      -4.079  11.375  16.633  0.00  0.00    +0.000 NA
ATOM     30  C   UNL     1      -3.375  11.290  17.741  0.00  0.00    +0.000 A 
ENDBRANCH  25  26
ENDBRANCH  24  25
ENDBRANCH  23  24
ENDBRANCH   9  23
TORSDOF 6
ENDMDL
