MODEL 1
REMARK VINA RESULT:      -8.2      0.000      0.000
REMARK  Name = 
REMARK  5 active torsions:
REMARK  status: ('A' for Active; 'I' for Inactive)
REMARK    1  A    between atoms: C_1  and  C_2
REMARK    2  A    between atoms: C_2  and  N_3
REMARK    3  A    between atoms: C_12  and  S_13
REMARK    4  A    between atoms: S_13  and  N_16
REMARK    5  A    between atoms: N_16  and  C_17
REMARK                            x       y       z     vdW  Elec       q    Type
REMARK                         _______ _______ _______ _____ _____    ______ ____
ROOT
ATOM      1  N   UNL     1      -0.174  10.893  19.575  0.00  0.00    +0.000 N 
ATOM      2  C   UNL     1      -0.379  10.757  20.935  0.00  0.00    +0.000 A 
ATOM      3  C   UNL     1      -1.156  11.499  21.831  0.00  0.00    +0.000 A 
ATOM      4  C   UNL     1      -1.077  11.109  23.157  0.00  0.00    +0.000 A 
ATOM      5  N   UNL     1      -0.335  10.079  23.614  0.00  0.00    +0.000 NA
ATOM      6  C   UNL     1       0.387   9.349  22.727  0.00  0.00    +0.000 A 
ATOM      7  C   UNL     1       0.382   9.668  21.361  0.00  0.00    +0.000 A 
ATOM      8  C   UNL     1       1.005   9.105  20.203  0.00  0.00    +0.000 A 
ATOM      9  C   UNL     1       1.854   7.994  20.004  0.00  0.00    +0.000 A 
ATOM     10  C   UNL     1       2.308   7.688  18.719  0.00  0.00    +0.000 A 
ATOM     11  C   UNL     1       1.901   8.448  17.612  0.00  0.00    +0.000 A 
ATOM     12  C   UNL     1       1.066   9.562  17.795  0.00  0.00    +0.000 A 
ATOM     13  C   UNL     1       0.634   9.875  19.098  0.00  0.00    +0.000 A 
ENDROOT
BRANCH  10  14
ATOM     14  S   UNL     1       3.344   6.249  18.513  0.00  0.00    +0.000 S 
ATOM     15  O   UNL     1       3.772   5.822  19.827  0.00  0.00    +0.000 OA
ATOM     16  O   UNL     1       2.650   5.345  17.618  0.00  0.00    +0.000 OA
BRANCH  14  17
ATOM     17  N   UNL     1       4.688   6.831  17.659  0.00  0.00    +0.000 N 
ATOM     18  H   UNL     1       4.946   7.764  17.975  0.00  0.00    +0.000 HD
BRANCH  17  19
ATOM     19  C   UNL     1       5.769   5.944  17.371  0.00  0.00    +0.000 A 
ATOM     20  C   UNL     1       6.738   5.656  18.327  0.00  0.00    +0.000 A 
ATOM     21  C   UNL     1       7.755   4.784  17.971  0.00  0.00    +0.000 A 
ATOM     22  N   UNL     1       7.860   4.214  16.750  0.00  0.00    +0.000 NA
ATOM     23  C   UNL     1       6.909   4.524  15.846  0.00  0.00    +0.000 A 
ATOM     24  C   UNL     1       5.852   5.377  16.107  0.00  0.00    +0.000 A 
ENDBRANCH  17  19
ENDBRANCH  14  17
ENDBRANCH  10  14
BRANCH   1  26
ATOM     25  C   UNL     1      -1.972  11.659  18.059  0.00  0.00    +0.000 C 
ATOM     26  C   UNL     1      -0.686  12.003  18.784  0.00  0.00    +0.000 C 
ENDBRANCH   1  26
TORSDOF 4
ENDMDL
MODEL 2
REMARK VINA RESULT:      -8.1      0.951      1.153
REMARK  Name = 
REMARK  5 active torsions:
REMARK  status: ('A' for Active; 'I' for Inactive)
REMARK    1  A    between atoms: C_1  and  C_2
REMARK    2  A    between atoms: C_2  and  N_3
REMARK    3  A    between atoms: C_12  and  S_13
REMARK    4  A    between atoms: S_13  and  N_16
REMARK    5  A    between atoms: N_16  and  C_17
REMARK                            x       y       z     vdW  Elec       q    Type
REMARK                         _______ _______ _______ _____ _____    ______ ____
ROOT
ATOM      1  N   UNL     1       0.488  11.022  19.610  0.00  0.00    +0.000 N 
ATOM      2  C   UNL     1      -0.005  10.929  20.898  0.00  0.00    +0.000 A 
ATOM      3  C   UNL     1      -0.740  11.832  21.673  0.00  0.00    +0.000 A 
ATOM      4  C   UNL     1      -1.017  11.422  22.967  0.00  0.00    +0.000 A 
ATOM      5  N   UNL     1      -0.647  10.237  23.495  0.00  0.00    +0.000 NA
ATOM      6  C   UNL     1       0.037   9.361  22.720  0.00  0.00    +0.000 A 
ATOM      7  C   UNL     1       0.375   9.683  21.397  0.00  0.00    +0.000 A 
ATOM      8  C   UNL     1       1.058   8.994  20.345  0.00  0.00    +0.000 A 
ATOM      9  C   UNL     1       1.639   7.710  20.247  0.00  0.00    +0.000 A 
ATOM     10  C   UNL     1       2.248   7.313  19.054  0.00  0.00    +0.000 A 
ATOM     11  C   UNL     1       2.259   8.159  17.934  0.00  0.00    +0.000 A 
ATOM     12  C   UNL     1       1.695   9.443  18.021  0.00  0.00    +0.000 A 
ATOM     13  C   UNL     1       1.105   9.841  19.235  0.00  0.00    +0.000 A 
ENDROOT
BRANCH  10  14
ATOM     14  S   UNL     1       2.928   5.666  18.964  0.00  0.00    +0.000 S 
ATOM     15  O   UNL     1       4.054   5.604  19.870  0.00  0.00    +0.000 OA
ATOM     16  O   UNL     1       1.822   4.737  19.076  0.00  0.00    +0.000 OA
BRANCH  14  17
ATOM     17  N   UNL     1       3.497   5.544  17.371  0.00  0.00    +0.000 N 
ATOM     18  H   UNL     1       2.938   6.114  16.739  0.00  0.00    +0.000 HD
BRANCH  17  19
ATOM     19  C   UNL     1       4.904   5.535  17.131  0.00  0.00    +0.000 A 
ATOM     20  C   UNL     1       5.571   4.360  16.797  0.00  0.00    +0.000 A 
ATOM     21  C   UNL     1       6.937   4.436  16.578  0.00  0.00    +0.000 A 
ATOM     22  N   UNL     1       7.651   5.578  16.683  0.00  0.00    +0.000 NA
ATOM     23  C   UNL     1       6.974   6.695  17.019  0.00  0.00    +0.000 A 
ATOM     24  C   UNL     1       5.611   6.724  17.250  0.00  0.00    +0.000 A 
ENDBRANCH  17  19
ENDBRANCH  14  17
ENDBRANCH  10  14
BRANCH   1  26
ATOM     25  C   UNL     1      -0.908  12.382  18.085  0.00  0.00    +0.000 C 
ATOM     26  C   UNL     1       0.421  12.231  18.801  0.00  0.00    +0.000 C 
ENDBRANCH   1  26
TORSDOF 4
ENDMDL
MODEL 3
REMARK VINA RESULT:      -8.1      2.670      8.269
REMARK  Name = 
REMARK  5 active torsions:
REMARK  status: ('A' for Active; 'I' for Inactive)
REMARK    1  A    between atoms: C_1  and  C_2
REMARK    2  A    between atoms: C_2  and  N_3
REMARK    3  A    between atoms: C_12  and  S_13
REMARK    4  A    between atoms: S_13  and  N_16
REMARK    5  A    between atoms: N_16  and  C_17
REMARK                            x       y       z     vdW  Elec       q    Type
REMARK                         _______ _______ _______ _____ _____    ______ ____
ROOT
ATOM      1  N   UNL     1       3.660   4.140  18.394  0.00  0.00    +0.000 N 
ATOM      2  C   UNL     1       4.273   4.820  17.359  0.00  0.00    +0.000 A 
ATOM      3  C   UNL     1       5.058   4.369  16.293  0.00  0.00    +0.000 A 
ATOM      4  C   UNL     1       5.566   5.355  15.464  0.00  0.00    +0.000 A 
ATOM      5  N   UNL     1       5.338   6.677  15.611  0.00  0.00    +0.000 NA
ATOM      6  C   UNL     1       4.549   7.095  16.630  0.00  0.00    +0.000 A 
ATOM      7  C   UNL     1       3.992   6.176  17.532  0.00  0.00    +0.000 A 
ATOM      8  C   UNL     1       3.131   6.290  18.669  0.00  0.00    +0.000 A 
ATOM      9  C   UNL     1       2.504   7.386  19.302  0.00  0.00    +0.000 A 
ATOM     10  C   UNL     1       1.699   7.173  20.424  0.00  0.00    +0.000 A 
ATOM     11  C   UNL     1       1.471   5.876  20.911  0.00  0.00    +0.000 A 
ATOM     12  C   UNL     1       2.097   4.778  20.298  0.00  0.00    +0.000 A 
ATOM     13  C   UNL     1       2.925   5.008  19.183  0.00  0.00    +0.000 A 
ENDROOT
BRANCH  10  14
ATOM     14  S   UNL     1       0.893   8.584  21.162  0.00  0.00    +0.000 S 
ATOM     15  O   UNL     1      -0.499   8.244  21.358  0.00  0.00    +0.000 OA
ATOM     16  O   UNL     1       1.722   9.023  22.266  0.00  0.00    +0.000 OA
BRANCH  14  17
ATOM     17  N   UNL     1       1.003   9.787  19.973  0.00  0.00    +0.000 N 
ATOM     18  H   UNL     1       1.660   9.519  19.242  0.00  0.00    +0.000 HD
BRANCH  17  19
ATOM     19  C   UNL     1      -0.185  10.450  19.538  0.00  0.00    +0.000 A 
ATOM     20  C   UNL     1      -0.788  10.124  18.327  0.00  0.00    +0.000 A 
ATOM     21  C   UNL     1      -1.940  10.812  17.977  0.00  0.00    +0.000 A 
ATOM     22  N   UNL     1      -2.495  11.781  18.738  0.00  0.00    +0.000 NA
ATOM     23  C   UNL     1      -1.877  12.077  19.899  0.00  0.00    +0.000 A 
ATOM     24  C   UNL     1      -0.729  11.444  20.339  0.00  0.00    +0.000 A 
ENDBRANCH  17  19
ENDBRANCH  14  17
ENDBRANCH  10  14
BRANCH   1  26
ATOM     25  C   UNL     1       2.729   1.876  18.036  0.00  0.00    +0.000 C 
ATOM     26  C   UNL     1       3.835   2.717  18.644  0.00  0.00    +0.000 C 
ENDBRANCH   1  26
TORSDOF 4
ENDMDL
MODEL 4
REMARK VINA RESULT:      -8.0      2.572      3.251
REMARK  Name = 
REMARK  5 active torsions:
REMARK  status: ('A' for Active; 'I' for Inactive)
REMARK    1  A    between atoms: C_1  and  C_2
REMARK    2  A    between atoms: C_2  and  N_3
REMARK    3  A    between atoms: C_12  and  S_13
REMARK    4  A    between atoms: S_13  and  N_16
REMARK    5  A    between atoms: N_16  and  C_17
REMARK                            x       y       z     vdW  Elec       q    Type
REMARK                         _______ _______ _______ _____ _____    ______ ____
ROOT
ATOM      1  N   UNL     1       0.086  10.728  19.505  0.00  0.00    +0.000 N 
ATOM      2  C   UNL     1      -0.140  10.572  20.860  0.00  0.00    +0.000 A 
ATOM      3  C   UNL     1      -0.916  11.311  21.759  0.00  0.00    +0.000 A 
ATOM      4  C   UNL     1      -0.861  10.895  23.079  0.00  0.00    +0.000 A 
ATOM      5  N   UNL     1      -0.143   9.845  23.526  0.00  0.00    +0.000 NA
ATOM      6  C   UNL     1       0.578   9.119  22.636  0.00  0.00    +0.000 A 
ATOM      7  C   UNL     1       0.597   9.463  21.276  0.00  0.00    +0.000 A 
ATOM      8  C   UNL     1       1.225   8.909  20.116  0.00  0.00    +0.000 A 
ATOM      9  C   UNL     1       2.058   7.788  19.908  0.00  0.00    +0.000 A 
ATOM     10  C   UNL     1       2.524   7.497  18.624  0.00  0.00    +0.000 A 
ATOM     11  C   UNL     1       2.145   8.284  17.525  0.00  0.00    +0.000 A 
ATOM     12  C   UNL     1       1.326   9.409  17.718  0.00  0.00    +0.000 A 
ATOM     13  C   UNL     1       0.882   9.705  19.020  0.00  0.00    +0.000 A 
ENDROOT
BRANCH  10  14
ATOM     14  S   UNL     1       3.538   6.044  18.405  0.00  0.00    +0.000 S 
ATOM     15  O   UNL     1       4.049   6.064  17.052  0.00  0.00    +0.000 OA
ATOM     16  O   UNL     1       4.429   5.966  19.545  0.00  0.00    +0.000 OA
BRANCH  14  17
ATOM     17  N   UNL     1       2.446   4.756  18.562  0.00  0.00    +0.000 N 
ATOM     18  H   UNL     1       2.299   4.291  17.668  0.00  0.00    +0.000 HD
BRANCH  17  19
ATOM     19  C   UNL     1       2.529   3.906  19.706  0.00  0.00    +0.000 A 
ATOM     20  C   UNL     1       3.548   2.967  19.833  0.00  0.00    +0.000 A 
ATOM     21  C   UNL     1       3.560   2.181  20.975  0.00  0.00    +0.000 A 
ATOM     22  N   UNL     1       2.635   2.270  21.956  0.00  0.00    +0.000 NA
ATOM     23  C   UNL     1       1.657   3.184  21.794  0.00  0.00    +0.000 A 
ATOM     24  C   UNL     1       1.562   4.019  20.696  0.00  0.00    +0.000 A 
ENDBRANCH  17  19
ENDBRANCH  14  17
ENDBRANCH  10  14
BRANCH   1  26
ATOM     25  C   UNL     1      -1.739  11.593  18.077  0.00  0.00    +0.000 C 
ATOM     26  C   UNL     1      -0.396  11.861  18.728  0.00  0.00    +0.000 C 
ENDBRANCH   1  26
TORSDOF 4
ENDMDL
MODEL 5
REMARK VINA RESULT:      -8.0      1.233      1.472
REMARK  Name = 
REMARK  5 active torsions:
REMARK  status: ('A' for Active; 'I' for Inactive)
REMARK    1  A    between atoms: C_1  and  C_2
REMARK    2  A    between atoms: C_2  and  N_3
REMARK    3  A    between atoms: C_12  and  S_13
REMARK    4  A    between atoms: S_13  and  N_16
REMARK    5  A    between atoms: N_16  and  C_17
REMARK                            x       y       z     vdW  Elec       q    Type
REMARK                         _______ _______ _______ _____ _____    ______ ____
ROOT
ATOM      1  N   UNL     1       0.505  11.016  19.569  0.00  0.00    +0.000 N 
ATOM      2  C   UNL     1      -0.003  10.941  20.852  0.00  0.00    +0.000 A 
ATOM      3  C   UNL     1      -0.747  11.855  21.606  0.00  0.00    +0.000 A 
ATOM      4  C   UNL     1      -1.040  11.463  22.902  0.00  0.00    +0.000 A 
ATOM      5  N   UNL     1      -0.676  10.286  23.452  0.00  0.00    +0.000 NA
ATOM      6  C   UNL     1       0.018   9.399  22.697  0.00  0.00    +0.000 A 
ATOM      7  C   UNL     1       0.371   9.702  21.374  0.00  0.00    +0.000 A 
ATOM      8  C   UNL     1       1.067   8.998  20.340  0.00  0.00    +0.000 A 
ATOM      9  C   UNL     1       1.648   7.714  20.266  0.00  0.00    +0.000 A 
ATOM     10  C   UNL     1       2.271   7.299  19.087  0.00  0.00    +0.000 A 
ATOM     11  C   UNL     1       2.295   8.129  17.956  0.00  0.00    +0.000 A 
ATOM     12  C   UNL     1       1.730   9.414  18.017  0.00  0.00    +0.000 A 
ATOM     13  C   UNL     1       1.126   9.829  19.219  0.00  0.00    +0.000 A 
ENDROOT
BRANCH  10  14
ATOM     14  S   UNL     1       2.953   5.651  19.029  0.00  0.00    +0.000 S 
ATOM     15  O   UNL     1       2.911   5.109  20.369  0.00  0.00    +0.000 OA
ATOM     16  O   UNL     1       2.322   4.964  17.920  0.00  0.00    +0.000 OA
BRANCH  14  17
ATOM     17  N   UNL     1       4.571   5.892  18.584  0.00  0.00    +0.000 N 
ATOM     18  H   UNL     1       5.196   5.722  19.370  0.00  0.00    +0.000 HD
BRANCH  17  19
ATOM     19  C   UNL     1       5.022   5.427  17.312  0.00  0.00    +0.000 A 
ATOM     20  C   UNL     1       5.422   4.107  17.129  0.00  0.00    +0.000 A 
ATOM     21  C   UNL     1       5.845   3.733  15.862  0.00  0.00    +0.000 A 
ATOM     22  N   UNL     1       5.900   4.578  14.810  0.00  0.00    +0.000 NA
ATOM     23  C   UNL     1       5.515   5.852  15.028  0.00  0.00    +0.000 A 
ATOM     24  C   UNL     1       5.071   6.320  16.250  0.00  0.00    +0.000 A 
ENDBRANCH  17  19
ENDBRANCH  14  17
ENDBRANCH  10  14
BRANCH   1  26
ATOM     25  C   UNL     1       1.680  13.084  18.889  0.00  0.00    +0.000 C 
ATOM     26  C   UNL     1       0.447  12.212  18.743  0.00  0.00    +0.000 C 
ENDBRANCH   1  26
TORSDOF 4
ENDMDL
MODEL 6
REMARK VINA RESULT:      -8.0      2.660      8.257
REMARK  Name = 
REMARK  5 active torsions:
REMARK  status: ('A' for Active; 'I' for Inactive)
REMARK    1  A    between atoms: C_1  and  C_2
REMARK    2  A    between atoms: C_2  and  N_3
REMARK    3  A    between atoms: C_12  and  S_13
REMARK    4  A    between atoms: S_13  and  N_16
REMARK    5  A    between atoms: N_16  and  C_17
REMARK                            x       y       z     vdW  Elec       q    Type
REMARK                         _______ _______ _______ _____ _____    ______ ____
ROOT
ATOM      1  N   UNL     1       3.507   4.032  18.413  0.00  0.00    +0.000 N 
ATOM      2  C   UNL     1       4.170   4.692  17.395  0.00  0.00    +0.000 A 
ATOM      3  C   UNL     1       4.954   4.213  16.340  0.00  0.00    +0.000 A 
ATOM      4  C   UNL     1       5.522   5.182  15.530  0.00  0.00    +0.000 A 
ATOM      5  N   UNL     1       5.353   6.511  15.684  0.00  0.00    +0.000 NA
ATOM      6  C   UNL     1       4.564   6.958  16.692  0.00  0.00    +0.000 A 
ATOM      7  C   UNL     1       3.949   6.058  17.575  0.00  0.00    +0.000 A 
ATOM      8  C   UNL     1       3.072   6.203  18.697  0.00  0.00    +0.000 A 
ATOM      9  C   UNL     1       2.484   7.321  19.328  0.00  0.00    +0.000 A 
ATOM     10  C   UNL     1       1.650   7.136  20.432  0.00  0.00    +0.000 A 
ATOM     11  C   UNL     1       1.354   5.848  20.904  0.00  0.00    +0.000 A 
ATOM     12  C   UNL     1       1.940   4.726  20.293  0.00  0.00    +0.000 A 
ATOM     13  C   UNL     1       2.798   4.927  19.196  0.00  0.00    +0.000 A 
ENDROOT
BRANCH  10  14
ATOM     14  S   UNL     1       0.895   8.577  21.168  0.00  0.00    +0.000 S 
ATOM     15  O   UNL     1      -0.501   8.277  21.394  0.00  0.00    +0.000 OA
ATOM     16  O   UNL     1       1.757   9.007  22.251  0.00  0.00    +0.000 OA
BRANCH  14  17
ATOM     17  N   UNL     1       1.015   9.763  19.962  0.00  0.00    +0.000 N 
ATOM     18  H   UNL     1       1.647   9.467  19.220  0.00  0.00    +0.000 HD
BRANCH  17  19
ATOM     19  C   UNL     1      -0.162  10.456  19.546  0.00  0.00    +0.000 A 
ATOM     20  C   UNL     1      -0.731  11.449  20.337  0.00  0.00    +0.000 A 
ATOM     21  C   UNL     1      -1.871  12.076  19.861  0.00  0.00    +0.000 A 
ATOM     22  N   UNL     1      -2.462  11.767  18.686  0.00  0.00    +0.000 NA
ATOM     23  C   UNL     1      -1.889  10.793  17.951  0.00  0.00    +0.000 A 
ATOM     24  C   UNL     1      -0.748  10.114  18.334  0.00  0.00    +0.000 A 
ENDBRANCH  17  19
ENDBRANCH  14  17
ENDBRANCH  10  14
BRANCH   1  26
ATOM     25  C   UNL     1       4.414   2.275  19.899  0.00  0.00    +0.000 C 
ATOM     26  C   UNL     1       3.612   2.601  18.654  0.00  0.00    +0.000 C 
ENDBRANCH   1  26
TORSDOF 4
ENDMDL
MODEL 7
REMARK VINA RESULT:      -7.8      1.299      1.654
REMARK  Name = 
REMARK  5 active torsions:
REMARK  status: ('A' for Active; 'I' for Inactive)
REMARK    1  A    between atoms: C_1  and  C_2
REMARK    2  A    between atoms: C_2  and  N_3
REMARK    3  A    between atoms: C_12  and  S_13
REMARK    4  A    between atoms: S_13  and  N_16
REMARK    5  A    between atoms: N_16  and  C_17
REMARK                            x       y       z     vdW  Elec       q    Type
REMARK                         _______ _______ _______ _____ _____    ______ ____
ROOT
ATOM      1  N   UNL     1       0.658  10.902  19.466  0.00  0.00    +0.000 N 
ATOM      2  C   UNL     1       0.204  10.824  20.769  0.00  0.00    +0.000 A 
ATOM      3  C   UNL     1      -0.500  11.738  21.559  0.00  0.00    +0.000 A 
ATOM      4  C   UNL     1      -0.740  11.341  22.864  0.00  0.00    +0.000 A 
ATOM      5  N   UNL     1      -0.361  10.159  23.391  0.00  0.00    +0.000 NA
ATOM      6  C   UNL     1       0.293   9.271  22.603  0.00  0.00    +0.000 A 
ATOM      7  C   UNL     1       0.592   9.580  21.267  0.00  0.00    +0.000 A 
ATOM      8  C   UNL     1       1.237   8.877  20.201  0.00  0.00    +0.000 A 
ATOM      9  C   UNL     1       1.806   7.588  20.096  0.00  0.00    +0.000 A 
ATOM     10  C   UNL     1       2.375   7.177  18.889  0.00  0.00    +0.000 A 
ATOM     11  C   UNL     1       2.357   8.013  17.762  0.00  0.00    +0.000 A 
ATOM     12  C   UNL     1       1.805   9.302  17.855  0.00  0.00    +0.000 A 
ATOM     13  C   UNL     1       1.255   9.714  19.083  0.00  0.00    +0.000 A 
ENDROOT
BRANCH  10  14
ATOM     14  S   UNL     1       3.042   5.524  18.792  0.00  0.00    +0.000 S 
ATOM     15  O   UNL     1       3.714   5.246  20.042  0.00  0.00    +0.000 OA
ATOM     16  O   UNL     1       1.985   4.663  18.299  0.00  0.00    +0.000 OA
BRANCH  14  17
ATOM     17  N   UNL     1       4.197   5.620  17.555  0.00  0.00    +0.000 N 
ATOM     18  H   UNL     1       3.791   6.005  16.704  0.00  0.00    +0.000 HD
BRANCH  17  19
ATOM     19  C   UNL     1       5.521   6.052  17.869  0.00  0.00    +0.000 A 
ATOM     20  C   UNL     1       6.090   7.152  17.234  0.00  0.00    +0.000 A 
ATOM     21  C   UNL     1       7.379   7.509  17.597  0.00  0.00    +0.000 A 
ATOM     22  N   UNL     1       8.111   6.842  18.516  0.00  0.00    +0.000 NA
ATOM     23  C   UNL     1       7.532   5.775  19.103  0.00  0.00    +0.000 A 
ATOM     24  C   UNL     1       6.250   5.345  18.816  0.00  0.00    +0.000 A 
ENDBRANCH  17  19
ENDBRANCH  14  17
ENDBRANCH  10  14
BRANCH   1  26
ATOM     25  C   UNL     1       1.799  12.988  18.782  0.00  0.00    +0.000 C 
ATOM     26  C   UNL     1       0.574  12.104  18.649  0.00  0.00    +0.000 C 
ENDBRANCH   1  26
TORSDOF 4
ENDMDL
MODEL 8
REMARK VINA RESULT:      -7.8      2.492      2.912
REMARK  Name = 
REMARK  5 active torsions:
REMARK  status: ('A' for Active; 'I' for Inactive)
REMARK    1  A    between atoms: C_1  and  C_2
REMARK    2  A    between atoms: C_2  and  N_3
REMARK    3  A    between atoms: C_12  and  S_13
REMARK    4  A    between atoms: S_13  and  N_16
REMARK    5  A    between atoms: N_16  and  C_17
REMARK                            x       y       z     vdW  Elec       q    Type
REMARK                         _______ _______ _______ _____ _____    ______ ____
ROOT
ATOM      1  N   UNL     1      -0.133  10.908  19.555  0.00  0.00    +0.000 N 
ATOM      2  C   UNL     1      -0.385  10.739  20.903  0.00  0.00    +0.000 A 
ATOM      3  C   UNL     1      -1.210  11.445  21.785  0.00  0.00    +0.000 A 
ATOM      4  C   UNL     1      -1.171  11.028  23.105  0.00  0.00    +0.000 A 
ATOM      5  N   UNL     1      -0.423  10.004  23.567  0.00  0.00    +0.000 NA
ATOM      6  C   UNL     1       0.346   9.309  22.694  0.00  0.00    +0.000 A 
ATOM      7  C   UNL     1       0.384   9.658  21.335  0.00  0.00    +0.000 A 
ATOM      8  C   UNL     1       1.060   9.132  20.189  0.00  0.00    +0.000 A 
ATOM      9  C   UNL     1       1.940   8.044  19.999  0.00  0.00    +0.000 A 
ATOM     10  C   UNL     1       2.448   7.775  18.726  0.00  0.00    +0.000 A 
ATOM     11  C   UNL     1       2.065   8.550  17.620  0.00  0.00    +0.000 A 
ATOM     12  C   UNL     1       1.199   9.642  17.795  0.00  0.00    +0.000 A 
ATOM     13  C   UNL     1       0.713   9.917  19.087  0.00  0.00    +0.000 A 
ENDROOT
BRANCH  10  14
ATOM     14  S   UNL     1       3.522   6.363  18.528  0.00  0.00    +0.000 S 
ATOM     15  O   UNL     1       4.678   6.791  17.773  0.00  0.00    +0.000 OA
ATOM     16  O   UNL     1       3.661   5.744  19.831  0.00  0.00    +0.000 OA
BRANCH  14  17
ATOM     17  N   UNL     1       2.614   5.288  17.582  0.00  0.00    +0.000 N 
ATOM     18  H   UNL     1       2.833   5.396  16.593  0.00  0.00    +0.000 HD
BRANCH  17  19
ATOM     19  C   UNL     1       2.419   3.949  18.039  0.00  0.00    +0.000 A 
ATOM     20  C   UNL     1       3.417   2.989  17.901  0.00  0.00    +0.000 A 
ATOM     21  C   UNL     1       3.152   1.713  18.372  0.00  0.00    +0.000 A 
ATOM     22  N   UNL     1       1.980   1.352  18.941  0.00  0.00    +0.000 NA
ATOM     23  C   UNL     1       1.033   2.306  19.048  0.00  0.00    +0.000 A 
ATOM     24  C   UNL     1       1.204   3.608  18.616  0.00  0.00    +0.000 A 
ENDBRANCH  17  19
ENDBRANCH  14  17
ENDBRANCH  10  14
BRANCH   1  26
ATOM     25  C   UNL     1      -1.907  11.676  18.011  0.00  0.00    +0.000 C 
ATOM     26  C   UNL     1      -0.640  12.023  18.769  0.00  0.00    +0.000 C 
ENDBRANCH   1  26
TORSDOF 4
ENDMDL
MODEL 9
REMARK VINA RESULT:      -7.8      3.222      7.848
REMARK  Name = 
REMARK  5 active torsions:
REMARK  status: ('A' for Active; 'I' for Inactive)
REMARK    1  A    between atoms: C_1  and  C_2
REMARK    2  A    between atoms: C_2  and  N_3
REMARK    3  A    between atoms: C_12  and  S_13
REMARK    4  A    between atoms: S_13  and  N_16
REMARK    5  A    between atoms: N_16  and  C_17
REMARK                            x       y       z     vdW  Elec       q    Type
REMARK                         _______ _______ _______ _____ _____    ______ ____
ROOT
ATOM      1  N   UNL     1       3.476   5.099  18.452  0.00  0.00    +0.000 N 
ATOM      2  C   UNL     1       3.367   4.180  19.478  0.00  0.00    +0.000 A 
ATOM      3  C   UNL     1       3.875   2.883  19.615  0.00  0.00    +0.000 A 
ATOM      4  C   UNL     1       3.511   2.218  20.774  0.00  0.00    +0.000 A 
ATOM      5  N   UNL     1       2.738   2.737  21.750  0.00  0.00    +0.000 NA
ATOM      6  C   UNL     1       2.281   4.006  21.617  0.00  0.00    +0.000 A 
ATOM      7  C   UNL     1       2.586   4.764  20.475  0.00  0.00    +0.000 A 
ATOM      8  C   UNL     1       2.279   6.095  20.051  0.00  0.00    +0.000 A 
ATOM      9  C   UNL     1       1.559   7.157  20.640  0.00  0.00    +0.000 A 
ATOM     10  C   UNL     1       1.431   8.371  19.961  0.00  0.00    +0.000 A 
ATOM     11  C   UNL     1       2.044   8.566  18.713  0.00  0.00    +0.000 A 
ATOM     12  C   UNL     1       2.754   7.515  18.110  0.00  0.00    +0.000 A 
ATOM     13  C   UNL     1       2.856   6.289  18.793  0.00  0.00    +0.000 A 
ENDROOT
BRANCH  10  14
ATOM     14  S   UNL     1       0.548   9.698  20.765  0.00  0.00    +0.000 S 
ATOM     15  O   UNL     1      -0.719   9.171  21.221  0.00  0.00    +0.000 OA
ATOM     16  O   UNL     1       1.472  10.334  21.683  0.00  0.00    +0.000 OA
BRANCH  14  17
ATOM     17  N   UNL     1       0.265  10.814  19.521  0.00  0.00    +0.000 N 
ATOM     18  H   UNL     1       1.083  10.911  18.923  0.00  0.00    +0.000 HD
BRANCH  17  19
ATOM     19  C   UNL     1      -1.000  10.814  18.859  0.00  0.00    +0.000 A 
ATOM     20  C   UNL     1      -1.260   9.946  17.803  0.00  0.00    +0.000 A 
ATOM     21  C   UNL     1      -2.514  10.006  17.214  0.00  0.00    +0.000 A 
ATOM     22  N   UNL     1      -3.483  10.865  17.599  0.00  0.00    +0.000 NA
ATOM     23  C   UNL     1      -3.191  11.699  18.618  0.00  0.00    +0.000 A 
ATOM     24  C   UNL     1      -1.975  11.711  19.275  0.00  0.00    +0.000 A 
ENDBRANCH  17  19
ENDBRANCH  14  17
ENDBRANCH  10  14
BRANCH   1  26
ATOM     25  C   UNL     1       5.580   5.137  17.151  0.00  0.00    +0.000 C 
ATOM     26  C   UNL     1       4.099   4.812  17.168  0.00  0.00    +0.000 C 
ENDBRANCH   1  26
TORSDOF 4
ENDMDL
