MODEL 1
REMARK VINA RESULT:      -8.8      0.000      0.000
REMARK  Name = 
REMARK  5 active torsions:
REMARK  status: ('A' for Active; 'I' for Inactive)
REMARK    1  A    between atoms: C_1  and  C_2
REMARK    2  A    between atoms: C_5  and  S_6
REMARK    3  A    between atoms: S_6  and  C_9
REMARK    4  A    between atoms: C_15  and  N_16
REMARK    5  A    between atoms: N_19  and  C_20
REMARK                            x       y       z     vdW  Elec       q    Type
REMARK                         _______ _______ _______ _____ _____    ______ ____
ROOT
ATOM      1  C   UNL     1       5.252   4.403  18.960  0.00  0.00    +0.000 A 
ATOM      2  N   UNL     1       5.261   3.127  19.402  0.00  0.00    +0.000 NA
ATOM      3  N   UNL     1       4.091   3.019  20.058  0.00  0.00    +0.000 N 
ATOM      4  C   UNL     1       3.345   4.162  20.074  0.00  0.00    +0.000 A 
ATOM      5  C   UNL     1       2.117   4.440  20.670  0.00  0.00    +0.000 A 
ATOM      6  C   UNL     1       1.614   5.733  20.496  0.00  0.00    +0.000 A 
ATOM      7  C   UNL     1       2.279   6.718  19.750  0.00  0.00    +0.000 A 
ATOM      8  C   UNL     1       3.520   6.387  19.173  0.00  0.00    +0.000 A 
ATOM      9  C   UNL     1       4.067   5.096  19.341  0.00  0.00    +0.000 A 
ATOM     10  H   UNL     1       3.856   2.129  20.482  0.00  0.00    +0.000 HD
ENDROOT
BRANCH   7  11
ATOM     11  N   UNL     1       1.728   7.982  19.665  0.00  0.00    +0.000 N 
ATOM     12  C   UNL     1       1.302   8.729  20.854  0.00  0.00    +0.000 C 
ATOM     13  C   UNL     1       0.059   9.578  20.490  0.00  0.00    +0.000 C 
ATOM     14  N   UNL     1       0.307  10.484  19.341  0.00  0.00    +0.000 NA
ATOM     15  C   UNL     1      -0.896  11.244  19.017  0.00  0.00    +0.000 C 
ATOM     16  C   UNL     1       0.751   9.682  18.177  0.00  0.00    +0.000 C 
ATOM     17  C   UNL     1       2.000   8.827  18.490  0.00  0.00    +0.000 C 
ENDBRANCH   7  11
BRANCH   1  18
ATOM     18  S   UNL     1       6.567   5.119  18.063  0.00  0.00    +0.000 S 
ATOM     19  O   UNL     1       7.761   4.478  18.574  0.00  0.00    +0.000 OA
ATOM     20  O   UNL     1       6.359   6.552  18.181  0.00  0.00    +0.000 OA
BRANCH  18  25
ATOM     21  C   UNL     1       5.975   3.522  12.228  0.00  0.00    +0.000 C 
ATOM     22  C   UNL     1       6.100   3.948  13.663  0.00  0.00    +0.000 A 
ATOM     23  C   UNL     1       7.211   4.680  14.097  0.00  0.00    +0.000 A 
ATOM     24  C   UNL     1       7.342   5.036  15.441  0.00  0.00    +0.000 A 
ATOM     25  C   UNL     1       6.361   4.652  16.362  0.00  0.00    +0.000 A 
ATOM     26  C   UNL     1       5.225   3.959  15.936  0.00  0.00    +0.000 A 
ATOM     27  C   UNL     1       5.106   3.596  14.588  0.00  0.00    +0.000 A 
ENDBRANCH  18  25
ENDBRANCH   1  18
TORSDOF 3
ENDMDL
MODEL 2
REMARK VINA RESULT:      -8.5      0.699      1.185
REMARK  Name = 
REMARK  5 active torsions:
REMARK  status: ('A' for Active; 'I' for Inactive)
REMARK    1  A    between atoms: C_1  and  C_2
REMARK    2  A    between atoms: C_5  and  S_6
REMARK    3  A    between atoms: S_6  and  C_9
REMARK    4  A    between atoms: C_15  and  N_16
REMARK    5  A    between atoms: N_19  and  C_20
REMARK                            x       y       z     vdW  Elec       q    Type
REMARK                         _______ _______ _______ _____ _____    ______ ____
ROOT
ATOM      1  C   UNL     1       5.313   4.584  18.911  0.00  0.00    +0.000 A 
ATOM      2  N   UNL     1       5.300   3.347  19.451  0.00  0.00    +0.000 NA
ATOM      3  N   UNL     1       4.124   3.307  20.104  0.00  0.00    +0.000 N 
ATOM      4  C   UNL     1       3.395   4.458  20.025  0.00  0.00    +0.000 A 
ATOM      5  C   UNL     1       2.167   4.800  20.587  0.00  0.00    +0.000 A 
ATOM      6  C   UNL     1       1.685   6.082  20.308  0.00  0.00    +0.000 A 
ATOM      7  C   UNL     1       2.370   6.996  19.492  0.00  0.00    +0.000 A 
ATOM      8  C   UNL     1       3.610   6.603  18.952  0.00  0.00    +0.000 A 
ATOM      9  C   UNL     1       4.136   5.321  19.226  0.00  0.00    +0.000 A 
ATOM     10  H   UNL     1       3.873   2.456  20.594  0.00  0.00    +0.000 HD
ENDROOT
BRANCH   7  11
ATOM     11  N   UNL     1       1.838   8.257  19.304  0.00  0.00    +0.000 N 
ATOM     12  C   UNL     1       1.722   8.865  17.974  0.00  0.00    +0.000 C 
ATOM     13  C   UNL     1       1.936  10.393  18.104  0.00  0.00    +0.000 C 
ATOM     14  N   UNL     1       0.998  11.018  19.070  0.00  0.00    +0.000 NA
ATOM     15  C   UNL     1       1.253  12.450  19.181  0.00  0.00    +0.000 C 
ATOM     16  C   UNL     1       1.144  10.356  20.387  0.00  0.00    +0.000 C 
ATOM     17  C   UNL     1       0.924   8.828  20.308  0.00  0.00    +0.000 C 
ENDBRANCH   7  11
BRANCH   1  18
ATOM     18  S   UNL     1       6.644   5.208  17.971  0.00  0.00    +0.000 S 
ATOM     19  O   UNL     1       7.816   4.527  18.483  0.00  0.00    +0.000 OA
ATOM     20  O   UNL     1       6.507   6.653  18.047  0.00  0.00    +0.000 OA
BRANCH  18  25
ATOM     21  C   UNL     1       5.877   3.469  12.197  0.00  0.00    +0.000 C 
ATOM     22  C   UNL     1       6.045   3.930  13.617  0.00  0.00    +0.000 A 
ATOM     23  C   UNL     1       7.161   4.684  13.996  0.00  0.00    +0.000 A 
ATOM     24  C   UNL     1       7.333   5.073  15.326  0.00  0.00    +0.000 A 
ATOM     25  C   UNL     1       6.388   4.699  16.288  0.00  0.00    +0.000 A 
ATOM     26  C   UNL     1       5.246   3.984  15.917  0.00  0.00    +0.000 A 
ATOM     27  C   UNL     1       5.086   3.589  14.582  0.00  0.00    +0.000 A 
ENDBRANCH  18  25
ENDBRANCH   1  18
TORSDOF 3
ENDMDL
MODEL 3
REMARK VINA RESULT:      -8.2      2.318      3.293
REMARK  Name = 
REMARK  5 active torsions:
REMARK  status: ('A' for Active; 'I' for Inactive)
REMARK    1  A    between atoms: C_1  and  C_2
REMARK    2  A    between atoms: C_5  and  S_6
REMARK    3  A    between atoms: S_6  and  C_9
REMARK    4  A    between atoms: C_15  and  N_16
REMARK    5  A    between atoms: N_19  and  C_20
REMARK                            x       y       z     vdW  Elec       q    Type
REMARK                         _______ _______ _______ _____ _____    ______ ____
ROOT
ATOM      1  C   UNL     1       4.907   4.495  18.188  0.00  0.00    +0.000 A 
ATOM      2  N   UNL     1       5.090   3.273  18.733  0.00  0.00    +0.000 NA
ATOM      3  N   UNL     1       4.173   3.232  19.716  0.00  0.00    +0.000 N 
ATOM      4  C   UNL     1       3.426   4.368  19.840  0.00  0.00    +0.000 A 
ATOM      5  C   UNL     1       2.422   4.704  20.745  0.00  0.00    +0.000 A 
ATOM      6  C   UNL     1       1.845   5.970  20.601  0.00  0.00    +0.000 A 
ATOM      7  C   UNL     1       2.225   6.872  19.594  0.00  0.00    +0.000 A 
ATOM      8  C   UNL     1       3.249   6.485  18.709  0.00  0.00    +0.000 A 
ATOM      9  C   UNL     1       3.865   5.221  18.835  0.00  0.00    +0.000 A 
ATOM     10  H   UNL     1       4.105   2.391  20.278  0.00  0.00    +0.000 HD
ENDROOT
BRANCH   7  11
ATOM     11  N   UNL     1       1.630   8.118  19.552  0.00  0.00    +0.000 N 
ATOM     12  C   UNL     1       1.221   8.830  20.768  0.00  0.00    +0.000 C 
ATOM     13  C   UNL     1      -0.060   9.643  20.463  0.00  0.00    +0.000 C 
ATOM     14  N   UNL     1       0.118  10.577  19.323  0.00  0.00    +0.000 NA
ATOM     15  C   UNL     1      -1.120  11.302  19.054  0.00  0.00    +0.000 C 
ATOM     16  C   UNL     1       0.547   9.811  18.130  0.00  0.00    +0.000 C 
ATOM     17  C   UNL     1       1.833   8.992  18.384  0.00  0.00    +0.000 C 
ENDBRANCH   7  11
BRANCH   1  18
ATOM     18  S   UNL     1       5.869   5.116  16.872  0.00  0.00    +0.000 S 
ATOM     19  O   UNL     1       4.912   5.687  15.946  0.00  0.00    +0.000 OA
ATOM     20  O   UNL     1       6.734   4.012  16.492  0.00  0.00    +0.000 OA
BRANCH  18  25
ATOM     21  C   UNL     1       9.227   9.681  19.071  0.00  0.00    +0.000 C 
ATOM     22  C   UNL     1       8.426   8.543  18.504  0.00  0.00    +0.000 A 
ATOM     23  C   UNL     1       7.529   8.756  17.452  0.00  0.00    +0.000 A 
ATOM     24  C   UNL     1       6.756   7.702  16.958  0.00  0.00    +0.000 A 
ATOM     25  C   UNL     1       6.873   6.428  17.524  0.00  0.00    +0.000 A 
ATOM     26  C   UNL     1       7.796   6.190  18.546  0.00  0.00    +0.000 A 
ATOM     27  C   UNL     1       8.561   7.255  19.043  0.00  0.00    +0.000 A 
ENDBRANCH  18  25
ENDBRANCH   1  18
TORSDOF 3
ENDMDL
MODEL 4
REMARK VINA RESULT:      -8.1      2.204      3.176
REMARK  Name = 
REMARK  5 active torsions:
REMARK  status: ('A' for Active; 'I' for Inactive)
REMARK    1  A    between atoms: C_1  and  C_2
REMARK    2  A    between atoms: C_5  and  S_6
REMARK    3  A    between atoms: S_6  and  C_9
REMARK    4  A    between atoms: C_15  and  N_16
REMARK    5  A    between atoms: N_19  and  C_20
REMARK                            x       y       z     vdW  Elec       q    Type
REMARK                         _______ _______ _______ _____ _____    ______ ____
ROOT
ATOM      1  C   UNL     1       4.687   4.214  18.132  0.00  0.00    +0.000 A 
ATOM      2  N   UNL     1       4.809   2.973  18.648  0.00  0.00    +0.000 NA
ATOM      3  N   UNL     1       3.917   2.967  19.655  0.00  0.00    +0.000 N 
ATOM      4  C   UNL     1       3.244   4.143  19.820  0.00  0.00    +0.000 A 
ATOM      5  C   UNL     1       2.286   4.522  20.758  0.00  0.00    +0.000 A 
ATOM      6  C   UNL     1       1.785   5.823  20.652  0.00  0.00    +0.000 A 
ATOM      7  C   UNL     1       2.192   6.720  19.653  0.00  0.00    +0.000 A 
ATOM      8  C   UNL     1       3.168   6.290  18.733  0.00  0.00    +0.000 A 
ATOM      9  C   UNL     1       3.709   4.988  18.819  0.00  0.00    +0.000 A 
ATOM     10  H   UNL     1       3.812   2.121  20.203  0.00  0.00    +0.000 HD
ENDROOT
BRANCH   7  11
ATOM     11  N   UNL     1       1.674   8.001  19.650  0.00  0.00    +0.000 N 
ATOM     12  C   UNL     1       1.305   8.696  20.888  0.00  0.00    +0.000 C 
ATOM     13  C   UNL     1       0.075   9.595  20.607  0.00  0.00    +0.000 C 
ATOM     14  N   UNL     1       0.313  10.552  19.498  0.00  0.00    +0.000 NA
ATOM     15  C   UNL     1      -0.877  11.358  19.251  0.00  0.00    +0.000 C 
ATOM     16  C   UNL     1       0.699   9.800  18.282  0.00  0.00    +0.000 C 
ATOM     17  C   UNL     1       1.933   8.898  18.510  0.00  0.00    +0.000 C 
ENDBRANCH   7  11
BRANCH   1  18
ATOM     18  S   UNL     1       5.652   4.802  16.802  0.00  0.00    +0.000 S 
ATOM     19  O   UNL     1       4.694   5.318  15.845  0.00  0.00    +0.000 OA
ATOM     20  O   UNL     1       6.542   3.701  16.473  0.00  0.00    +0.000 OA
BRANCH  18  25
ATOM     21  C   UNL     1       9.058   9.371  18.916  0.00  0.00    +0.000 C 
ATOM     22  C   UNL     1       8.189   8.251  18.420  0.00  0.00    +0.000 A 
ATOM     23  C   UNL     1       8.350   6.950  18.910  0.00  0.00    +0.000 A 
ATOM     24  C   UNL     1       7.568   5.905  18.412  0.00  0.00    +0.000 A 
ATOM     25  C   UNL     1       6.623   6.158  17.412  0.00  0.00    +0.000 A 
ATOM     26  C   UNL     1       6.420   7.459  16.944  0.00  0.00    +0.000 A 
ATOM     27  C   UNL     1       7.216   8.500  17.440  0.00  0.00    +0.000 A 
ENDBRANCH  18  25
ENDBRANCH   1  18
TORSDOF 3
ENDMDL
MODEL 5
REMARK VINA RESULT:      -8.1      2.460      3.531
REMARK  Name = 
REMARK  5 active torsions:
REMARK  status: ('A' for Active; 'I' for Inactive)
REMARK    1  A    between atoms: C_1  and  C_2
REMARK    2  A    between atoms: C_5  and  S_6
REMARK    3  A    between atoms: S_6  and  C_9
REMARK    4  A    between atoms: C_15  and  N_16
REMARK    5  A    between atoms: N_19  and  C_20
REMARK                            x       y       z     vdW  Elec       q    Type
REMARK                         _______ _______ _______ _____ _____    ______ ____
ROOT
ATOM      1  C   UNL     1       4.764   4.641  18.209  0.00  0.00    +0.000 A 
ATOM      2  N   UNL     1       4.819   3.428  18.798  0.00  0.00    +0.000 NA
ATOM      3  N   UNL     1       3.849   3.491  19.729  0.00  0.00    +0.000 N 
ATOM      4  C   UNL     1       3.190   4.685  19.777  0.00  0.00    +0.000 A 
ATOM      5  C   UNL     1       2.168   5.129  20.613  0.00  0.00    +0.000 A 
ATOM      6  C   UNL     1       1.703   6.431  20.399  0.00  0.00    +0.000 A 
ATOM      7  C   UNL     1       2.208   7.266  19.390  0.00  0.00    +0.000 A 
ATOM      8  C   UNL     1       3.244   6.771  18.576  0.00  0.00    +0.000 A 
ATOM      9  C   UNL     1       3.750   5.467  18.773  0.00  0.00    +0.000 A 
ATOM     10  H   UNL     1       3.684   2.677  20.310  0.00  0.00    +0.000 HD
ENDROOT
BRANCH   7  11
ATOM     11  N   UNL     1       1.717   8.552  19.278  0.00  0.00    +0.000 N 
ATOM     12  C   UNL     1       1.640   9.249  17.988  0.00  0.00    +0.000 C 
ATOM     13  C   UNL     1       1.899  10.757  18.220  0.00  0.00    +0.000 C 
ATOM     14  N   UNL     1       0.966  11.348  19.212  0.00  0.00    +0.000 NA
ATOM     15  C   UNL     1       1.263  12.762  19.419  0.00  0.00    +0.000 C 
ATOM     16  C   UNL     1       1.072  10.598  20.485  0.00  0.00    +0.000 C 
ATOM     17  C   UNL     1       0.807   9.086  20.305  0.00  0.00    +0.000 C 
ENDBRANCH   7  11
BRANCH   1  18
ATOM     18  S   UNL     1       5.843   5.140  16.932  0.00  0.00    +0.000 S 
ATOM     19  O   UNL     1       4.979   5.685  15.904  0.00  0.00    +0.000 OA
ATOM     20  O   UNL     1       6.687   3.983  16.685  0.00  0.00    +0.000 OA
BRANCH  18  25
ATOM     21  C   UNL     1       9.217   9.710  19.095  0.00  0.00    +0.000 C 
ATOM     22  C   UNL     1       8.413   8.570  18.538  0.00  0.00    +0.000 A 
ATOM     23  C   UNL     1       7.547   8.767  17.456  0.00  0.00    +0.000 A 
ATOM     24  C   UNL     1       6.771   7.713  16.971  0.00  0.00    +0.000 A 
ATOM     25  C   UNL     1       6.851   6.454  17.575  0.00  0.00    +0.000 A 
ATOM     26  C   UNL     1       7.743   6.230  18.627  0.00  0.00    +0.000 A 
ATOM     27  C   UNL     1       8.511   7.295  19.115  0.00  0.00    +0.000 A 
ENDBRANCH  18  25
ENDBRANCH   1  18
TORSDOF 3
ENDMDL
MODEL 6
REMARK VINA RESULT:      -8.0      0.609      1.122
REMARK  Name = 
REMARK  5 active torsions:
REMARK  status: ('A' for Active; 'I' for Inactive)
REMARK    1  A    between atoms: C_1  and  C_2
REMARK    2  A    between atoms: C_5  and  S_6
REMARK    3  A    between atoms: S_6  and  C_9
REMARK    4  A    between atoms: C_15  and  N_16
REMARK    5  A    between atoms: N_19  and  C_20
REMARK                            x       y       z     vdW  Elec       q    Type
REMARK                         _______ _______ _______ _____ _____    ______ ____
ROOT
ATOM      1  C   UNL     1       5.051   5.034  18.677  0.00  0.00    +0.000 A 
ATOM      2  N   UNL     1       5.177   3.758  19.098  0.00  0.00    +0.000 NA
ATOM      3  N   UNL     1       4.077   3.569  19.849  0.00  0.00    +0.000 N 
ATOM      4  C   UNL     1       3.264   4.661  19.945  0.00  0.00    +0.000 A 
ATOM      5  C   UNL     1       2.076   4.856  20.646  0.00  0.00    +0.000 A 
ATOM      6  C   UNL     1       1.480   6.115  20.533  0.00  0.00    +0.000 A 
ATOM      7  C   UNL     1       2.016   7.147  19.747  0.00  0.00    +0.000 A 
ATOM      8  C   UNL     1       3.221   6.901  19.063  0.00  0.00    +0.000 A 
ATOM      9  C   UNL     1       3.861   5.646  19.166  0.00  0.00    +0.000 A 
ATOM     10  H   UNL     1       3.935   2.662  20.279  0.00  0.00    +0.000 HD
ENDROOT
BRANCH   7  11
ATOM     11  N   UNL     1       1.381   8.374  19.727  0.00  0.00    +0.000 N 
ATOM     12  C   UNL     1       1.006   9.079  20.958  0.00  0.00    +0.000 C 
ATOM     13  C   UNL     1      -0.313   9.850  20.709  0.00  0.00    +0.000 C 
ATOM     14  N   UNL     1      -0.218  10.782  19.558  0.00  0.00    +0.000 NA
ATOM     15  C   UNL     1      -1.489  11.466  19.344  0.00  0.00    +0.000 C 
ATOM     16  C   UNL     1       0.179  10.023  18.350  0.00  0.00    +0.000 C 
ATOM     17  C   UNL     1       1.501   9.247  18.547  0.00  0.00    +0.000 C 
ENDBRANCH   7  11
BRANCH   1  18
ATOM     18  S   UNL     1       6.236   5.841  17.682  0.00  0.00    +0.000 S 
ATOM     19  O   UNL     1       7.511   5.534  18.297  0.00  0.00    +0.000 OA
ATOM     20  O   UNL     1       5.754   7.206  17.564  0.00  0.00    +0.000 OA
BRANCH  18  25
ATOM     21  C   UNL     1       5.957   3.244  12.193  0.00  0.00    +0.000 C 
ATOM     22  C   UNL     1       6.042   3.853  13.563  0.00  0.00    +0.000 A 
ATOM     23  C   UNL     1       4.948   3.807  14.435  0.00  0.00    +0.000 A 
ATOM     24  C   UNL     1       5.019   4.413  15.691  0.00  0.00    +0.000 A 
ATOM     25  C   UNL     1       6.187   5.078  16.079  0.00  0.00    +0.000 A 
ATOM     26  C   UNL     1       7.303   5.095  15.238  0.00  0.00    +0.000 A 
ATOM     27  C   UNL     1       7.221   4.494  13.974  0.00  0.00    +0.000 A 
ENDBRANCH  18  25
ENDBRANCH   1  18
TORSDOF 3
ENDMDL
MODEL 7
REMARK VINA RESULT:      -8.0      1.287      1.591
REMARK  Name = 
REMARK  5 active torsions:
REMARK  status: ('A' for Active; 'I' for Inactive)
REMARK    1  A    between atoms: C_1  and  C_2
REMARK    2  A    between atoms: C_5  and  S_6
REMARK    3  A    between atoms: S_6  and  C_9
REMARK    4  A    between atoms: C_15  and  N_16
REMARK    5  A    between atoms: N_19  and  C_20
REMARK                            x       y       z     vdW  Elec       q    Type
REMARK                         _______ _______ _______ _____ _____    ______ ____
ROOT
ATOM      1  C   UNL     1       5.273   5.130  17.129  0.00  0.00    +0.000 A 
ATOM      2  N   UNL     1       5.604   3.859  17.438  0.00  0.00    +0.000 NA
ATOM      3  N   UNL     1       4.777   3.562  18.457  0.00  0.00    +0.000 N 
ATOM      4  C   UNL     1       3.947   4.582  18.826  0.00  0.00    +0.000 A 
ATOM      5  C   UNL     1       2.995   4.662  19.839  0.00  0.00    +0.000 A 
ATOM      6  C   UNL     1       2.302   5.870  19.956  0.00  0.00    +0.000 A 
ATOM      7  C   UNL     1       2.519   6.961  19.100  0.00  0.00    +0.000 A 
ATOM      8  C   UNL     1       3.497   6.832  18.096  0.00  0.00    +0.000 A 
ATOM      9  C   UNL     1       4.228   5.631  17.958  0.00  0.00    +0.000 A 
ATOM     10  H   UNL     1       4.827   2.637  18.866  0.00  0.00    +0.000 HD
ENDROOT
BRANCH   7  11
ATOM     11  N   UNL     1       1.818   8.132  19.315  0.00  0.00    +0.000 N 
ATOM     12  C   UNL     1       1.461   8.592  20.661  0.00  0.00    +0.000 C 
ATOM     13  C   UNL     1       0.092   9.312  20.595  0.00  0.00    +0.000 C 
ATOM     14  N   UNL     1       0.086  10.431  19.621  0.00  0.00    +0.000 NA
ATOM     15  C   UNL     1      -1.229  11.063  19.572  0.00  0.00    +0.000 C 
ATOM     16  C   UNL     1       0.470   9.916  18.287  0.00  0.00    +0.000 C 
ATOM     17  C   UNL     1       1.839   9.200  18.301  0.00  0.00    +0.000 C 
ENDBRANCH   7  11
BRANCH   1  18
ATOM     18  S   UNL     1       6.068   6.055  15.881  0.00  0.00    +0.000 S 
ATOM     19  O   UNL     1       7.385   6.345  16.412  0.00  0.00    +0.000 OA
ATOM     20  O   UNL     1       5.130   7.113  15.547  0.00  0.00    +0.000 OA
BRANCH  18  25
ATOM     21  C   UNL     1       6.811   2.417  11.068  0.00  0.00    +0.000 C 
ATOM     22  C   UNL     1       6.609   3.341  12.234  0.00  0.00    +0.000 A 
ATOM     23  C   UNL     1       7.603   4.255  12.603  0.00  0.00    +0.000 A 
ATOM     24  C   UNL     1       7.427   5.081  13.715  0.00  0.00    +0.000 A 
ATOM     25  C   UNL     1       6.253   4.990  14.471  0.00  0.00    +0.000 A 
ATOM     26  C   UNL     1       5.233   4.115  14.090  0.00  0.00    +0.000 A 
ATOM     27  C   UNL     1       5.421   3.281  12.979  0.00  0.00    +0.000 A 
ENDBRANCH  18  25
ENDBRANCH   1  18
TORSDOF 3
ENDMDL
MODEL 8
REMARK VINA RESULT:      -7.9      2.159      2.980
REMARK  Name = 
REMARK  5 active torsions:
REMARK  status: ('A' for Active; 'I' for Inactive)
REMARK    1  A    between atoms: C_1  and  C_2
REMARK    2  A    between atoms: C_5  and  S_6
REMARK    3  A    between atoms: S_6  and  C_9
REMARK    4  A    between atoms: C_15  and  N_16
REMARK    5  A    between atoms: N_19  and  C_20
REMARK                            x       y       z     vdW  Elec       q    Type
REMARK                         _______ _______ _______ _____ _____    ______ ____
ROOT
ATOM      1  C   UNL     1       4.085   3.509  17.987  0.00  0.00    +0.000 A 
ATOM      2  N   UNL     1       4.041   2.238  18.442  0.00  0.00    +0.000 NA
ATOM      3  N   UNL     1       3.199   2.313  19.489  0.00  0.00    +0.000 N 
ATOM      4  C   UNL     1       2.717   3.566  19.737  0.00  0.00    +0.000 A 
ATOM      5  C   UNL     1       1.864   4.034  20.734  0.00  0.00    +0.000 A 
ATOM      6  C   UNL     1       1.559   5.398  20.710  0.00  0.00    +0.000 A 
ATOM      7  C   UNL     1       2.056   6.275  19.733  0.00  0.00    +0.000 A 
ATOM      8  C   UNL     1       2.919   5.753  18.750  0.00  0.00    +0.000 A 
ATOM      9  C   UNL     1       3.262   4.383  18.753  0.00  0.00    +0.000 A 
ATOM     10  H   UNL     1       2.991   1.465  20.003  0.00  0.00    +0.000 HD
ENDROOT
BRANCH   7  11
ATOM     11  N   UNL     1       1.736   7.617  19.811  0.00  0.00    +0.000 N 
ATOM     12  C   UNL     1       1.449   8.278  21.088  0.00  0.00    +0.000 C 
ATOM     13  C   UNL     1       0.375   9.368  20.856  0.00  0.00    +0.000 C 
ATOM     14  N   UNL     1       0.776  10.348  19.816  0.00  0.00    +0.000 NA
ATOM     15  C   UNL     1      -0.275  11.340  19.611  0.00  0.00    +0.000 C 
ATOM     16  C   UNL     1       1.070   9.628  18.556  0.00  0.00    +0.000 C 
ATOM     17  C   UNL     1       2.150   8.537  18.737  0.00  0.00    +0.000 C 
ENDBRANCH   7  11
BRANCH   1  18
ATOM     18  S   UNL     1       5.073   4.014  16.641  0.00  0.00    +0.000 S 
ATOM     19  O   UNL     1       4.141   4.569  15.680  0.00  0.00    +0.000 OA
ATOM     20  O   UNL     1       5.894   2.857  16.327  0.00  0.00    +0.000 OA
BRANCH  18  25
ATOM     21  C   UNL     1       8.605   8.560  18.592  0.00  0.00    +0.000 C 
ATOM     22  C   UNL     1       7.760   7.426  18.085  0.00  0.00    +0.000 A 
ATOM     23  C   UNL     1       6.816   7.635  17.074  0.00  0.00    +0.000 A 
ATOM     24  C   UNL     1       6.004   6.586  16.637  0.00  0.00    +0.000 A 
ATOM     25  C   UNL     1       6.128   5.321  17.220  0.00  0.00    +0.000 A 
ATOM     26  C   UNL     1       7.096   5.085  18.199  0.00  0.00    +0.000 A 
ATOM     27  C   UNL     1       7.900   6.145  18.640  0.00  0.00    +0.000 A 
ENDBRANCH  18  25
ENDBRANCH   1  18
TORSDOF 3
ENDMDL
MODEL 9
REMARK VINA RESULT:      -7.9      3.080      8.078
REMARK  Name = 
REMARK  5 active torsions:
REMARK  status: ('A' for Active; 'I' for Inactive)
REMARK    1  A    between atoms: C_1  and  C_2
REMARK    2  A    between atoms: C_5  and  S_6
REMARK    3  A    between atoms: S_6  and  C_9
REMARK    4  A    between atoms: C_15  and  N_16
REMARK    5  A    between atoms: N_19  and  C_20
REMARK                            x       y       z     vdW  Elec       q    Type
REMARK                         _______ _______ _______ _____ _____    ______ ____
ROOT
ATOM      1  C   UNL     1       1.086   9.034  19.792  0.00  0.00    +0.000 A 
ATOM      2  N   UNL     1       0.358   8.903  20.921  0.00  0.00    +0.000 NA
ATOM      3  N   UNL     1       0.716   7.691  21.382  0.00  0.00    +0.000 N 
ATOM      4  C   UNL     1       1.621   7.034  20.599  0.00  0.00    +0.000 A 
ATOM      5  C   UNL     1       2.193   5.771  20.730  0.00  0.00    +0.000 A 
ATOM      6  C   UNL     1       3.101   5.387  19.738  0.00  0.00    +0.000 A 
ATOM      7  C   UNL     1       3.454   6.217  18.662  0.00  0.00    +0.000 A 
ATOM      8  C   UNL     1       2.842   7.482  18.573  0.00  0.00    +0.000 A 
ATOM      9  C   UNL     1       1.908   7.897  19.548  0.00  0.00    +0.000 A 
ATOM     10  H   UNL     1       0.303   7.361  22.247  0.00  0.00    +0.000 HD
ENDROOT
BRANCH   7  11
ATOM     11  N   UNL     1       4.329   5.740  17.706  0.00  0.00    +0.000 N 
ATOM     12  C   UNL     1       5.152   6.634  16.885  0.00  0.00    +0.000 C 
ATOM     13  C   UNL     1       5.317   6.009  15.478  0.00  0.00    +0.000 C 
ATOM     14  N   UNL     1       5.888   4.640  15.529  0.00  0.00    +0.000 NA
ATOM     15  C   UNL     1       6.001   4.081  14.185  0.00  0.00    +0.000 C 
ATOM     16  C   UNL     1       5.030   3.786  16.382  0.00  0.00    +0.000 C 
ATOM     17  C   UNL     1       4.848   4.364  17.804  0.00  0.00    +0.000 C 
ENDBRANCH   7  11
BRANCH   1  18
ATOM     18  S   UNL     1       0.990  10.424  18.742  0.00  0.00    +0.000 S 
ATOM     19  O   UNL     1       1.687  10.030  17.535  0.00  0.00    +0.000 OA
ATOM     20  O   UNL     1       1.445  11.538  19.557  0.00  0.00    +0.000 OA
BRANCH  18  25
ATOM     21  C   UNL     1      -4.883  11.162  17.356  0.00  0.00    +0.000 C 
ATOM     22  C   UNL     1      -3.422  11.007  17.673  0.00  0.00    +0.000 A 
ATOM     23  C   UNL     1      -2.647  10.042  17.021  0.00  0.00    +0.000 A 
ATOM     24  C   UNL     1      -1.301   9.875  17.351  0.00  0.00    +0.000 A 
ATOM     25  C   UNL     1      -0.724  10.671  18.347  0.00  0.00    +0.000 A 
ATOM     26  C   UNL     1      -1.473  11.669  18.976  0.00  0.00    +0.000 A 
ATOM     27  C   UNL     1      -2.826  11.823  18.647  0.00  0.00    +0.000 A 
ENDBRANCH  18  25
ENDBRANCH   1  18
TORSDOF 3
ENDMDL
