MODEL 1
REMARK VINA RESULT:      -7.2      0.000      0.000
REMARK  Name = 
REMARK  8 active torsions:
REMARK  status: ('A' for Active; 'I' for Inactive)
REMARK    1  A    between atoms: C_2  and  C_3
REMARK    2  A    between atoms: C_4  and  C_5
REMARK    3  A    between atoms: C_8  and  C_9
REMARK    4  A    between atoms: N_11  and  C_12
REMARK    5  A    between atoms: C_12  and  C_13
REMARK    6  A    between atoms: C_13  and  N_14
REMARK    7  A    between atoms: C_22  and  C_23
REMARK    8  A    between atoms: C_34  and  N_35
REMARK                            x       y       z     vdW  Elec       q    Type
REMARK                         _______ _______ _______ _____ _____    ______ ____
ROOT
ATOM      1  C   UNL     1      -1.839  11.818  19.390  0.00  0.00    +0.000 A 
ATOM      2  C   UNL     1      -0.419  11.804  19.771  0.00  0.00    +0.000 A 
ATOM      3  C   UNL     1       0.092  12.842  20.488  0.00  0.00    +0.000 A 
ATOM      4  C   UNL     1      -0.741  13.945  20.833  0.00  0.00    +0.000 A 
ATOM      5  N   UNL     1      -0.431  15.041  21.490  0.00  0.00    +0.000 NA
ATOM      6  C   UNL     1      -1.577  15.780  21.550  0.00  0.00    +0.000 A 
ATOM      7  C   UNL     1      -1.760  17.039  22.141  0.00  0.00    +0.000 A 
ATOM      8  C   UNL     1      -3.015  17.646  22.077  0.00  0.00    +0.000 A 
ATOM      9  C   UNL     1      -4.071  17.002  21.442  0.00  0.00    +0.000 A 
ATOM     10  C   UNL     1      -3.910  15.736  20.861  0.00  0.00    +0.000 A 
ATOM     11  C   UNL     1      -2.639  15.131  20.918  0.00  0.00    +0.000 A 
ATOM     12  N   UNL     1      -2.092  13.927  20.455  0.00  0.00    +0.000 N 
ATOM     13  C   UNL     1      -2.668  12.839  19.735  0.00  0.00    +0.000 A 
ENDROOT
BRANCH   2  14
ATOM     14  C   UNL     1       0.473  10.669  19.427  0.00  0.00    +0.000 A 
ATOM     15  C   UNL     1       1.114  10.631  18.181  0.00  0.00    +0.000 A 
ATOM     16  C   UNL     1       1.858   9.507  17.810  0.00  0.00    +0.000 A 
ATOM     17  C   UNL     1       1.973   8.413  18.677  0.00  0.00    +0.000 A 
ATOM     18  C   UNL     1       1.394   8.479  19.949  0.00  0.00    +0.000 A 
ATOM     19  C   UNL     1       0.646   9.603  20.321  0.00  0.00    +0.000 A 
BRANCH  17  20
ATOM     20  C   UNL     1       2.718   7.215  18.198  0.00  0.00    +0.000 C 
ATOM     21  O   UNL     1       3.698   7.350  17.474  0.00  0.00    +0.000 OA
ATOM     22  N   UNL     1       2.222   5.986  18.575  0.00  0.00    +0.000 N 
ATOM     23  H   UNL     1       1.286   5.905  18.956  0.00  0.00    +0.000 HD
BRANCH  22  24
ATOM     24  C   UNL     1       2.792   4.757  18.053  0.00  0.00    +0.000 C 
BRANCH  24  25
ATOM     25  C   UNL     1       4.054   4.352  18.837  0.00  0.00    +0.000 C 
BRANCH  25  26
ATOM     26  N   UNL     1       5.221   4.059  17.972  0.00  0.00    +0.000 NA
ATOM     27  C   UNL     1       4.868   4.156  16.545  0.00  0.00    +0.000 C 
ATOM     28  C   UNL     1       6.058   3.793  15.659  0.00  0.00    +0.000 C 
ATOM     29  C   UNL     1       7.261   4.675  15.961  0.00  0.00    +0.000 C 
ATOM     30  C   UNL     1       7.568   4.664  17.455  0.00  0.00    +0.000 C 
ATOM     31  C   UNL     1       6.324   4.987  18.285  0.00  0.00    +0.000 C 
ENDBRANCH  25  26
ENDBRANCH  24  25
ENDBRANCH  22  24
ENDBRANCH  17  20
ENDBRANCH   2  14
BRANCH  13  32
ATOM     32  N   UNL     1      -4.027  12.854  19.440  0.00  0.00    +0.000 N 
ATOM     33  H   UNL     1      -4.319  12.214  18.710  0.00  0.00    +0.000 HD
ATOM     34  H   UNL     1      -4.666  12.808  20.234  0.00  0.00    +0.000 HD
ENDBRANCH  13  32
BRANCH   1  36
ATOM     35  N   UNL     1      -2.865   9.665  17.960  0.00  0.00    +0.000 NA
ATOM     36  C   UNL     1      -2.400  10.642  18.608  0.00  0.00    +0.000 C 
ENDBRANCH   1  36
BRANCH   3  37
ATOM     37  C   UNL     1       1.461  12.877  20.909  0.00  0.00    +0.000 C 
ATOM     38  N   UNL     1       2.564  12.937  21.272  0.00  0.00    +0.000 NA
ENDBRANCH   3  37
TORSDOF 8
ENDMDL
MODEL 2
REMARK VINA RESULT:      -7.1      2.119      3.213
REMARK  Name = 
REMARK  8 active torsions:
REMARK  status: ('A' for Active; 'I' for Inactive)
REMARK    1  A    between atoms: C_2  and  C_3
REMARK    2  A    between atoms: C_4  and  C_5
REMARK    3  A    between atoms: C_8  and  C_9
REMARK    4  A    between atoms: N_11  and  C_12
REMARK    5  A    between atoms: C_12  and  C_13
REMARK    6  A    between atoms: C_13  and  N_14
REMARK    7  A    between atoms: C_22  and  C_23
REMARK    8  A    between atoms: C_34  and  N_35
REMARK                            x       y       z     vdW  Elec       q    Type
REMARK                         _______ _______ _______ _____ _____    ______ ____
ROOT
ATOM      1  C   UNL     1      -1.185  10.746  19.249  0.00  0.00    +0.000 A 
ATOM      2  C   UNL     1      -0.077  10.202  20.049  0.00  0.00    +0.000 A 
ATOM      3  C   UNL     1       0.108  10.644  21.323  0.00  0.00    +0.000 A 
ATOM      4  C   UNL     1      -0.747  11.649  21.857  0.00  0.00    +0.000 A 
ATOM      5  N   UNL     1      -0.715  12.219  23.042  0.00  0.00    +0.000 NA
ATOM      6  C   UNL     1      -1.740  13.119  23.055  0.00  0.00    +0.000 A 
ATOM      7  C   UNL     1      -2.114  13.984  24.095  0.00  0.00    +0.000 A 
ATOM      8  C   UNL     1      -3.189  14.853  23.904  0.00  0.00    +0.000 A 
ATOM      9  C   UNL     1      -3.884  14.853  22.700  0.00  0.00    +0.000 A 
ATOM     10  C   UNL     1      -3.534  13.983  21.657  0.00  0.00    +0.000 A 
ATOM     11  C   UNL     1      -2.442  13.115  21.848  0.00  0.00    +0.000 A 
ATOM     12  N   UNL     1      -1.795  12.147  21.068  0.00  0.00    +0.000 N 
ATOM     13  C   UNL     1      -2.040  11.680  19.742  0.00  0.00    +0.000 A 
ENDROOT
BRANCH   2  14
ATOM     14  C   UNL     1       0.830   9.153  19.520  0.00  0.00    +0.000 A 
ATOM     15  C   UNL     1       0.988   7.946  20.214  0.00  0.00    +0.000 A 
ATOM     16  C   UNL     1       1.931   7.008  19.782  0.00  0.00    +0.000 A 
ATOM     17  C   UNL     1       2.720   7.261  18.653  0.00  0.00    +0.000 A 
ATOM     18  C   UNL     1       2.512   8.433  17.917  0.00  0.00    +0.000 A 
ATOM     19  C   UNL     1       1.571   9.376  18.351  0.00  0.00    +0.000 A 
BRANCH  17  20
ATOM     20  C   UNL     1       3.756   6.257  18.282  0.00  0.00    +0.000 C 
ATOM     21  O   UNL     1       3.907   5.934  17.110  0.00  0.00    +0.000 OA
ATOM     22  N   UNL     1       4.478   5.703  19.316  0.00  0.00    +0.000 N 
ATOM     23  H   UNL     1       4.163   5.803  20.275  0.00  0.00    +0.000 HD
BRANCH  22  24
ATOM     24  C   UNL     1       5.415   4.620  19.078  0.00  0.00    +0.000 C 
BRANCH  24  25
ATOM     25  C   UNL     1       4.736   3.249  19.246  0.00  0.00    +0.000 C 
BRANCH  25  26
ATOM     26  N   UNL     1       3.273   3.334  19.464  0.00  0.00    +0.000 NA
ATOM     27  C   UNL     1       2.531   2.628  18.405  0.00  0.00    +0.000 C 
ATOM     28  C   UNL     1       1.023   2.773  18.601  0.00  0.00    +0.000 C 
ATOM     29  C   UNL     1       0.593   2.263  19.969  0.00  0.00    +0.000 C 
ATOM     30  C   UNL     1       1.430   2.911  21.066  0.00  0.00    +0.000 C 
ATOM     31  C   UNL     1       2.928   2.773  20.784  0.00  0.00    +0.000 C 
ENDBRANCH  25  26
ENDBRANCH  24  25
ENDBRANCH  22  24
ENDBRANCH  17  20
ENDBRANCH   2  14
BRANCH  13  32
ATOM     32  N   UNL     1      -3.130  12.172  19.032  0.00  0.00    +0.000 N 
ATOM     33  H   UNL     1      -3.678  11.473  18.543  0.00  0.00    +0.000 HD
ATOM     34  H   UNL     1      -3.739  12.824  19.527  0.00  0.00    +0.000 HD
ENDBRANCH  13  32
BRANCH   1  36
ATOM     35  N   UNL     1      -1.564   9.797  16.662  0.00  0.00    +0.000 NA
ATOM     36  C   UNL     1      -1.392  10.227  17.835  0.00  0.00    +0.000 C 
ENDBRANCH   1  36
BRANCH   3  37
ATOM     37  C   UNL     1       1.153  10.136  22.161  0.00  0.00    +0.000 C 
ATOM     38  N   UNL     1       1.996   9.688  22.825  0.00  0.00    +0.000 NA
ENDBRANCH   3  37
TORSDOF 8
ENDMDL
MODEL 3
REMARK VINA RESULT:      -7.1      5.417      9.238
REMARK  Name = 
REMARK  8 active torsions:
REMARK  status: ('A' for Active; 'I' for Inactive)
REMARK    1  A    between atoms: C_2  and  C_3
REMARK    2  A    between atoms: C_4  and  C_5
REMARK    3  A    between atoms: C_8  and  C_9
REMARK    4  A    between atoms: N_11  and  C_12
REMARK    5  A    between atoms: C_12  and  C_13
REMARK    6  A    between atoms: C_13  and  N_14
REMARK    7  A    between atoms: C_22  and  C_23
REMARK    8  A    between atoms: C_34  and  N_35
REMARK                            x       y       z     vdW  Elec       q    Type
REMARK                         _______ _______ _______ _____ _____    ______ ____
ROOT
ATOM      1  C   UNL     1       0.979  12.666  19.486  0.00  0.00    +0.000 A 
ATOM      2  C   UNL     1       0.525  13.390  20.682  0.00  0.00    +0.000 A 
ATOM      3  C   UNL     1       1.262  14.432  21.155  0.00  0.00    +0.000 A 
ATOM      4  C   UNL     1       2.480  14.790  20.510  0.00  0.00    +0.000 A 
ATOM      5  N   UNL     1       3.336  15.737  20.826  0.00  0.00    +0.000 NA
ATOM      6  C   UNL     1       4.337  15.663  19.903  0.00  0.00    +0.000 A 
ATOM      7  C   UNL     1       5.491  16.457  19.817  0.00  0.00    +0.000 A 
ATOM      8  C   UNL     1       6.416  16.208  18.802  0.00  0.00    +0.000 A 
ATOM      9  C   UNL     1       6.187  15.191  17.882  0.00  0.00    +0.000 A 
ATOM     10  C   UNL     1       5.031  14.400  17.942  0.00  0.00    +0.000 A 
ATOM     11  C   UNL     1       4.105  14.646  18.975  0.00  0.00    +0.000 A 
ATOM     12  N   UNL     1       2.886  14.080  19.370  0.00  0.00    +0.000 N 
ATOM     13  C   UNL     1       2.119  13.007  18.827  0.00  0.00    +0.000 A 
ENDROOT
BRANCH   2  14
ATOM     14  C   UNL     1      -0.741  13.041  21.375  0.00  0.00    +0.000 A 
ATOM     15  C   UNL     1      -1.935  13.685  21.024  0.00  0.00    +0.000 A 
ATOM     16  C   UNL     1      -3.102  13.445  21.756  0.00  0.00    +0.000 A 
ATOM     17  C   UNL     1      -3.091  12.557  22.840  0.00  0.00    +0.000 A 
ATOM     18  C   UNL     1      -1.918  11.858  23.145  0.00  0.00    +0.000 A 
ATOM     19  C   UNL     1      -0.747  12.101  22.416  0.00  0.00    +0.000 A 
BRANCH  17  20
ATOM     20  C   UNL     1      -4.347  12.395  23.625  0.00  0.00    +0.000 C 
ATOM     21  O   UNL     1      -4.320  11.842  24.718  0.00  0.00    +0.000 OA
ATOM     22  N   UNL     1      -5.506  12.855  23.041  0.00  0.00    +0.000 N 
ATOM     23  H   UNL     1      -5.531  13.074  22.051  0.00  0.00    +0.000 HD
BRANCH  22  24
ATOM     24  C   UNL     1      -6.798  12.625  23.660  0.00  0.00    +0.000 C 
BRANCH  24  25
ATOM     25  C   UNL     1      -7.793  12.005  22.662  0.00  0.00    +0.000 C 
BRANCH  25  26
ATOM     26  N   UNL     1      -7.139  11.336  21.512  0.00  0.00    +0.000 NA
ATOM     27  C   UNL     1      -7.914  10.166  21.062  0.00  0.00    +0.000 C 
ATOM     28  C   UNL     1      -7.203   9.445  19.918  0.00  0.00    +0.000 C 
ATOM     29  C   UNL     1      -6.947  10.383  18.748  0.00  0.00    +0.000 C 
ATOM     30  C   UNL     1      -6.239  11.647  19.224  0.00  0.00    +0.000 C 
ATOM     31  C   UNL     1      -6.973  12.292  20.401  0.00  0.00    +0.000 C 
ENDBRANCH  25  26
ENDBRANCH  24  25
ENDBRANCH  22  24
ENDBRANCH  17  20
ENDBRANCH   2  14
BRANCH  13  32
ATOM     32  N   UNL     1       2.546  12.380  17.661  0.00  0.00    +0.000 N 
ATOM     33  H   UNL     1       1.903  11.696  17.277  0.00  0.00    +0.000 HD
ATOM     34  H   UNL     1       2.906  12.986  16.924  0.00  0.00    +0.000 HD
ENDBRANCH  13  32
BRANCH   1  36
ATOM     35  N   UNL     1      -0.567  10.567  18.519  0.00  0.00    +0.000 NA
ATOM     36  C   UNL     1       0.134  11.519  18.957  0.00  0.00    +0.000 C 
ENDBRANCH   1  36
BRANCH   3  37
ATOM     37  C   UNL     1       0.860  15.191  22.301  0.00  0.00    +0.000 C 
ATOM     38  N   UNL     1       0.511  15.830  23.208  0.00  0.00    +0.000 NA
ENDBRANCH   3  37
TORSDOF 8
ENDMDL
MODEL 4
REMARK VINA RESULT:      -7.0      1.903      2.473
REMARK  Name = 
REMARK  8 active torsions:
REMARK  status: ('A' for Active; 'I' for Inactive)
REMARK    1  A    between atoms: C_2  and  C_3
REMARK    2  A    between atoms: C_4  and  C_5
REMARK    3  A    between atoms: C_8  and  C_9
REMARK    4  A    between atoms: N_11  and  C_12
REMARK    5  A    between atoms: C_12  and  C_13
REMARK    6  A    between atoms: C_13  and  N_14
REMARK    7  A    between atoms: C_22  and  C_23
REMARK    8  A    between atoms: C_34  and  N_35
REMARK                            x       y       z     vdW  Elec       q    Type
REMARK                         _______ _______ _______ _____ _____    ______ ____
ROOT
ATOM      1  C   UNL     1      -1.159  10.790  19.440  0.00  0.00    +0.000 A 
ATOM      2  C   UNL     1      -0.152  10.166  20.311  0.00  0.00    +0.000 A 
ATOM      3  C   UNL     1       0.023  10.638  21.576  0.00  0.00    +0.000 A 
ATOM      4  C   UNL     1      -0.741  11.750  22.032  0.00  0.00    +0.000 A 
ATOM      5  N   UNL     1      -0.699  12.361  23.195  0.00  0.00    +0.000 NA
ATOM      6  C   UNL     1      -1.621  13.365  23.126  0.00  0.00    +0.000 A 
ATOM      7  C   UNL     1      -1.944  14.307  24.115  0.00  0.00    +0.000 A 
ATOM      8  C   UNL     1      -2.909  15.277  23.841  0.00  0.00    +0.000 A 
ATOM      9  C   UNL     1      -3.547  15.300  22.606  0.00  0.00    +0.000 A 
ATOM     10  C   UNL     1      -3.248  14.355  21.614  0.00  0.00    +0.000 A 
ATOM     11  C   UNL     1      -2.265  13.385  21.889  0.00  0.00    +0.000 A 
ATOM     12  N   UNL     1      -1.694  12.323  21.176  0.00  0.00    +0.000 N 
ATOM     13  C   UNL     1      -1.929  11.830  19.858  0.00  0.00    +0.000 A 
ENDROOT
BRANCH   2  14
ATOM     14  C   UNL     1       0.658   9.006  19.865  0.00  0.00    +0.000 A 
ATOM     15  C   UNL     1       0.656   7.819  20.611  0.00  0.00    +0.000 A 
ATOM     16  C   UNL     1       1.510   6.769  20.258  0.00  0.00    +0.000 A 
ATOM     17  C   UNL     1       2.370   6.890  19.159  0.00  0.00    +0.000 A 
ATOM     18  C   UNL     1       2.321   8.046  18.371  0.00  0.00    +0.000 A 
ATOM     19  C   UNL     1       1.469   9.100  18.725  0.00  0.00    +0.000 A 
BRANCH  17  20
ATOM     20  C   UNL     1       3.307   5.767  18.876  0.00  0.00    +0.000 C 
ATOM     21  O   UNL     1       4.163   5.459  19.697  0.00  0.00    +0.000 OA
ATOM     22  N   UNL     1       3.179   5.148  17.652  0.00  0.00    +0.000 N 
ATOM     23  H   UNL     1       2.640   5.582  16.911  0.00  0.00    +0.000 HD
BRANCH  22  24
ATOM     24  C   UNL     1       4.126   4.136  17.223  0.00  0.00    +0.000 C 
BRANCH  24  25
ATOM     25  C   UNL     1       5.076   4.684  16.142  0.00  0.00    +0.000 C 
BRANCH  25  26
ATOM     26  N   UNL     1       6.322   5.272  16.690  0.00  0.00    +0.000 NA
ATOM     27  C   UNL     1       6.168   6.715  16.941  0.00  0.00    +0.000 C 
ATOM     28  C   UNL     1       7.473   7.327  17.446  0.00  0.00    +0.000 C 
ATOM     29  C   UNL     1       7.958   6.627  18.707  0.00  0.00    +0.000 C 
ATOM     30  C   UNL     1       8.019   5.119  18.489  0.00  0.00    +0.000 C 
ATOM     31  C   UNL     1       6.699   4.579  17.937  0.00  0.00    +0.000 C 
ENDBRANCH  25  26
ENDBRANCH  24  25
ENDBRANCH  22  24
ENDBRANCH  17  20
ENDBRANCH   2  14
BRANCH  13  32
ATOM     32  N   UNL     1      -2.928  12.404  19.079  0.00  0.00    +0.000 N 
ATOM     33  H   UNL     1      -3.833  11.950  19.132  0.00  0.00    +0.000 HD
ATOM     34  H   UNL     1      -3.030  13.417  19.145  0.00  0.00    +0.000 HD
ENDBRANCH  13  32
BRANCH   1  36
ATOM     35  N   UNL     1      -1.526   9.780  16.875  0.00  0.00    +0.000 NA
ATOM     36  C   UNL     1      -1.359  10.238  18.038  0.00  0.00    +0.000 C 
ENDBRANCH   1  36
BRANCH   3  37
ATOM     37  C   UNL     1       0.971  10.058  22.481  0.00  0.00    +0.000 C 
ATOM     38  N   UNL     1       1.768   9.594  23.189  0.00  0.00    +0.000 NA
ENDBRANCH   3  37
TORSDOF 8
ENDMDL
MODEL 5
REMARK VINA RESULT:      -6.8      2.472      3.147
REMARK  Name = 
REMARK  8 active torsions:
REMARK  status: ('A' for Active; 'I' for Inactive)
REMARK    1  A    between atoms: C_2  and  C_3
REMARK    2  A    between atoms: C_4  and  C_5
REMARK    3  A    between atoms: C_8  and  C_9
REMARK    4  A    between atoms: N_11  and  C_12
REMARK    5  A    between atoms: C_12  and  C_13
REMARK    6  A    between atoms: C_13  and  N_14
REMARK    7  A    between atoms: C_22  and  C_23
REMARK    8  A    between atoms: C_34  and  N_35
REMARK                            x       y       z     vdW  Elec       q    Type
REMARK                         _______ _______ _______ _____ _____    ______ ____
ROOT
ATOM      1  C   UNL     1      -2.911  11.844  19.096  0.00  0.00    +0.000 A 
ATOM      2  C   UNL     1      -1.841  11.541  20.058  0.00  0.00    +0.000 A 
ATOM      3  C   UNL     1      -1.948  11.985  21.340  0.00  0.00    +0.000 A 
ATOM      4  C   UNL     1      -3.073  12.766  21.730  0.00  0.00    +0.000 A 
ATOM      5  N   UNL     1      -3.342  13.303  22.899  0.00  0.00    +0.000 NA
ATOM      6  C   UNL     1      -4.531  13.955  22.749  0.00  0.00    +0.000 A 
ATOM      7  C   UNL     1      -5.236  14.694  23.712  0.00  0.00    +0.000 A 
ATOM      8  C   UNL     1      -6.436  15.310  23.354  0.00  0.00    +0.000 A 
ATOM      9  C   UNL     1      -6.929  15.183  22.060  0.00  0.00    +0.000 A 
ATOM     10  C   UNL     1      -6.246  14.433  21.091  0.00  0.00    +0.000 A 
ATOM     11  C   UNL     1      -5.029  13.823  21.453  0.00  0.00    +0.000 A 
ATOM     12  N   UNL     1      -4.077  13.038  20.788  0.00  0.00    +0.000 N 
ATOM     13  C   UNL     1      -4.015  12.557  19.447  0.00  0.00    +0.000 A 
ENDROOT
BRANCH   2  14
ATOM     14  C   UNL     1      -0.657  10.728  19.682  0.00  0.00    +0.000 A 
ATOM     15  C   UNL     1       0.240  11.199  18.714  0.00  0.00    +0.000 A 
ATOM     16  C   UNL     1       1.286  10.384  18.274  0.00  0.00    +0.000 A 
ATOM     17  C   UNL     1       1.452   9.095  18.796  0.00  0.00    +0.000 A 
ATOM     18  C   UNL     1       0.601   8.651  19.814  0.00  0.00    +0.000 A 
ATOM     19  C   UNL     1      -0.451   9.465  20.254  0.00  0.00    +0.000 A 
BRANCH  17  20
ATOM     20  C   UNL     1       2.541   8.246  18.236  0.00  0.00    +0.000 C 
ATOM     21  O   UNL     1       3.080   8.557  17.180  0.00  0.00    +0.000 OA
ATOM     22  N   UNL     1       2.860   7.106  18.939  0.00  0.00    +0.000 N 
ATOM     23  H   UNL     1       2.238   6.754  19.658  0.00  0.00    +0.000 HD
BRANCH  22  24
ATOM     24  C   UNL     1       3.811   6.143  18.412  0.00  0.00    +0.000 C 
BRANCH  24  25
ATOM     25  C   UNL     1       4.208   5.110  19.482  0.00  0.00    +0.000 C 
BRANCH  25  26
ATOM     26  N   UNL     1       3.310   3.931  19.530  0.00  0.00    +0.000 NA
ATOM     27  C   UNL     1       2.202   4.140  20.478  0.00  0.00    +0.000 C 
ATOM     28  C   UNL     1       1.317   2.899  20.570  0.00  0.00    +0.000 C 
ATOM     29  C   UNL     1       0.770   2.509  19.205  0.00  0.00    +0.000 C 
ATOM     30  C   UNL     1       1.902   2.395  18.190  0.00  0.00    +0.000 C 
ATOM     31  C   UNL     1       2.778   3.649  18.184  0.00  0.00    +0.000 C 
ENDBRANCH  25  26
ENDBRANCH  24  25
ENDBRANCH  22  24
ENDBRANCH  17  20
ENDBRANCH   2  14
BRANCH  13  32
ATOM     32  N   UNL     1      -5.070  12.812  18.576  0.00  0.00    +0.000 N 
ATOM     33  H   UNL     1      -5.995  12.733  18.984  0.00  0.00    +0.000 HD
ATOM     34  H   UNL     1      -4.998  13.657  18.010  0.00  0.00    +0.000 HD
ENDBRANCH  13  32
BRANCH   1  36
ATOM     35  N   UNL     1      -2.686  10.891  16.494  0.00  0.00    +0.000 NA
ATOM     36  C   UNL     1      -2.788  11.323  17.674  0.00  0.00    +0.000 C 
ENDBRANCH   1  36
BRANCH   3  37
ATOM     37  C   UNL     1      -0.952  11.702  22.330  0.00  0.00    +0.000 C 
ATOM     38  N   UNL     1      -0.158  11.436  23.138  0.00  0.00    +0.000 NA
ENDBRANCH   3  37
TORSDOF 8
ENDMDL
MODEL 6
REMARK VINA RESULT:      -6.8      2.349      4.399
REMARK  Name = 
REMARK  8 active torsions:
REMARK  status: ('A' for Active; 'I' for Inactive)
REMARK    1  A    between atoms: C_2  and  C_3
REMARK    2  A    between atoms: C_4  and  C_5
REMARK    3  A    between atoms: C_8  and  C_9
REMARK    4  A    between atoms: N_11  and  C_12
REMARK    5  A    between atoms: C_12  and  C_13
REMARK    6  A    between atoms: C_13  and  N_14
REMARK    7  A    between atoms: C_22  and  C_23
REMARK    8  A    between atoms: C_34  and  N_35
REMARK                            x       y       z     vdW  Elec       q    Type
REMARK                         _______ _______ _______ _____ _____    ______ ____
ROOT
ATOM      1  C   UNL     1      -1.820  11.934  20.328  0.00  0.00    +0.000 A 
ATOM      2  C   UNL     1      -1.647  10.976  19.227  0.00  0.00    +0.000 A 
ATOM      3  C   UNL     1      -2.648  10.812  18.319  0.00  0.00    +0.000 A 
ATOM      4  C   UNL     1      -3.863  11.540  18.462  0.00  0.00    +0.000 A 
ATOM      5  N   UNL     1      -4.944  11.501  17.714  0.00  0.00    +0.000 NA
ATOM      6  C   UNL     1      -5.823  12.379  18.278  0.00  0.00    +0.000 A 
ATOM      7  C   UNL     1      -7.125  12.688  17.853  0.00  0.00    +0.000 A 
ATOM      8  C   UNL     1      -7.880  13.605  18.583  0.00  0.00    +0.000 A 
ATOM      9  C   UNL     1      -7.343  14.211  19.713  0.00  0.00    +0.000 A 
ATOM     10  C   UNL     1      -6.038  13.927  20.142  0.00  0.00    +0.000 A 
ATOM     11  C   UNL     1      -5.282  12.992  19.409  0.00  0.00    +0.000 A 
ATOM     12  N   UNL     1      -3.996  12.448  19.524  0.00  0.00    +0.000 N 
ATOM     13  C   UNL     1      -2.954  12.671  20.472  0.00  0.00    +0.000 A 
ENDROOT
BRANCH   2  14
ATOM     14  C   UNL     1      -0.392  10.203  19.051  0.00  0.00    +0.000 A 
ATOM     15  C   UNL     1       0.385  10.378  17.897  0.00  0.00    +0.000 A 
ATOM     16  C   UNL     1       1.501   9.565  17.676  0.00  0.00    +0.000 A 
ATOM     17  C   UNL     1       1.856   8.576  18.601  0.00  0.00    +0.000 A 
ATOM     18  C   UNL     1       1.124   8.449  19.787  0.00  0.00    +0.000 A 
ATOM     19  C   UNL     1       0.003   9.259  20.010  0.00  0.00    +0.000 A 
BRANCH  17  20
ATOM     20  C   UNL     1       3.012   7.694  18.276  0.00  0.00    +0.000 C 
ATOM     21  O   UNL     1       3.672   7.896  17.264  0.00  0.00    +0.000 OA
ATOM     22  N   UNL     1       3.253   6.647  19.137  0.00  0.00    +0.000 N 
ATOM     23  H   UNL     1       2.551   6.364  19.812  0.00  0.00    +0.000 HD
BRANCH  22  24
ATOM     24  C   UNL     1       4.268   5.652  18.841  0.00  0.00    +0.000 C 
BRANCH  24  25
ATOM     25  C   UNL     1       3.667   4.451  18.089  0.00  0.00    +0.000 C 
BRANCH  25  26
ATOM     26  N   UNL     1       2.945   3.501  18.969  0.00  0.00    +0.000 NA
ATOM     27  C   UNL     1       3.449   3.562  20.351  0.00  0.00    +0.000 C 
ATOM     28  C   UNL     1       2.744   2.538  21.238  0.00  0.00    +0.000 C 
ATOM     29  C   UNL     1       1.236   2.740  21.223  0.00  0.00    +0.000 C 
ATOM     30  C   UNL     1       0.719   2.785  19.789  0.00  0.00    +0.000 C 
ATOM     31  C   UNL     1       1.499   3.793  18.944  0.00  0.00    +0.000 C 
ENDBRANCH  25  26
ENDBRANCH  24  25
ENDBRANCH  22  24
ENDBRANCH  17  20
ENDBRANCH   2  14
BRANCH  13  32
ATOM     32  N   UNL     1      -3.125  13.626  21.468  0.00  0.00    +0.000 N 
ATOM     33  H   UNL     1      -3.029  14.589  21.166  0.00  0.00    +0.000 HD
ATOM     34  H   UNL     1      -3.945  13.518  22.066  0.00  0.00    +0.000 HD
ENDBRANCH  13  32
BRANCH   1  36
ATOM     35  N   UNL     1       0.256  12.279  22.146  0.00  0.00    +0.000 NA
ATOM     36  C   UNL     1      -0.685  12.123  21.321  0.00  0.00    +0.000 C 
ENDBRANCH   1  36
BRANCH   3  37
ATOM     37  C   UNL     1      -2.531   9.911  17.211  0.00  0.00    +0.000 C 
ATOM     38  N   UNL     1      -2.463   9.202  16.292  0.00  0.00    +0.000 NA
ENDBRANCH   3  37
TORSDOF 8
ENDMDL
MODEL 7
REMARK VINA RESULT:      -6.7      0.649      2.786
REMARK  Name = 
REMARK  8 active torsions:
REMARK  status: ('A' for Active; 'I' for Inactive)
REMARK    1  A    between atoms: C_2  and  C_3
REMARK    2  A    between atoms: C_4  and  C_5
REMARK    3  A    between atoms: C_8  and  C_9
REMARK    4  A    between atoms: N_11  and  C_12
REMARK    5  A    between atoms: C_12  and  C_13
REMARK    6  A    between atoms: C_13  and  N_14
REMARK    7  A    between atoms: C_22  and  C_23
REMARK    8  A    between atoms: C_34  and  N_35
REMARK                            x       y       z     vdW  Elec       q    Type
REMARK                         _______ _______ _______ _____ _____    ______ ____
ROOT
ATOM      1  C   UNL     1       0.047  12.935  20.667  0.00  0.00    +0.000 A 
ATOM      2  C   UNL     1      -0.453  11.755  19.946  0.00  0.00    +0.000 A 
ATOM      3  C   UNL     1      -1.770  11.682  19.613  0.00  0.00    +0.000 A 
ATOM      4  C   UNL     1      -2.658  12.728  19.995  0.00  0.00    +0.000 A 
ATOM      5  N   UNL     1      -3.954  12.828  19.794  0.00  0.00    +0.000 NA
ATOM      6  C   UNL     1      -4.332  14.011  20.358  0.00  0.00    +0.000 A 
ATOM      7  C   UNL     1      -5.620  14.566  20.415  0.00  0.00    +0.000 A 
ATOM      8  C   UNL     1      -5.807  15.788  21.062  0.00  0.00    +0.000 A 
ATOM      9  C   UNL     1      -4.726  16.449  21.634  0.00  0.00    +0.000 A 
ATOM     10  C   UNL     1      -3.430  15.917  21.571  0.00  0.00    +0.000 A 
ATOM     11  C   UNL     1      -3.246  14.678  20.927  0.00  0.00    +0.000 A 
ATOM     12  N   UNL     1      -2.150  13.841  20.682  0.00  0.00    +0.000 N 
ATOM     13  C   UNL     1      -0.768  13.966  21.014  0.00  0.00    +0.000 A 
ENDROOT
BRANCH   2  14
ATOM     14  C   UNL     1       0.448  10.650  19.533  0.00  0.00    +0.000 A 
ATOM     15  C   UNL     1       1.035  10.660  18.260  0.00  0.00    +0.000 A 
ATOM     16  C   UNL     1       1.785   9.563  17.827  0.00  0.00    +0.000 A 
ATOM     17  C   UNL     1       1.963   8.449  18.658  0.00  0.00    +0.000 A 
ATOM     18  C   UNL     1       1.439   8.469  19.955  0.00  0.00    +0.000 A 
ATOM     19  C   UNL     1       0.683   9.565  20.390  0.00  0.00    +0.000 A 
BRANCH  17  20
ATOM     20  C   UNL     1       2.712   7.282  18.115  0.00  0.00    +0.000 C 
ATOM     21  O   UNL     1       3.709   7.459  17.425  0.00  0.00    +0.000 OA
ATOM     22  N   UNL     1       2.200   6.034  18.394  0.00  0.00    +0.000 N 
ATOM     23  H   UNL     1       1.255   5.933  18.747  0.00  0.00    +0.000 HD
BRANCH  22  24
ATOM     24  C   UNL     1       2.775   4.839  17.802  0.00  0.00    +0.000 C 
BRANCH  24  25
ATOM     25  C   UNL     1       3.944   4.306  18.650  0.00  0.00    +0.000 C 
BRANCH  25  26
ATOM     26  N   UNL     1       5.175   4.044  17.865  0.00  0.00    +0.000 NA
ATOM     27  C   UNL     1       4.927   4.180  16.420  0.00  0.00    +0.000 C 
ATOM     28  C   UNL     1       6.182   3.849  15.614  0.00  0.00    +0.000 C 
ATOM     29  C   UNL     1       7.353   4.728  16.029  0.00  0.00    +0.000 C 
ATOM     30  C   UNL     1       7.549   4.675  17.541  0.00  0.00    +0.000 C 
ATOM     31  C   UNL     1       6.245   4.968  18.286  0.00  0.00    +0.000 C 
ENDBRANCH  25  26
ENDBRANCH  24  25
ENDBRANCH  22  24
ENDBRANCH  17  20
ENDBRANCH   2  14
BRANCH  13  32
ATOM     32  N   UNL     1      -0.316  15.120  21.646  0.00  0.00    +0.000 N 
ATOM     33  H   UNL     1      -0.338  15.960  21.079  0.00  0.00    +0.000 HD
ATOM     34  H   UNL     1      -0.691  15.306  22.577  0.00  0.00    +0.000 HD
ENDBRANCH  13  32
BRANCH   1  36
ATOM     35  N   UNL     1       2.751  13.076  21.299  0.00  0.00    +0.000 NA
ATOM     36  C   UNL     1       1.525  13.012  21.012  0.00  0.00    +0.000 C 
ENDBRANCH   1  36
BRANCH   3  37
ATOM     37  C   UNL     1      -2.313  10.571  18.890  0.00  0.00    +0.000 C 
ATOM     38  N   UNL     1      -2.740   9.685  18.269  0.00  0.00    +0.000 NA
ENDBRANCH   3  37
TORSDOF 8
ENDMDL
MODEL 8
REMARK VINA RESULT:      -6.7      1.731      1.983
REMARK  Name = 
REMARK  8 active torsions:
REMARK  status: ('A' for Active; 'I' for Inactive)
REMARK    1  A    between atoms: C_2  and  C_3
REMARK    2  A    between atoms: C_4  and  C_5
REMARK    3  A    between atoms: C_8  and  C_9
REMARK    4  A    between atoms: N_11  and  C_12
REMARK    5  A    between atoms: C_12  and  C_13
REMARK    6  A    between atoms: C_13  and  N_14
REMARK    7  A    between atoms: C_22  and  C_23
REMARK    8  A    between atoms: C_34  and  N_35
REMARK                            x       y       z     vdW  Elec       q    Type
REMARK                         _______ _______ _______ _____ _____    ______ ____
ROOT
ATOM      1  C   UNL     1      -2.598  11.175  18.558  0.00  0.00    +0.000 A 
ATOM      2  C   UNL     1      -1.575  11.123  19.613  0.00  0.00    +0.000 A 
ATOM      3  C   UNL     1      -1.737  11.871  20.738  0.00  0.00    +0.000 A 
ATOM      4  C   UNL     1      -2.871  12.722  20.869  0.00  0.00    +0.000 A 
ATOM      5  N   UNL     1      -3.188  13.532  21.855  0.00  0.00    +0.000 NA
ATOM      6  C   UNL     1      -4.364  14.123  21.493  0.00  0.00    +0.000 A 
ATOM      7  C   UNL     1      -5.105  15.076  22.208  0.00  0.00    +0.000 A 
ATOM      8  C   UNL     1      -6.282  15.580  21.653  0.00  0.00    +0.000 A 
ATOM      9  C   UNL     1      -6.716  15.134  20.410  0.00  0.00    +0.000 A 
ATOM     10  C   UNL     1      -5.997  14.169  19.690  0.00  0.00    +0.000 A 
ATOM     11  C   UNL     1      -4.803  13.670  20.248  0.00  0.00    +0.000 A 
ATOM     12  N   UNL     1      -3.829  12.748  19.845  0.00  0.00    +0.000 N 
ATOM     13  C   UNL     1      -3.710  11.949  18.668  0.00  0.00    +0.000 A 
ENDROOT
BRANCH   2  14
ATOM     14  C   UNL     1      -0.383  10.246  19.506  0.00  0.00    +0.000 A 
ATOM     15  C   UNL     1       0.512  10.403  18.438  0.00  0.00    +0.000 A 
ATOM     16  C   UNL     1       1.567   9.501  18.271  0.00  0.00    +0.000 A 
ATOM     17  C   UNL     1       1.744   8.439  19.167  0.00  0.00    +0.000 A 
ATOM     18  C   UNL     1       0.896   8.324  20.273  0.00  0.00    +0.000 A 
ATOM     19  C   UNL     1      -0.165   9.223  20.441  0.00  0.00    +0.000 A 
BRANCH  17  20
ATOM     20  C   UNL     1       2.843   7.470  18.896  0.00  0.00    +0.000 C 
ATOM     21  O   UNL     1       3.521   7.578  17.881  0.00  0.00    +0.000 OA
ATOM     22  N   UNL     1       3.011   6.454  19.811  0.00  0.00    +0.000 N 
ATOM     23  H   UNL     1       2.289   6.251  20.492  0.00  0.00    +0.000 HD
BRANCH  22  24
ATOM     24  C   UNL     1       3.962   5.383  19.573  0.00  0.00    +0.000 C 
BRANCH  24  25
ATOM     25  C   UNL     1       3.650   4.643  18.260  0.00  0.00    +0.000 C 
BRANCH  25  26
ATOM     26  N   UNL     1       4.860   4.239  17.505  0.00  0.00    +0.000 NA
ATOM     27  C   UNL     1       4.680   4.442  16.057  0.00  0.00    +0.000 C 
ATOM     28  C   UNL     1       5.906   3.966  15.279  0.00  0.00    +0.000 C 
ATOM     29  C   UNL     1       7.168   4.672  15.753  0.00  0.00    +0.000 C 
ATOM     30  C   UNL     1       7.306   4.558  17.267  0.00  0.00    +0.000 C 
ATOM     31  C   UNL     1       6.028   5.002  17.982  0.00  0.00    +0.000 C 
ENDBRANCH  25  26
ENDBRANCH  24  25
ENDBRANCH  22  24
ENDBRANCH  17  20
ENDBRANCH   2  14
BRANCH  13  32
ATOM     32  N   UNL     1      -4.722  11.976  17.714  0.00  0.00    +0.000 N 
ATOM     33  H   UNL     1      -5.308  12.803  17.729  0.00  0.00    +0.000 HD
ATOM     34  H   UNL     1      -4.452  11.745  16.758  0.00  0.00    +0.000 HD
ENDBRANCH  13  32
BRANCH   1  36
ATOM     35  N   UNL     1      -2.262   9.604  16.287  0.00  0.00    +0.000 NA
ATOM     36  C   UNL     1      -2.415  10.317  17.317  0.00  0.00    +0.000 C 
ENDBRANCH   1  36
BRANCH   3  37
ATOM     37  C   UNL     1      -0.788  11.846  21.812  0.00  0.00    +0.000 C 
ATOM     38  N   UNL     1      -0.024  11.865  22.688  0.00  0.00    +0.000 NA
ENDBRANCH   3  37
TORSDOF 8
ENDMDL
MODEL 9
REMARK VINA RESULT:      -6.7      1.195      1.993
REMARK  Name = 
REMARK  8 active torsions:
REMARK  status: ('A' for Active; 'I' for Inactive)
REMARK    1  A    between atoms: C_2  and  C_3
REMARK    2  A    between atoms: C_4  and  C_5
REMARK    3  A    between atoms: C_8  and  C_9
REMARK    4  A    between atoms: N_11  and  C_12
REMARK    5  A    between atoms: C_12  and  C_13
REMARK    6  A    between atoms: C_13  and  N_14
REMARK    7  A    between atoms: C_22  and  C_23
REMARK    8  A    between atoms: C_34  and  N_35
REMARK                            x       y       z     vdW  Elec       q    Type
REMARK                         _______ _______ _______ _____ _____    ______ ____
ROOT
ATOM      1  C   UNL     1      -1.816  11.762  19.361  0.00  0.00    +0.000 A 
ATOM      2  C   UNL     1      -0.394  11.730  19.733  0.00  0.00    +0.000 A 
ATOM      3  C   UNL     1       0.134  12.762  20.446  0.00  0.00    +0.000 A 
ATOM      4  C   UNL     1      -0.682  13.876  20.794  0.00  0.00    +0.000 A 
ATOM      5  N   UNL     1      -0.354  14.968  21.448  0.00  0.00    +0.000 NA
ATOM      6  C   UNL     1      -1.489  15.722  21.514  0.00  0.00    +0.000 A 
ATOM      7  C   UNL     1      -1.653  16.985  22.105  0.00  0.00    +0.000 A 
ATOM      8  C   UNL     1      -2.900  17.607  22.048  0.00  0.00    +0.000 A 
ATOM      9  C   UNL     1      -3.968  16.977  21.420  0.00  0.00    +0.000 A 
ATOM     10  C   UNL     1      -3.827  15.708  20.840  0.00  0.00    +0.000 A 
ATOM     11  C   UNL     1      -2.563  15.087  20.889  0.00  0.00    +0.000 A 
ATOM     12  N   UNL     1      -2.035  13.875  20.425  0.00  0.00    +0.000 N 
ATOM     13  C   UNL     1      -2.630  12.794  19.709  0.00  0.00    +0.000 A 
ENDROOT
BRANCH   2  14
ATOM     14  C   UNL     1       0.481  10.583  19.385  0.00  0.00    +0.000 A 
ATOM     15  C   UNL     1       1.089  10.520  18.124  0.00  0.00    +0.000 A 
ATOM     16  C   UNL     1       1.815   9.384  17.752  0.00  0.00    +0.000 A 
ATOM     17  C   UNL     1       1.945   8.303  18.634  0.00  0.00    +0.000 A 
ATOM     18  C   UNL     1       1.400   8.395  19.920  0.00  0.00    +0.000 A 
ATOM     19  C   UNL     1       0.669   9.530  20.292  0.00  0.00    +0.000 A 
BRANCH  17  20
ATOM     20  C   UNL     1       2.669   7.092  18.156  0.00  0.00    +0.000 C 
ATOM     21  O   UNL     1       2.042   6.088  17.837  0.00  0.00    +0.000 OA
ATOM     22  N   UNL     1       4.045   7.160  18.140  0.00  0.00    +0.000 N 
ATOM     23  H   UNL     1       4.529   7.898  18.637  0.00  0.00    +0.000 HD
BRANCH  22  24
ATOM     24  C   UNL     1       4.848   5.993  17.821  0.00  0.00    +0.000 C 
BRANCH  24  25
ATOM     25  C   UNL     1       5.227   5.213  19.093  0.00  0.00    +0.000 C 
BRANCH  25  26
ATOM     26  N   UNL     1       4.549   3.899  19.207  0.00  0.00    +0.000 NA
ATOM     27  C   UNL     1       3.368   3.980  20.082  0.00  0.00    +0.000 C 
ATOM     28  C   UNL     1       2.711   2.611  20.246  0.00  0.00    +0.000 C 
ATOM     29  C   UNL     1       2.323   2.021  18.898  0.00  0.00    +0.000 C 
ATOM     30  C   UNL     1       3.516   2.031  17.949  0.00  0.00    +0.000 C 
ATOM     31  C   UNL     1       4.157   3.418  17.869  0.00  0.00    +0.000 C 
ENDBRANCH  25  26
ENDBRANCH  24  25
ENDBRANCH  22  24
ENDBRANCH  17  20
ENDBRANCH   2  14
BRANCH  13  32
ATOM     32  N   UNL     1      -3.990  12.827  19.422  0.00  0.00    +0.000 N 
ATOM     33  H   UNL     1      -4.604  12.776  20.228  0.00  0.00    +0.000 HD
ATOM     34  H   UNL     1      -4.302  13.555  18.780  0.00  0.00    +0.000 HD
ENDBRANCH  13  32
BRANCH   1  36
ATOM     35  N   UNL     1      -2.879   9.621  17.939  0.00  0.00    +0.000 NA
ATOM     36  C   UNL     1      -2.397  10.592  18.583  0.00  0.00    +0.000 C 
ENDBRANCH   1  36
BRANCH   3  37
ATOM     37  C   UNL     1       1.506  12.778  20.859  0.00  0.00    +0.000 C 
ATOM     38  N   UNL     1       2.611  12.766  21.223  0.00  0.00    +0.000 NA
ENDBRANCH   3  37
TORSDOF 8
ENDMDL
