MODEL 1
REMARK VINA RESULT:      -7.7      0.000      0.000
REMARK  Name = 
REMARK  5 active torsions:
REMARK  status: ('A' for Active; 'I' for Inactive)
REMARK    1  A    between atoms: S_2  and  C_3
REMARK    2  A    between atoms: S_2  and  C_9
REMARK    3  A    between atoms: C_3  and  C_4
REMARK    4  A    between atoms: C_9  and  C_10
REMARK    5  A    between atoms: C_9  and  C_16
REMARK                            x       y       z     vdW  Elec       q    Type
REMARK                         _______ _______ _______ _____ _____    ______ ____
ROOT
ATOM      1  C   UNL     1       4.035   5.439  18.468  0.00  0.00    +0.000 C 
ENDROOT
BRANCH   1   2
ATOM      2  C   UNL     1       3.072   6.613  18.661  0.00  0.00    +0.000 A 
ATOM      3  C   UNL     1       2.475   6.798  19.923  0.00  0.00    +0.000 A 
ATOM      4  C   UNL     1       1.626   7.882  20.167  0.00  0.00    +0.000 A 
ATOM      5  C   UNL     1       1.368   8.799  19.153  0.00  0.00    +0.000 A 
ATOM      6 BR   UNL     1       0.231  10.272  19.482  0.00  0.00    +0.000 Br
ATOM      7  C   UNL     1       1.956   8.645  17.901  0.00  0.00    +0.000 A 
ATOM      8  C   UNL     1       2.809   7.565  17.658  0.00  0.00    +0.000 A 
ENDBRANCH   1   2
BRANCH   1   9
ATOM      9  C   UNL     1       5.506   5.862  18.428  0.00  0.00    +0.000 A 
ATOM     10  C   UNL     1       6.468   5.335  19.306  0.00  0.00    +0.000 A 
ATOM     11  C   UNL     1       7.793   5.781  19.270  0.00  0.00    +0.000 A 
ATOM     12  C   UNL     1       8.175   6.771  18.370  0.00  0.00    +0.000 A 
ATOM     13  C   UNL     1       7.234   7.317  17.502  0.00  0.00    +0.000 A 
ATOM     14  C   UNL     1       5.911   6.867  17.531  0.00  0.00    +0.000 A 
ENDBRANCH   1   9
BRANCH   1  16
ATOM     15  O   UNL     1       4.987   4.272  16.139  0.00  0.00    +0.000 OA
ATOM     16  S   UNL     1       3.678   4.346  17.015  0.00  0.00    +0.000 S 
BRANCH  16  17
ATOM     17  C   UNL     1       3.551   2.763  17.924  0.00  0.00    +0.000 C 
BRANCH  17  18
ATOM     18  C   UNL     1       2.611   2.925  19.081  0.00  0.00    +0.000 A 
ATOM     19  C   UNL     1       1.282   3.302  19.051  0.00  0.00    +0.000 A 
ATOM     20  C   UNL     1       0.719   3.411  20.355  0.00  0.00    +0.000 A 
ATOM     21  C   UNL     1       1.633   3.102  21.338  0.00  0.00    +0.000 A 
ATOM     22  S   UNL     1       3.153   2.666  20.687  0.00  0.00    +0.000 S 
ENDBRANCH  17  18
ENDBRANCH  16  17
ENDBRANCH   1  16
TORSDOF 5
ENDMDL
MODEL 2
REMARK VINA RESULT:      -7.6      1.891      4.964
REMARK  Name = 
REMARK  5 active torsions:
REMARK  status: ('A' for Active; 'I' for Inactive)
REMARK    1  A    between atoms: S_2  and  C_3
REMARK    2  A    between atoms: S_2  and  C_9
REMARK    3  A    between atoms: C_3  and  C_4
REMARK    4  A    between atoms: C_9  and  C_10
REMARK    5  A    between atoms: C_9  and  C_16
REMARK                            x       y       z     vdW  Elec       q    Type
REMARK                         _______ _______ _______ _____ _____    ______ ____
ROOT
ATOM      1  C   UNL     1       3.321   5.677  18.566  0.00  0.00    +0.000 C 
ENDROOT
BRANCH   1   2
ATOM      2  C   UNL     1       2.656   7.040  18.776  0.00  0.00    +0.000 A 
ATOM      3  C   UNL     1       2.579   7.931  17.687  0.00  0.00    +0.000 A 
ATOM      4  C   UNL     1       1.937   9.167  17.812  0.00  0.00    +0.000 A 
ATOM      5  C   UNL     1       1.360   9.527  19.025  0.00  0.00    +0.000 A 
ATOM      6 BR   UNL     1       0.483  11.192  19.194  0.00  0.00    +0.000 Br
ATOM      7  C   UNL     1       1.412   8.659  20.112  0.00  0.00    +0.000 A 
ATOM      8  C   UNL     1       2.047   7.420  19.987  0.00  0.00    +0.000 A 
ENDBRANCH   1   2
BRANCH   1   9
ATOM      9  C   UNL     1       2.457   4.503  19.029  0.00  0.00    +0.000 A 
ATOM     10  C   UNL     1       1.754   3.681  18.133  0.00  0.00    +0.000 A 
ATOM     11  C   UNL     1       0.937   2.646  18.596  0.00  0.00    +0.000 A 
ATOM     12  C   UNL     1       0.794   2.424  19.963  0.00  0.00    +0.000 A 
ATOM     13  C   UNL     1       1.469   3.237  20.869  0.00  0.00    +0.000 A 
ATOM     14  C   UNL     1       2.293   4.267  20.407  0.00  0.00    +0.000 A 
ENDBRANCH   1   9
BRANCH   1  16
ATOM     15  O   UNL     1       5.459   3.997  19.112  0.00  0.00    +0.000 OA
ATOM     16  S   UNL     1       5.020   5.502  19.283  0.00  0.00    +0.000 S 
BRANCH  16  17
ATOM     17  C   UNL     1       5.922   6.470  18.020  0.00  0.00    +0.000 C 
BRANCH  17  18
ATOM     18  C   UNL     1       5.997   5.682  16.746  0.00  0.00    +0.000 A 
ATOM     19  C   UNL     1       5.117   5.699  15.681  0.00  0.00    +0.000 A 
ATOM     20  C   UNL     1       5.476   4.769  14.664  0.00  0.00    +0.000 A 
ATOM     21  C   UNL     1       6.625   4.078  14.980  0.00  0.00    +0.000 A 
ATOM     22  S   UNL     1       7.274   4.566  16.485  0.00  0.00    +0.000 S 
ENDBRANCH  17  18
ENDBRANCH  16  17
ENDBRANCH   1  16
TORSDOF 5
ENDMDL
MODEL 3
REMARK VINA RESULT:      -7.6      1.918      4.895
REMARK  Name = 
REMARK  5 active torsions:
REMARK  status: ('A' for Active; 'I' for Inactive)
REMARK    1  A    between atoms: S_2  and  C_3
REMARK    2  A    between atoms: S_2  and  C_9
REMARK    3  A    between atoms: C_3  and  C_4
REMARK    4  A    between atoms: C_9  and  C_10
REMARK    5  A    between atoms: C_9  and  C_16
REMARK                            x       y       z     vdW  Elec       q    Type
REMARK                         _______ _______ _______ _____ _____    ______ ____
ROOT
ATOM      1  C   UNL     1       3.212   5.733  18.599  0.00  0.00    +0.000 C 
ENDROOT
BRANCH   1   2
ATOM      2  C   UNL     1       2.576   7.111  18.800  0.00  0.00    +0.000 A 
ATOM      3  C   UNL     1       2.518   7.996  17.705  0.00  0.00    +0.000 A 
ATOM      4  C   UNL     1       1.904   9.247  17.821  0.00  0.00    +0.000 A 
ATOM      5  C   UNL     1       1.335   9.627  19.032  0.00  0.00    +0.000 A 
ATOM      6 BR   UNL     1       0.495  11.312  19.189  0.00  0.00    +0.000 Br
ATOM      7  C   UNL     1       1.369   8.767  20.125  0.00  0.00    +0.000 A 
ATOM      8  C   UNL     1       1.976   7.513  20.008  0.00  0.00    +0.000 A 
ENDBRANCH   1   2
BRANCH   1   9
ATOM      9  C   UNL     1       2.328   4.582  19.085  0.00  0.00    +0.000 A 
ATOM     10  C   UNL     1       2.121   4.311  20.448  0.00  0.00    +0.000 A 
ATOM     11  C   UNL     1       1.345   3.222  20.854  0.00  0.00    +0.000 A 
ATOM     12  C   UNL     1       0.776   2.375  19.907  0.00  0.00    +0.000 A 
ATOM     13  C   UNL     1       0.982   2.617  18.552  0.00  0.00    +0.000 A 
ATOM     14  C   UNL     1       1.751   3.710  18.144  0.00  0.00    +0.000 A 
ENDBRANCH   1   9
BRANCH   1  16
ATOM     15  O   UNL     1       5.319   4.015  19.147  0.00  0.00    +0.000 OA
ATOM     16  S   UNL     1       4.914   5.531  19.302  0.00  0.00    +0.000 S 
BRANCH  16  17
ATOM     17  C   UNL     1       5.823   6.462  18.016  0.00  0.00    +0.000 C 
BRANCH  17  18
ATOM     18  C   UNL     1       5.923   5.630  16.772  0.00  0.00    +0.000 A 
ATOM     19  C   UNL     1       5.007   5.524  15.742  0.00  0.00    +0.000 A 
ATOM     20  C   UNL     1       5.412   4.585  14.750  0.00  0.00    +0.000 A 
ATOM     21  C   UNL     1       6.628   4.012  15.049  0.00  0.00    +0.000 A 
ATOM     22  S   UNL     1       7.283   4.620  16.506  0.00  0.00    +0.000 S 
ENDBRANCH  17  18
ENDBRANCH  16  17
ENDBRANCH   1  16
TORSDOF 5
ENDMDL
MODEL 4
REMARK VINA RESULT:      -7.5      0.091      1.030
REMARK  Name = 
REMARK  5 active torsions:
REMARK  status: ('A' for Active; 'I' for Inactive)
REMARK    1  A    between atoms: S_2  and  C_3
REMARK    2  A    between atoms: S_2  and  C_9
REMARK    3  A    between atoms: C_3  and  C_4
REMARK    4  A    between atoms: C_9  and  C_10
REMARK    5  A    between atoms: C_9  and  C_16
REMARK                            x       y       z     vdW  Elec       q    Type
REMARK                         _______ _______ _______ _____ _____    ______ ____
ROOT
ATOM      1  C   UNL     1       4.001   5.532  18.477  0.00  0.00    +0.000 C 
ENDROOT
BRANCH   1   2
ATOM      2  C   UNL     1       3.023   6.693  18.672  0.00  0.00    +0.000 A 
ATOM      3  C   UNL     1       2.424   6.869  19.935  0.00  0.00    +0.000 A 
ATOM      4  C   UNL     1       1.562   7.943  20.181  0.00  0.00    +0.000 A 
ATOM      5  C   UNL     1       1.293   8.858  19.168  0.00  0.00    +0.000 A 
ATOM      6 BR   UNL     1       0.139  10.316  19.501  0.00  0.00    +0.000 Br
ATOM      7  C   UNL     1       1.882   8.714  17.916  0.00  0.00    +0.000 A 
ATOM      8  C   UNL     1       2.749   7.645  17.671  0.00  0.00    +0.000 A 
ENDBRANCH   1   2
BRANCH   1   9
ATOM      9  C   UNL     1       5.466   5.972  18.446  0.00  0.00    +0.000 A 
ATOM     10  C   UNL     1       5.955   6.911  17.522  0.00  0.00    +0.000 A 
ATOM     11  C   UNL     1       7.310   7.253  17.494  0.00  0.00    +0.000 A 
ATOM     12  C   UNL     1       8.202   6.652  18.377  0.00  0.00    +0.000 A 
ATOM     13  C   UNL     1       7.742   5.708  19.290  0.00  0.00    +0.000 A 
ATOM     14  C   UNL     1       6.386   5.370  19.325  0.00  0.00    +0.000 A 
ENDBRANCH   1   9
BRANCH   1  16
ATOM     15  O   UNL     1       4.972   4.397  16.140  0.00  0.00    +0.000 OA
ATOM     16  S   UNL     1       3.662   4.443  17.016  0.00  0.00    +0.000 S 
BRANCH  16  17
ATOM     17  C   UNL     1       3.562   2.852  17.914  0.00  0.00    +0.000 C 
BRANCH  17  18
ATOM     18  C   UNL     1       2.621   2.990  19.073  0.00  0.00    +0.000 A 
ATOM     19  C   UNL     1       1.289   3.360  19.050  0.00  0.00    +0.000 A 
ATOM     20  C   UNL     1       0.726   3.445  20.355  0.00  0.00    +0.000 A 
ATOM     21  C   UNL     1       1.642   3.128  21.333  0.00  0.00    +0.000 A 
ATOM     22  S   UNL     1       3.164   2.711  20.675  0.00  0.00    +0.000 S 
ENDBRANCH  17  18
ENDBRANCH  16  17
ENDBRANCH   1  16
TORSDOF 5
ENDMDL
MODEL 5
REMARK VINA RESULT:      -7.5      1.876      4.865
REMARK  Name = 
REMARK  5 active torsions:
REMARK  status: ('A' for Active; 'I' for Inactive)
REMARK    1  A    between atoms: S_2  and  C_3
REMARK    2  A    between atoms: S_2  and  C_9
REMARK    3  A    between atoms: C_3  and  C_4
REMARK    4  A    between atoms: C_9  and  C_10
REMARK    5  A    between atoms: C_9  and  C_16
REMARK                            x       y       z     vdW  Elec       q    Type
REMARK                         _______ _______ _______ _____ _____    ______ ____
ROOT
ATOM      1  C   UNL     1       3.361   5.625  18.507  0.00  0.00    +0.000 C 
ENDROOT
BRANCH   1   2
ATOM      2  C   UNL     1       2.666   6.982  18.640  0.00  0.00    +0.000 A 
ATOM      3  C   UNL     1       2.107   7.338  19.883  0.00  0.00    +0.000 A 
ATOM      4  C   UNL     1       1.505   8.586  20.072  0.00  0.00    +0.000 A 
ATOM      5  C   UNL     1       1.457   9.496  19.020  0.00  0.00    +0.000 A 
ATOM      6 BR   UNL     1       0.654  11.187  19.275  0.00  0.00    +0.000 Br
ATOM      7  C   UNL     1       2.012   9.172  17.786  0.00  0.00    +0.000 A 
ATOM      8  C   UNL     1       2.621   7.928  17.598  0.00  0.00    +0.000 A 
ENDBRANCH   1   2
BRANCH   1   9
ATOM      9  C   UNL     1       2.510   4.456  19.011  0.00  0.00    +0.000 A 
ATOM     10  C   UNL     1       1.751   3.647  18.149  0.00  0.00    +0.000 A 
ATOM     11  C   UNL     1       0.949   2.618  18.651  0.00  0.00    +0.000 A 
ATOM     12  C   UNL     1       0.880   2.390  20.023  0.00  0.00    +0.000 A 
ATOM     13  C   UNL     1       1.612   3.190  20.894  0.00  0.00    +0.000 A 
ATOM     14  C   UNL     1       2.421   4.214  20.394  0.00  0.00    +0.000 A 
ENDBRANCH   1   9
BRANCH   1  16
ATOM     15  O   UNL     1       5.548   4.030  19.109  0.00  0.00    +0.000 OA
ATOM     16  S   UNL     1       5.049   5.518  19.262  0.00  0.00    +0.000 S 
BRANCH  16  17
ATOM     17  C   UNL     1       5.941   6.513  18.014  0.00  0.00    +0.000 C 
BRANCH  17  18
ATOM     18  C   UNL     1       6.028   5.743  16.730  0.00  0.00    +0.000 A 
ATOM     19  C   UNL     1       5.191   5.819  15.633  0.00  0.00    +0.000 A 
ATOM     20  C   UNL     1       5.546   4.889  14.614  0.00  0.00    +0.000 A 
ATOM     21  C   UNL     1       6.648   4.141  14.960  0.00  0.00    +0.000 A 
ATOM     22  S   UNL     1       7.261   4.574  16.497  0.00  0.00    +0.000 S 
ENDBRANCH  17  18
ENDBRANCH  16  17
ENDBRANCH   1  16
TORSDOF 5
ENDMDL
MODEL 6
REMARK VINA RESULT:      -7.5      1.886      4.790
REMARK  Name = 
REMARK  5 active torsions:
REMARK  status: ('A' for Active; 'I' for Inactive)
REMARK    1  A    between atoms: S_2  and  C_3
REMARK    2  A    between atoms: S_2  and  C_9
REMARK    3  A    between atoms: C_3  and  C_4
REMARK    4  A    between atoms: C_9  and  C_10
REMARK    5  A    between atoms: C_9  and  C_16
REMARK                            x       y       z     vdW  Elec       q    Type
REMARK                         _______ _______ _______ _____ _____    ______ ____
ROOT
ATOM      1  C   UNL     1       3.306   5.597  18.552  0.00  0.00    +0.000 C 
ENDROOT
BRANCH   1   2
ATOM      2  C   UNL     1       2.632   6.965  18.681  0.00  0.00    +0.000 A 
ATOM      3  C   UNL     1       2.066   7.328  19.920  0.00  0.00    +0.000 A 
ATOM      4  C   UNL     1       1.483   8.585  20.106  0.00  0.00    +0.000 A 
ATOM      5  C   UNL     1       1.463   9.498  19.056  0.00  0.00    +0.000 A 
ATOM      6 BR   UNL     1       0.685  11.202  19.307  0.00  0.00    +0.000 Br
ATOM      7  C   UNL     1       2.025   9.169  17.827  0.00  0.00    +0.000 A 
ATOM      8  C   UNL     1       2.615   7.915  17.642  0.00  0.00    +0.000 A 
ENDBRANCH   1   2
BRANCH   1   9
ATOM      9  C   UNL     1       2.446   4.446  19.081  0.00  0.00    +0.000 A 
ATOM     10  C   UNL     1       2.433   4.071  20.435  0.00  0.00    +0.000 A 
ATOM     11  C   UNL     1       1.671   2.985  20.872  0.00  0.00    +0.000 A 
ATOM     12  C   UNL     1       0.921   2.244  19.963  0.00  0.00    +0.000 A 
ATOM     13  C   UNL     1       0.932   2.588  18.615  0.00  0.00    +0.000 A 
ATOM     14  C   UNL     1       1.687   3.680  18.177  0.00  0.00    +0.000 A 
ENDBRANCH   1   9
BRANCH   1  16
ATOM     15  O   UNL     1       5.488   3.981  19.117  0.00  0.00    +0.000 OA
ATOM     16  S   UNL     1       5.004   5.473  19.283  0.00  0.00    +0.000 S 
BRANCH  16  17
ATOM     17  C   UNL     1       5.886   6.467  18.026  0.00  0.00    +0.000 C 
BRANCH  17  18
ATOM     18  C   UNL     1       5.982   5.687  16.749  0.00  0.00    +0.000 A 
ATOM     19  C   UNL     1       5.119   5.708  15.670  0.00  0.00    +0.000 A 
ATOM     20  C   UNL     1       5.496   4.785  14.654  0.00  0.00    +0.000 A 
ATOM     21  C   UNL     1       6.640   4.095  14.984  0.00  0.00    +0.000 A 
ATOM     22  S   UNL     1       7.265   4.575  16.501  0.00  0.00    +0.000 S 
ENDBRANCH  17  18
ENDBRANCH  16  17
ENDBRANCH   1  16
TORSDOF 5
ENDMDL
MODEL 7
REMARK VINA RESULT:      -7.5      0.080      1.032
REMARK  Name = 
REMARK  5 active torsions:
REMARK  status: ('A' for Active; 'I' for Inactive)
REMARK    1  A    between atoms: S_2  and  C_3
REMARK    2  A    between atoms: S_2  and  C_9
REMARK    3  A    between atoms: C_3  and  C_4
REMARK    4  A    between atoms: C_9  and  C_10
REMARK    5  A    between atoms: C_9  and  C_16
REMARK                            x       y       z     vdW  Elec       q    Type
REMARK                         _______ _______ _______ _____ _____    ______ ____
ROOT
ATOM      1  C   UNL     1       4.054   5.454  18.527  0.00  0.00    +0.000 C 
ENDROOT
BRANCH   1   2
ATOM      2  C   UNL     1       3.115   6.635  18.784  0.00  0.00    +0.000 A 
ATOM      3  C   UNL     1       2.872   7.547  17.739  0.00  0.00    +0.000 A 
ATOM      4  C   UNL     1       1.984   8.615  17.905  0.00  0.00    +0.000 A 
ATOM      5  C   UNL     1       1.323   8.781  19.118  0.00  0.00    +0.000 A 
ATOM      6 BR   UNL     1       0.114  10.215  19.343  0.00  0.00    +0.000 Br
ATOM      7  C   UNL     1       1.537   7.886  20.163  0.00  0.00    +0.000 A 
ATOM      8  C   UNL     1       2.419   6.815  19.995  0.00  0.00    +0.000 A 
ENDBRANCH   1   2
BRANCH   1   9
ATOM      9  C   UNL     1       5.530   5.855  18.472  0.00  0.00    +0.000 A 
ATOM     10  C   UNL     1       6.489   5.337  19.359  0.00  0.00    +0.000 A 
ATOM     11  C   UNL     1       7.819   5.762  19.308  0.00  0.00    +0.000 A 
ATOM     12  C   UNL     1       8.212   6.723  18.381  0.00  0.00    +0.000 A 
ATOM     13  C   UNL     1       7.275   7.261  17.503  0.00  0.00    +0.000 A 
ATOM     14  C   UNL     1       5.946   6.831  17.548  0.00  0.00    +0.000 A 
ENDBRANCH   1   9
BRANCH   1  16
ATOM     15  O   UNL     1       4.940   4.354  16.140  0.00  0.00    +0.000 OA
ATOM     16  S   UNL     1       3.648   4.422  17.043  0.00  0.00    +0.000 S 
BRANCH  16  17
ATOM     17  C   UNL     1       3.505   2.810  17.896  0.00  0.00    +0.000 C 
BRANCH  17  18
ATOM     18  C   UNL     1       2.591   2.949  19.077  0.00  0.00    +0.000 A 
ATOM     19  C   UNL     1       1.260   3.321  19.085  0.00  0.00    +0.000 A 
ATOM     20  C   UNL     1       0.728   3.407  20.404  0.00  0.00    +0.000 A 
ATOM     21  C   UNL     1       1.666   3.087  21.359  0.00  0.00    +0.000 A 
ATOM     22  S   UNL     1       3.172   2.667  20.666  0.00  0.00    +0.000 S 
ENDBRANCH  17  18
ENDBRANCH  16  17
ENDBRANCH   1  16
TORSDOF 5
ENDMDL
MODEL 8
REMARK VINA RESULT:      -7.3      0.839      1.004
REMARK  Name = 
REMARK  5 active torsions:
REMARK  status: ('A' for Active; 'I' for Inactive)
REMARK    1  A    between atoms: S_2  and  C_3
REMARK    2  A    between atoms: S_2  and  C_9
REMARK    3  A    between atoms: C_3  and  C_4
REMARK    4  A    between atoms: C_9  and  C_10
REMARK    5  A    between atoms: C_9  and  C_16
REMARK                            x       y       z     vdW  Elec       q    Type
REMARK                         _______ _______ _______ _____ _____    ______ ____
ROOT
ATOM      1  C   UNL     1       3.496   5.616  18.575  0.00  0.00    +0.000 C 
ENDROOT
BRANCH   1   2
ATOM      2  C   UNL     1       2.675   6.896  18.752  0.00  0.00    +0.000 A 
ATOM      3  C   UNL     1       2.189   7.216  20.035  0.00  0.00    +0.000 A 
ATOM      4  C   UNL     1       1.476   8.398  20.261  0.00  0.00    +0.000 A 
ATOM      5  C   UNL     1       1.245   9.277  19.208  0.00  0.00    +0.000 A 
ATOM      6 BR   UNL     1       0.292  10.880  19.513  0.00  0.00    +0.000 Br
ATOM      7  C   UNL     1       1.725   8.989  17.934  0.00  0.00    +0.000 A 
ATOM      8  C   UNL     1       2.444   7.812  17.709  0.00  0.00    +0.000 A 
ENDBRANCH   1   2
BRANCH   1   9
ATOM      9  C   UNL     1       5.000   5.873  18.457  0.00  0.00    +0.000 A 
ATOM     10  C   UNL     1       5.932   5.345  19.368  0.00  0.00    +0.000 A 
ATOM     11  C   UNL     1       7.293   5.640  19.255  0.00  0.00    +0.000 A 
ATOM     12  C   UNL     1       7.746   6.480  18.241  0.00  0.00    +0.000 A 
ATOM     13  C   UNL     1       6.839   7.025  17.338  0.00  0.00    +0.000 A 
ATOM     14  C   UNL     1       5.478   6.725  17.444  0.00  0.00    +0.000 A 
ENDBRANCH   1   9
BRANCH   1  16
ATOM     15  O   UNL     1       4.017   3.347  17.068  0.00  0.00    +0.000 OA
ATOM     16  S   UNL     1       2.958   4.509  17.191  0.00  0.00    +0.000 S 
BRANCH  16  17
ATOM     17  C   UNL     1       1.478   3.804  18.001  0.00  0.00    +0.000 C 
BRANCH  17  18
ATOM     18  C   UNL     1       1.818   3.410  19.407  0.00  0.00    +0.000 A 
ATOM     19  C   UNL     1       1.210   3.822  20.578  0.00  0.00    +0.000 A 
ATOM     20  C   UNL     1       1.843   3.287  21.737  0.00  0.00    +0.000 A 
ATOM     21  C   UNL     1       2.907   2.476  21.414  0.00  0.00    +0.000 A 
ATOM     22  S   UNL     1       3.126   2.346  19.723  0.00  0.00    +0.000 S 
ENDBRANCH  17  18
ENDBRANCH  16  17
ENDBRANCH   1  16
TORSDOF 5
ENDMDL
MODEL 9
REMARK VINA RESULT:      -7.3      0.166      1.463
REMARK  Name = 
REMARK  5 active torsions:
REMARK  status: ('A' for Active; 'I' for Inactive)
REMARK    1  A    between atoms: S_2  and  C_3
REMARK    2  A    between atoms: S_2  and  C_9
REMARK    3  A    between atoms: C_3  and  C_4
REMARK    4  A    between atoms: C_9  and  C_10
REMARK    5  A    between atoms: C_9  and  C_16
REMARK                            x       y       z     vdW  Elec       q    Type
REMARK                         _______ _______ _______ _____ _____    ______ ____
ROOT
ATOM      1  C   UNL     1       3.989   5.586  18.532  0.00  0.00    +0.000 C 
ENDROOT
BRANCH   1   2
ATOM      2  C   UNL     1       3.042   6.764  18.775  0.00  0.00    +0.000 A 
ATOM      3  C   UNL     1       2.775   7.649  17.711  0.00  0.00    +0.000 A 
ATOM      4  C   UNL     1       1.879   8.711  17.864  0.00  0.00    +0.000 A 
ATOM      5  C   UNL     1       1.234   8.900  19.083  0.00  0.00    +0.000 A 
ATOM      6 BR   UNL     1       0.015  10.328  19.290  0.00  0.00    +0.000 Br
ATOM      7  C   UNL     1       1.472   8.033  20.145  0.00  0.00    +0.000 A 
ATOM      8  C   UNL     1       2.361   6.967  19.990  0.00  0.00    +0.000 A 
ENDBRANCH   1   2
BRANCH   1   9
ATOM      9  C   UNL     1       5.463   5.995  18.479  0.00  0.00    +0.000 A 
ATOM     10  C   UNL     1       5.958   6.924  17.548  0.00  0.00    +0.000 A 
ATOM     11  C   UNL     1       7.319   7.237  17.499  0.00  0.00    +0.000 A 
ATOM     12  C   UNL     1       8.212   6.618  18.368  0.00  0.00    +0.000 A 
ATOM     13  C   UNL     1       7.745   5.683  19.289  0.00  0.00    +0.000 A 
ATOM     14  C   UNL     1       6.383   5.375  19.344  0.00  0.00    +0.000 A 
ENDBRANCH   1   9
BRANCH   1  16
ATOM     15  O   UNL     1       4.874   4.513  16.133  0.00  0.00    +0.000 OA
ATOM     16  S   UNL     1       3.595   4.538  17.056  0.00  0.00    +0.000 S 
BRANCH  16  17
ATOM     17  C   UNL     1       3.521   2.924  17.913  0.00  0.00    +0.000 C 
BRANCH  17  18
ATOM     18  C   UNL     1       2.623   3.034  19.109  0.00  0.00    +0.000 A 
ATOM     19  C   UNL     1       1.297   3.422  19.145  0.00  0.00    +0.000 A 
ATOM     20  C   UNL     1       0.780   3.468  20.472  0.00  0.00    +0.000 A 
ATOM     21  C   UNL     1       1.724   3.103  21.405  0.00  0.00    +0.000 A 
ATOM     22  S   UNL     1       3.216   2.689  20.680  0.00  0.00    +0.000 S 
ENDBRANCH  17  18
ENDBRANCH  16  17
ENDBRANCH   1  16
TORSDOF 5
ENDMDL
