MODEL 1
REMARK VINA RESULT:     -10.3      0.000      0.000
REMARK  Name = 
REMARK  5 active torsions:
REMARK  status: ('A' for Active; 'I' for Inactive)
REMARK    1  A    between atoms: C_4  and  C_5
REMARK    2  A    between atoms: C_7  and  N_8
REMARK    3  A    between atoms: C_9  and  C_11
REMARK    4  A    between atoms: C_11  and  C_12
REMARK    5  A    between atoms: C_11  and  C_18
REMARK                            x       y       z     vdW  Elec       q    Type
REMARK                         _______ _______ _______ _____ _____    ______ ____
ROOT
ATOM      1  N   UNL     1       4.158   4.761  17.497  0.00  0.00    +0.000 N 
ATOM      2  C   UNL     1       3.707   6.039  17.772  0.00  0.00    +0.000 C 
ATOM      3  O   UNL     1       3.770   6.927  16.915  0.00  0.00    +0.000 OA
ATOM      4  H   UNL     1       4.083   4.054  18.216  0.00  0.00    +0.000 HD
ENDROOT
BRANCH   1   7
ATOM      5  C   UNL     1       6.768   5.053  15.985  0.00  0.00    +0.000 C 
ATOM      6  C   UNL     1       6.078   3.686  16.243  0.00  0.00    +0.000 C 
ATOM      7  C   UNL     1       4.705   4.397  16.167  0.00  0.00    +0.000 C 
ATOM      8  C   UNL     1       5.420   5.521  15.377  0.00  0.00    +0.000 C 
BRANCH   5  12
ATOM      9  N   UNL     1       8.466   5.225  20.440  0.00  0.00    +0.000 N 
ATOM     10  C   UNL     1       8.124   5.829  19.280  0.00  0.00    +0.000 A 
ATOM     11  N   UNL     1       7.582   5.156  18.318  0.00  0.00    +0.000 NA
ATOM     12  C   UNL     1       7.271   5.837  17.164  0.00  0.00    +0.000 A 
ATOM     13  C   UNL     1       7.488   7.150  16.989  0.00  0.00    +0.000 A 
ATOM     14  C   UNL     1       8.083   7.901  18.096  0.00  0.00    +0.000 A 
ATOM     15  O   UNL     1       8.323   9.103  18.011  0.00  0.00    +0.000 OA
ATOM     16  N   UNL     1       8.386   7.163  19.198  0.00  0.00    +0.000 N 
ATOM     17  H   UNL     1       8.335   4.224  20.502  0.00  0.00    +0.000 HD
ATOM     18  H   UNL     1       8.943   5.696  21.193  0.00  0.00    +0.000 HD
ATOM     19  H   UNL     1       8.818   7.659  19.957  0.00  0.00    +0.000 HD
ENDBRANCH   5  12
ENDBRANCH   1   7
BRANCH   2  20
ATOM     20  C   UNL     1       3.123   6.271  19.192  0.00  0.00    +0.000 C 
BRANCH  20  21
ATOM     21  C   UNL     1       2.357   7.600  19.218  0.00  0.00    +0.000 A 
ATOM     22  C   UNL     1       1.736   8.041  20.395  0.00  0.00    +0.000 A 
ATOM     23  C   UNL     1       0.802   9.079  20.370  0.00  0.00    +0.000 A 
ATOM     24  C   UNL     1       0.520   9.736  19.176  0.00  0.00    +0.000 A 
ATOM     25  C   UNL     1       1.205   9.384  18.017  0.00  0.00    +0.000 A 
ATOM     26  C   UNL     1       2.116   8.320  18.032  0.00  0.00    +0.000 A 
ENDBRANCH  20  21
BRANCH  20  27
ATOM     27  C   UNL     1       2.363   5.045  19.717  0.00  0.00    +0.000 A 
ATOM     28  C   UNL     1       2.571   4.591  21.030  0.00  0.00    +0.000 A 
ATOM     29  C   UNL     1       1.959   3.418  21.493  0.00  0.00    +0.000 A 
ATOM     30  C   UNL     1       1.116   2.686  20.657  0.00  0.00    +0.000 A 
ATOM     31  C   UNL     1       0.879   3.132  19.365  0.00  0.00    +0.000 A 
ATOM     32  C   UNL     1       1.489   4.300  18.903  0.00  0.00    +0.000 A 
ENDBRANCH  20  27
ENDBRANCH   2  20
TORSDOF 5
ENDMDL
MODEL 2
REMARK VINA RESULT:     -10.2      0.203      1.302
REMARK  Name = 
REMARK  5 active torsions:
REMARK  status: ('A' for Active; 'I' for Inactive)
REMARK    1  A    between atoms: C_4  and  C_5
REMARK    2  A    between atoms: C_7  and  N_8
REMARK    3  A    between atoms: C_9  and  C_11
REMARK    4  A    between atoms: C_11  and  C_12
REMARK    5  A    between atoms: C_11  and  C_18
REMARK                            x       y       z     vdW  Elec       q    Type
REMARK                         _______ _______ _______ _____ _____    ______ ____
ROOT
ATOM      1  N   UNL     1       4.170   4.799  17.332  0.00  0.00    +0.000 N 
ATOM      2  C   UNL     1       3.759   6.076  17.666  0.00  0.00    +0.000 C 
ATOM      3  O   UNL     1       3.880   7.007  16.863  0.00  0.00    +0.000 OA
ATOM      4  H   UNL     1       4.047   4.057  18.008  0.00  0.00    +0.000 HD
ENDROOT
BRANCH   1   7
ATOM      5  C   UNL     1       6.793   5.184  15.865  0.00  0.00    +0.000 C 
ATOM      6  C   UNL     1       6.124   3.798  16.070  0.00  0.00    +0.000 C 
ATOM      7  C   UNL     1       4.740   4.487  15.999  0.00  0.00    +0.000 C 
ATOM      8  C   UNL     1       5.444   5.648  15.255  0.00  0.00    +0.000 C 
BRANCH   5  12
ATOM      9  N   UNL     1       8.327   5.249  20.381  0.00  0.00    +0.000 N 
ATOM     10  C   UNL     1       8.040   5.879  19.220  0.00  0.00    +0.000 A 
ATOM     11  N   UNL     1       7.521   5.232  18.228  0.00  0.00    +0.000 NA
ATOM     12  C   UNL     1       7.267   5.938  17.075  0.00  0.00    +0.000 A 
ATOM     13  C   UNL     1       7.516   7.250  16.930  0.00  0.00    +0.000 A 
ATOM     14  C   UNL     1       8.084   7.970  18.071  0.00  0.00    +0.000 A 
ATOM     15  O   UNL     1       8.350   9.168  18.016  0.00  0.00    +0.000 OA
ATOM     16  N   UNL     1       8.331   7.208  19.171  0.00  0.00    +0.000 N 
ATOM     17  H   UNL     1       8.174   4.250  20.421  0.00  0.00    +0.000 HD
ATOM     18  H   UNL     1       8.784   5.698  21.159  0.00  0.00    +0.000 HD
ATOM     19  H   UNL     1       8.744   7.683  19.953  0.00  0.00    +0.000 HD
ENDBRANCH   5  12
ENDBRANCH   1   7
BRANCH   2  20
ATOM     20  C   UNL     1       3.145   6.253  19.081  0.00  0.00    +0.000 C 
BRANCH  20  21
ATOM     21  C   UNL     1       2.239   7.491  19.094  0.00  0.00    +0.000 A 
ATOM     22  C   UNL     1       2.085   8.273  17.942  0.00  0.00    +0.000 A 
ATOM     23  C   UNL     1       1.513   9.546  18.007  0.00  0.00    +0.000 A 
ATOM     24  C   UNL     1       1.028  10.032  19.218  0.00  0.00    +0.000 A 
ATOM     25  C   UNL     1       1.075   9.228  20.353  0.00  0.00    +0.000 A 
ATOM     26  C   UNL     1       1.680   7.966  20.298  0.00  0.00    +0.000 A 
ENDBRANCH  20  21
BRANCH  20  27
ATOM     27  C   UNL     1       2.518   4.956  19.611  0.00  0.00    +0.000 A 
ATOM     28  C   UNL     1       1.613   4.230  18.818  0.00  0.00    +0.000 A 
ATOM     29  C   UNL     1       0.958   3.099  19.324  0.00  0.00    +0.000 A 
ATOM     30  C   UNL     1       1.207   2.663  20.624  0.00  0.00    +0.000 A 
ATOM     31  C   UNL     1       2.116   3.352  21.415  0.00  0.00    +0.000 A 
ATOM     32  C   UNL     1       2.767   4.479  20.912  0.00  0.00    +0.000 A 
ENDBRANCH  20  27
ENDBRANCH   2  20
TORSDOF 5
ENDMDL
MODEL 3
REMARK VINA RESULT:     -10.1      1.168      2.020
REMARK  Name = 
REMARK  5 active torsions:
REMARK  status: ('A' for Active; 'I' for Inactive)
REMARK    1  A    between atoms: C_4  and  C_5
REMARK    2  A    between atoms: C_7  and  N_8
REMARK    3  A    between atoms: C_9  and  C_11
REMARK    4  A    between atoms: C_11  and  C_12
REMARK    5  A    between atoms: C_11  and  C_18
REMARK                            x       y       z     vdW  Elec       q    Type
REMARK                         _______ _______ _______ _____ _____    ______ ____
ROOT
ATOM      1  N   UNL     1       4.231   4.693  17.142  0.00  0.00    +0.000 N 
ATOM      2  C   UNL     1       3.906   5.983  17.517  0.00  0.00    +0.000 C 
ATOM      3  O   UNL     1       4.091   6.929  16.744  0.00  0.00    +0.000 OA
ATOM      4  H   UNL     1       4.058   3.939  17.793  0.00  0.00    +0.000 HD
ENDROOT
BRANCH   1   7
ATOM      5  C   UNL     1       6.855   5.019  15.662  0.00  0.00    +0.000 C 
ATOM      6  C   UNL     1       6.143   3.652  15.848  0.00  0.00    +0.000 C 
ATOM      7  C   UNL     1       4.781   4.386  15.799  0.00  0.00    +0.000 C 
ATOM      8  C   UNL     1       5.517   5.537  15.070  0.00  0.00    +0.000 C 
BRANCH   5  12
ATOM      9  N   UNL     1       8.161   9.040  17.873  0.00  0.00    +0.000 N 
ATOM     10  C   UNL     1       7.922   7.709  17.881  0.00  0.00    +0.000 A 
ATOM     11  N   UNL     1       7.600   7.088  16.793  0.00  0.00    +0.000 NA
ATOM     12  C   UNL     1       7.361   5.737  16.881  0.00  0.00    +0.000 A 
ATOM     13  C   UNL     1       7.454   5.033  18.021  0.00  0.00    +0.000 A 
ATOM     14  C   UNL     1       7.840   5.748  19.239  0.00  0.00    +0.000 A 
ATOM     15  O   UNL     1       7.936   5.179  20.324  0.00  0.00    +0.000 OA
ATOM     16  N   UNL     1       8.039   7.086  19.086  0.00  0.00    +0.000 N 
ATOM     17  H   UNL     1       8.023   9.534  17.002  0.00  0.00    +0.000 HD
ATOM     18  H   UNL     1       8.357   9.574  18.705  0.00  0.00    +0.000 HD
ATOM     19  H   UNL     1       8.279   7.594  19.917  0.00  0.00    +0.000 HD
ENDBRANCH   5  12
ENDBRANCH   1   7
BRANCH   2  20
ATOM     20  C   UNL     1       3.303   6.155  18.937  0.00  0.00    +0.000 C 
BRANCH  20  21
ATOM     21  C   UNL     1       2.377   7.378  18.955  0.00  0.00    +0.000 A 
ATOM     22  C   UNL     1       2.223   8.171  17.809  0.00  0.00    +0.000 A 
ATOM     23  C   UNL     1       1.630   9.434  17.884  0.00  0.00    +0.000 A 
ATOM     24  C   UNL     1       1.123   9.897  19.094  0.00  0.00    +0.000 A 
ATOM     25  C   UNL     1       1.170   9.080  20.220  0.00  0.00    +0.000 A 
ATOM     26  C   UNL     1       1.796   7.829  20.157  0.00  0.00    +0.000 A 
ENDBRANCH  20  21
BRANCH  20  27
ATOM     27  C   UNL     1       2.703   4.849  19.478  0.00  0.00    +0.000 A 
ATOM     28  C   UNL     1       1.530   4.321  18.913  0.00  0.00    +0.000 A 
ATOM     29  C   UNL     1       0.916   3.184  19.458  0.00  0.00    +0.000 A 
ATOM     30  C   UNL     1       1.471   2.547  20.566  0.00  0.00    +0.000 A 
ATOM     31  C   UNL     1       2.643   3.040  21.124  0.00  0.00    +0.000 A 
ATOM     32  C   UNL     1       3.253   4.172  20.582  0.00  0.00    +0.000 A 
ENDBRANCH  20  27
ENDBRANCH   2  20
TORSDOF 5
ENDMDL
MODEL 4
REMARK VINA RESULT:     -10.0      1.108      1.530
REMARK  Name = 
REMARK  5 active torsions:
REMARK  status: ('A' for Active; 'I' for Inactive)
REMARK    1  A    between atoms: C_4  and  C_5
REMARK    2  A    between atoms: C_7  and  N_8
REMARK    3  A    between atoms: C_9  and  C_11
REMARK    4  A    between atoms: C_11  and  C_12
REMARK    5  A    between atoms: C_11  and  C_18
REMARK                            x       y       z     vdW  Elec       q    Type
REMARK                         _______ _______ _______ _____ _____    ______ ____
ROOT
ATOM      1  N   UNL     1       4.220   4.774  17.460  0.00  0.00    +0.000 N 
ATOM      2  C   UNL     1       3.615   5.985  17.743  0.00  0.00    +0.000 C 
ATOM      3  O   UNL     1       3.472   6.838  16.861  0.00  0.00    +0.000 OA
ATOM      4  H   UNL     1       4.313   4.093  18.202  0.00  0.00    +0.000 HD
ENDROOT
BRANCH   1   7
ATOM      5  C   UNL     1       6.769   5.011  15.839  0.00  0.00    +0.000 C 
ATOM      6  C   UNL     1       6.032   3.666  16.081  0.00  0.00    +0.000 C 
ATOM      7  C   UNL     1       4.689   4.438  16.094  0.00  0.00    +0.000 C 
ATOM      8  C   UNL     1       5.416   5.559  15.313  0.00  0.00    +0.000 C 
BRANCH   5  12
ATOM      9  N   UNL     1       8.252   9.027  17.945  0.00  0.00    +0.000 N 
ATOM     10  C   UNL     1       8.001   7.699  17.974  0.00  0.00    +0.000 A 
ATOM     11  N   UNL     1       7.605   7.077  16.912  0.00  0.00    +0.000 NA
ATOM     12  C   UNL     1       7.359   5.728  17.021  0.00  0.00    +0.000 A 
ATOM     13  C   UNL     1       7.516   5.029  18.156  0.00  0.00    +0.000 A 
ATOM     14  C   UNL     1       7.985   5.745  19.344  0.00  0.00    +0.000 A 
ATOM     15  O   UNL     1       8.145   5.179  20.423  0.00  0.00    +0.000 OA
ATOM     16  N   UNL     1       8.188   7.079  19.172  0.00  0.00    +0.000 N 
ATOM     17  H   UNL     1       8.064   9.519  17.082  0.00  0.00    +0.000 HD
ATOM     18  H   UNL     1       8.505   9.563  18.760  0.00  0.00    +0.000 HD
ATOM     19  H   UNL     1       8.486   7.589  19.984  0.00  0.00    +0.000 HD
ENDBRANCH   5  12
ENDBRANCH   1   7
BRANCH   2  20
ATOM     20  C   UNL     1       3.137   6.190  19.206  0.00  0.00    +0.000 C 
BRANCH  20  21
ATOM     21  C   UNL     1       2.401   7.531  19.320  0.00  0.00    +0.000 A 
ATOM     22  C   UNL     1       1.749   7.887  20.509  0.00  0.00    +0.000 A 
ATOM     23  C   UNL     1       0.840   8.947  20.541  0.00  0.00    +0.000 A 
ATOM     24  C   UNL     1       0.615   9.709  19.398  0.00  0.00    +0.000 A 
ATOM     25  C   UNL     1       1.332   9.439  18.236  0.00  0.00    +0.000 A 
ATOM     26  C   UNL     1       2.218   8.354  18.191  0.00  0.00    +0.000 A 
ENDBRANCH  20  21
BRANCH  20  27
ATOM     27  C   UNL     1       2.391   4.964  19.752  0.00  0.00    +0.000 A 
ATOM     28  C   UNL     1       2.613   4.529  21.069  0.00  0.00    +0.000 A 
ATOM     29  C   UNL     1       2.014   3.356  21.551  0.00  0.00    +0.000 A 
ATOM     30  C   UNL     1       1.172   2.607  20.731  0.00  0.00    +0.000 A 
ATOM     31  C   UNL     1       0.921   3.034  19.434  0.00  0.00    +0.000 A 
ATOM     32  C   UNL     1       1.517   4.201  18.954  0.00  0.00    +0.000 A 
ENDBRANCH  20  27
ENDBRANCH   2  20
TORSDOF 5
ENDMDL
MODEL 5
REMARK VINA RESULT:      -9.9      2.609      6.676
REMARK  Name = 
REMARK  5 active torsions:
REMARK  status: ('A' for Active; 'I' for Inactive)
REMARK    1  A    between atoms: C_4  and  C_5
REMARK    2  A    between atoms: C_7  and  N_8
REMARK    3  A    between atoms: C_9  and  C_11
REMARK    4  A    between atoms: C_11  and  C_12
REMARK    5  A    between atoms: C_11  and  C_18
REMARK                            x       y       z     vdW  Elec       q    Type
REMARK                         _______ _______ _______ _____ _____    ______ ____
ROOT
ATOM      1  N   UNL     1       3.938   4.276  17.541  0.00  0.00    +0.000 N 
ATOM      2  C   UNL     1       4.912   3.907  16.632  0.00  0.00    +0.000 C 
ATOM      3  O   UNL     1       5.176   2.716  16.441  0.00  0.00    +0.000 OA
ATOM      4  H   UNL     1       3.738   5.259  17.667  0.00  0.00    +0.000 HD
ENDROOT
BRANCH   1   7
ATOM      5  C   UNL     1       1.786   4.240  19.674  0.00  0.00    +0.000 C 
ATOM      6  C   UNL     1       1.633   3.546  18.294  0.00  0.00    +0.000 C 
ATOM      7  C   UNL     1       3.156   3.268  18.297  0.00  0.00    +0.000 C 
ATOM      8  C   UNL     1       3.104   3.438  19.835  0.00  0.00    +0.000 C 
BRANCH   5  12
ATOM      9  N   UNL     1       2.672   8.394  17.501  0.00  0.00    +0.000 N 
ATOM     10  C   UNL     1       2.302   7.684  18.591  0.00  0.00    +0.000 A 
ATOM     11  N   UNL     1       2.313   6.391  18.572  0.00  0.00    +0.000 NA
ATOM     12  C   UNL     1       1.913   5.737  19.714  0.00  0.00    +0.000 A 
ATOM     13  C   UNL     1       1.527   6.362  20.838  0.00  0.00    +0.000 A 
ATOM     14  C   UNL     1       1.541   7.827  20.848  0.00  0.00    +0.000 A 
ATOM     15  O   UNL     1       1.193   8.473  21.833  0.00  0.00    +0.000 OA
ATOM     16  N   UNL     1       1.925   8.409  19.680  0.00  0.00    +0.000 N 
ATOM     17  H   UNL     1       2.900   7.877  16.662  0.00  0.00    +0.000 HD
ATOM     18  H   UNL     1       2.624   9.399  17.450  0.00  0.00    +0.000 HD
ATOM     19  H   UNL     1       1.916   9.412  19.663  0.00  0.00    +0.000 HD
ENDBRANCH   5  12
ENDBRANCH   1   7
BRANCH   2  20
ATOM     20  C   UNL     1       5.626   5.065  15.883  0.00  0.00    +0.000 C 
BRANCH  20  21
ATOM     21  C   UNL     1       6.669   5.706  16.807  0.00  0.00    +0.000 A 
ATOM     22  C   UNL     1       7.291   4.951  17.812  0.00  0.00    +0.000 A 
ATOM     23  C   UNL     1       8.009   5.571  18.837  0.00  0.00    +0.000 A 
ATOM     24  C   UNL     1       8.171   6.953  18.838  0.00  0.00    +0.000 A 
ATOM     25  C   UNL     1       7.653   7.710  17.792  0.00  0.00    +0.000 A 
ATOM     26  C   UNL     1       6.901   7.095  16.782  0.00  0.00    +0.000 A 
ENDBRANCH  20  21
BRANCH  20  27
ATOM     27  C   UNL     1       6.129   4.639  14.496  0.00  0.00    +0.000 A 
ATOM     28  C   UNL     1       7.340   5.145  13.995  0.00  0.00    +0.000 A 
ATOM     29  C   UNL     1       7.763   4.843  12.693  0.00  0.00    +0.000 A 
ATOM     30  C   UNL     1       6.992   4.018  11.874  0.00  0.00    +0.000 A 
ATOM     31  C   UNL     1       5.804   3.490  12.360  0.00  0.00    +0.000 A 
ATOM     32  C   UNL     1       5.382   3.791  13.656  0.00  0.00    +0.000 A 
ENDBRANCH  20  27
ENDBRANCH   2  20
TORSDOF 5
ENDMDL
MODEL 6
REMARK VINA RESULT:      -9.5      1.270      1.905
REMARK  Name = 
REMARK  5 active torsions:
REMARK  status: ('A' for Active; 'I' for Inactive)
REMARK    1  A    between atoms: C_4  and  C_5
REMARK    2  A    between atoms: C_7  and  N_8
REMARK    3  A    between atoms: C_9  and  C_11
REMARK    4  A    between atoms: C_11  and  C_12
REMARK    5  A    between atoms: C_11  and  C_18
REMARK                            x       y       z     vdW  Elec       q    Type
REMARK                         _______ _______ _______ _____ _____    ______ ____
ROOT
ATOM      1  N   UNL     1       4.143   5.303  17.664  0.00  0.00    +0.000 N 
ATOM      2  C   UNL     1       3.086   6.091  18.080  0.00  0.00    +0.000 C 
ATOM      3  O   UNL     1       2.371   6.672  17.257  0.00  0.00    +0.000 OA
ATOM      4  H   UNL     1       4.702   4.831  18.362  0.00  0.00    +0.000 HD
ENDROOT
BRANCH   1   7
ATOM      5  C   UNL     1       6.520   5.578  15.806  0.00  0.00    +0.000 C 
ATOM      6  C   UNL     1       5.721   4.258  15.980  0.00  0.00    +0.000 C 
ATOM      7  C   UNL     1       4.444   5.099  16.226  0.00  0.00    +0.000 C 
ATOM      8  C   UNL     1       5.161   6.259  15.494  0.00  0.00    +0.000 C 
BRANCH   5  12
ATOM      9  N   UNL     1       8.430   9.244  18.188  0.00  0.00    +0.000 N 
ATOM     10  C   UNL     1       8.120   7.931  18.086  0.00  0.00    +0.000 A 
ATOM     11  N   UNL     1       7.574   7.463  17.012  0.00  0.00    +0.000 NA
ATOM     12  C   UNL     1       7.278   6.120  16.985  0.00  0.00    +0.000 A 
ATOM     13  C   UNL     1       7.533   5.277  17.998  0.00  0.00    +0.000 A 
ATOM     14  C   UNL     1       8.172   5.821  19.199  0.00  0.00    +0.000 A 
ATOM     15  O   UNL     1       8.429   5.117  20.173  0.00  0.00    +0.000 OA
ATOM     16  N   UNL     1       8.416   7.159  19.168  0.00  0.00    +0.000 N 
ATOM     17  H   UNL     1       8.166   9.847  17.421  0.00  0.00    +0.000 HD
ATOM     18  H   UNL     1       8.802   9.663  19.026  0.00  0.00    +0.000 HD
ATOM     19  H   UNL     1       8.831   7.551  19.993  0.00  0.00    +0.000 HD
ENDBRANCH   5  12
ENDBRANCH   1   7
BRANCH   2  20
ATOM     20  C   UNL     1       2.861   6.185  19.614  0.00  0.00    +0.000 C 
BRANCH  20  21
ATOM     21  C   UNL     1       2.082   7.466  19.938  0.00  0.00    +0.000 A 
ATOM     22  C   UNL     1       1.330   7.564  21.117  0.00  0.00    +0.000 A 
ATOM     23  C   UNL     1       0.393   8.585  21.290  0.00  0.00    +0.000 A 
ATOM     24  C   UNL     1       0.237   9.563  20.313  0.00  0.00    +0.000 A 
ATOM     25  C   UNL     1       1.050   9.544  19.182  0.00  0.00    +0.000 A 
ATOM     26  C   UNL     1       1.965   8.502  18.990  0.00  0.00    +0.000 A 
ENDBRANCH  20  21
BRANCH  20  27
ATOM     27  C   UNL     1       2.294   4.886  20.202  0.00  0.00    +0.000 A 
ATOM     28  C   UNL     1       1.208   4.244  19.584  0.00  0.00    +0.000 A 
ATOM     29  C   UNL     1       0.616   3.112  20.162  0.00  0.00    +0.000 A 
ATOM     30  C   UNL     1       1.109   2.592  21.358  0.00  0.00    +0.000 A 
ATOM     31  C   UNL     1       2.196   3.199  21.971  0.00  0.00    +0.000 A 
ATOM     32  C   UNL     1       2.785   4.326  21.397  0.00  0.00    +0.000 A 
ENDBRANCH  20  27
ENDBRANCH   2  20
TORSDOF 5
ENDMDL
MODEL 7
REMARK VINA RESULT:      -9.2      3.490      6.972
REMARK  Name = 
REMARK  5 active torsions:
REMARK  status: ('A' for Active; 'I' for Inactive)
REMARK    1  A    between atoms: C_4  and  C_5
REMARK    2  A    between atoms: C_7  and  N_8
REMARK    3  A    between atoms: C_9  and  C_11
REMARK    4  A    between atoms: C_11  and  C_12
REMARK    5  A    between atoms: C_11  and  C_18
REMARK                            x       y       z     vdW  Elec       q    Type
REMARK                         _______ _______ _______ _____ _____    ______ ____
ROOT
ATOM      1  N   UNL     1       1.827   8.615  18.544  0.00  0.00    +0.000 N 
ATOM      2  C   UNL     1       2.722   7.728  17.976  0.00  0.00    +0.000 C 
ATOM      3  O   UNL     1       3.029   7.819  16.783  0.00  0.00    +0.000 OA
ATOM      4  H   UNL     1       1.604   8.520  19.525  0.00  0.00    +0.000 HD
ENDROOT
BRANCH   1   7
ATOM      5  C   UNL     1       0.097  11.049  19.059  0.00  0.00    +0.000 C 
ATOM      6  C   UNL     1       1.489  11.120  18.375  0.00  0.00    +0.000 C 
ATOM      7  C   UNL     1       1.226   9.723  17.761  0.00  0.00    +0.000 C 
ATOM      8  C   UNL     1      -0.281   9.995  17.985  0.00  0.00    +0.000 C 
BRANCH   5  12
ATOM      9  N   UNL     1       1.999   8.786  22.803  0.00  0.00    +0.000 N 
ATOM     10  C   UNL     1       1.022   9.535  22.245  0.00  0.00    +0.000 A 
ATOM     11  N   UNL     1       1.044   9.818  20.983  0.00  0.00    +0.000 NA
ATOM     12  C   UNL     1       0.022  10.594  20.489  0.00  0.00    +0.000 A 
ATOM     13  C   UNL     1      -0.993  11.059  21.236  0.00  0.00    +0.000 A 
ATOM     14  C   UNL     1      -1.013  10.712  22.658  0.00  0.00    +0.000 A 
ATOM     15  O   UNL     1      -1.901  11.106  23.410  0.00  0.00    +0.000 OA
ATOM     16  N   UNL     1       0.039   9.961  23.085  0.00  0.00    +0.000 N 
ATOM     17  H   UNL     1       2.770   8.508  22.211  0.00  0.00    +0.000 HD
ATOM     18  H   UNL     1       2.054   8.590  23.790  0.00  0.00    +0.000 HD
ATOM     19  H   UNL     1       0.052   9.736  24.063  0.00  0.00    +0.000 HD
ENDBRANCH   5  12
ENDBRANCH   1   7
BRANCH   2  20
ATOM     20  C   UNL     1       3.303   6.640  18.920  0.00  0.00    +0.000 C 
BRANCH  20  21
ATOM     21  C   UNL     1       2.286   5.503  19.078  0.00  0.00    +0.000 A 
ATOM     22  C   UNL     1       1.776   5.173  20.341  0.00  0.00    +0.000 A 
ATOM     23  C   UNL     1       1.089   3.974  20.548  0.00  0.00    +0.000 A 
ATOM     24  C   UNL     1       0.845   3.115  19.481  0.00  0.00    +0.000 A 
ATOM     25  C   UNL     1       1.250   3.476  18.199  0.00  0.00    +0.000 A 
ATOM     26  C   UNL     1       1.970   4.659  17.994  0.00  0.00    +0.000 A 
ENDBRANCH  20  21
BRANCH  20  27
ATOM     27  C   UNL     1       4.725   6.220  18.521  0.00  0.00    +0.000 A 
ATOM     28  C   UNL     1       5.336   6.780  17.387  0.00  0.00    +0.000 A 
ATOM     29  C   UNL     1       6.594   6.336  16.953  0.00  0.00    +0.000 A 
ATOM     30  C   UNL     1       7.268   5.337  17.653  0.00  0.00    +0.000 A 
ATOM     31  C   UNL     1       6.690   4.788  18.790  0.00  0.00    +0.000 A 
ATOM     32  C   UNL     1       5.439   5.230  19.221  0.00  0.00    +0.000 A 
ENDBRANCH  20  27
ENDBRANCH   2  20
TORSDOF 5
ENDMDL
MODEL 8
REMARK VINA RESULT:      -9.2      2.584      6.682
REMARK  Name = 
REMARK  5 active torsions:
REMARK  status: ('A' for Active; 'I' for Inactive)
REMARK    1  A    between atoms: C_4  and  C_5
REMARK    2  A    between atoms: C_7  and  N_8
REMARK    3  A    between atoms: C_9  and  C_11
REMARK    4  A    between atoms: C_11  and  C_12
REMARK    5  A    between atoms: C_11  and  C_18
REMARK                            x       y       z     vdW  Elec       q    Type
REMARK                         _______ _______ _______ _____ _____    ______ ____
ROOT
ATOM      1  N   UNL     1       3.711   4.541  17.867  0.00  0.00    +0.000 N 
ATOM      2  C   UNL     1       4.551   4.191  16.827  0.00  0.00    +0.000 C 
ATOM      3  O   UNL     1       4.706   3.006  16.515  0.00  0.00    +0.000 OA
ATOM      4  H   UNL     1       3.597   5.521  18.092  0.00  0.00    +0.000 HD
ENDROOT
BRANCH   1   7
ATOM      5  C   UNL     1       1.574   4.479  20.015  0.00  0.00    +0.000 C 
ATOM      6  C   UNL     1       1.419   3.784  18.634  0.00  0.00    +0.000 C 
ATOM      7  C   UNL     1       2.945   3.523  18.627  0.00  0.00    +0.000 C 
ATOM      8  C   UNL     1       2.902   3.691  20.166  0.00  0.00    +0.000 C 
BRANCH   5  12
ATOM      9  N   UNL     1       2.622   8.626  17.903  0.00  0.00    +0.000 N 
ATOM     10  C   UNL     1       2.159   7.920  18.959  0.00  0.00    +0.000 A 
ATOM     11  N   UNL     1       2.182   6.627  18.951  0.00  0.00    +0.000 NA
ATOM     12  C   UNL     1       1.685   5.977  20.056  0.00  0.00    +0.000 A 
ATOM     13  C   UNL     1       1.192   6.606  21.135  0.00  0.00    +0.000 A 
ATOM     14  C   UNL     1       1.193   8.070  21.136  0.00  0.00    +0.000 A 
ATOM     15  O   UNL     1       0.751   8.719  22.081  0.00  0.00    +0.000 OA
ATOM     16  N   UNL     1       1.678   8.649  20.004  0.00  0.00    +0.000 N 
ATOM     17  H   UNL     1       2.930   8.107  17.092  0.00  0.00    +0.000 HD
ATOM     18  H   UNL     1       2.571   9.631  17.841  0.00  0.00    +0.000 HD
ATOM     19  H   UNL     1       1.663   9.652  19.979  0.00  0.00    +0.000 HD
ENDBRANCH   5  12
ENDBRANCH   1   7
BRANCH   2  20
ATOM     20  C   UNL     1       5.261   5.361  16.092  0.00  0.00    +0.000 C 
BRANCH  20  21
ATOM     21  C   UNL     1       6.195   6.086  17.070  0.00  0.00    +0.000 A 
ATOM     22  C   UNL     1       6.455   7.456  16.924  0.00  0.00    +0.000 A 
ATOM     23  C   UNL     1       7.511   8.064  17.606  0.00  0.00    +0.000 A 
ATOM     24  C   UNL     1       8.285   7.325  18.497  0.00  0.00    +0.000 A 
ATOM     25  C   UNL     1       7.975   5.989  18.737  0.00  0.00    +0.000 A 
ATOM     26  C   UNL     1       6.939   5.368  18.027  0.00  0.00    +0.000 A 
ENDBRANCH  20  21
BRANCH  20  27
ATOM     27  C   UNL     1       5.890   4.919  14.764  0.00  0.00    +0.000 A 
ATOM     28  C   UNL     1       5.213   4.020  13.923  0.00  0.00    +0.000 A 
ATOM     29  C   UNL     1       5.816   3.532  12.755  0.00  0.00    +0.000 A 
ATOM     30  C   UNL     1       7.098   3.946  12.399  0.00  0.00    +0.000 A 
ATOM     31  C   UNL     1       7.774   4.852  13.204  0.00  0.00    +0.000 A 
ATOM     32  C   UNL     1       7.175   5.337  14.367  0.00  0.00    +0.000 A 
ENDBRANCH  20  27
ENDBRANCH   2  20
TORSDOF 5
ENDMDL
MODEL 9
REMARK VINA RESULT:      -9.1      2.512      6.586
REMARK  Name = 
REMARK  5 active torsions:
REMARK  status: ('A' for Active; 'I' for Inactive)
REMARK    1  A    between atoms: C_4  and  C_5
REMARK    2  A    between atoms: C_7  and  N_8
REMARK    3  A    between atoms: C_9  and  C_11
REMARK    4  A    between atoms: C_11  and  C_12
REMARK    5  A    between atoms: C_11  and  C_18
REMARK                            x       y       z     vdW  Elec       q    Type
REMARK                         _______ _______ _______ _____ _____    ______ ____
ROOT
ATOM      1  N   UNL     1       4.102   4.250  17.603  0.00  0.00    +0.000 N 
ATOM      2  C   UNL     1       4.981   3.891  16.598  0.00  0.00    +0.000 C 
ATOM      3  O   UNL     1       5.182   2.702  16.331  0.00  0.00    +0.000 OA
ATOM      4  H   UNL     1       3.952   5.232  17.790  0.00  0.00    +0.000 HD
ENDROOT
BRANCH   1   7
ATOM      5  C   UNL     1       1.812   4.181  19.585  0.00  0.00    +0.000 C 
ATOM      6  C   UNL     1       1.811   3.386  18.252  0.00  0.00    +0.000 C 
ATOM      7  C   UNL     1       3.347   3.233  18.376  0.00  0.00    +0.000 C 
ATOM      8  C   UNL     1       3.172   3.501  19.891  0.00  0.00    +0.000 C 
BRANCH   5  12
ATOM      9  N   UNL     1       1.568   8.426  21.749  0.00  0.00    +0.000 N 
ATOM     10  C   UNL     1       1.744   7.671  20.641  0.00  0.00    +0.000 A 
ATOM     11  N   UNL     1       1.616   6.385  20.690  0.00  0.00    +0.000 NA
ATOM     12  C   UNL     1       1.820   5.682  19.526  0.00  0.00    +0.000 A 
ATOM     13  C   UNL     1       2.132   6.255  18.351  0.00  0.00    +0.000 A 
ATOM     14  C   UNL     1       2.252   7.714  18.310  0.00  0.00    +0.000 A 
ATOM     15  O   UNL     1       2.544   8.312  17.277  0.00  0.00    +0.000 OA
ATOM     16  N   UNL     1       2.059   8.344  19.500  0.00  0.00    +0.000 N 
ATOM     17  H   UNL     1       1.391   7.944  22.619  0.00  0.00    +0.000 HD
ATOM     18  H   UNL     1       1.715   9.423  21.771  0.00  0.00    +0.000 HD
ATOM     19  H   UNL     1       2.163   9.342  19.493  0.00  0.00    +0.000 HD
ENDBRANCH   5  12
ENDBRANCH   1   7
BRANCH   2  20
ATOM     20  C   UNL     1       5.675   5.058  15.844  0.00  0.00    +0.000 C 
BRANCH  20  21
ATOM     21  C   UNL     1       6.706   5.722  16.766  0.00  0.00    +0.000 A 
ATOM     22  C   UNL     1       7.352   4.979  17.764  0.00  0.00    +0.000 A 
ATOM     23  C   UNL     1       8.059   5.613  18.788  0.00  0.00    +0.000 A 
ATOM     24  C   UNL     1       8.186   6.999  18.795  0.00  0.00    +0.000 A 
ATOM     25  C   UNL     1       7.643   7.747  17.754  0.00  0.00    +0.000 A 
ATOM     26  C   UNL     1       6.902   7.117  16.746  0.00  0.00    +0.000 A 
ENDBRANCH  20  21
BRANCH  20  27
ATOM     27  C   UNL     1       6.185   4.636  14.459  0.00  0.00    +0.000 A 
ATOM     28  C   UNL     1       7.387   5.162  13.955  0.00  0.00    +0.000 A 
ATOM     29  C   UNL     1       7.816   4.862  12.655  0.00  0.00    +0.000 A 
ATOM     30  C   UNL     1       7.060   4.019  11.840  0.00  0.00    +0.000 A 
ATOM     31  C   UNL     1       5.883   3.470  12.329  0.00  0.00    +0.000 A 
ATOM     32  C   UNL     1       5.455   3.770  13.623  0.00  0.00    +0.000 A 
ENDBRANCH  20  27
ENDBRANCH   2  20
TORSDOF 5
ENDMDL
