MODEL 1
REMARK VINA RESULT:      -7.9      0.000      0.000
REMARK  Name = 
REMARK  15 active torsions:
REMARK  status: ('A' for Active; 'I' for Inactive)
REMARK    1  A    between atoms: C_1  and  C_2
REMARK    2  A    between atoms: C_2  and  C_3
REMARK    3  A    between atoms: C_3  and  C_4
REMARK    4  A    between atoms: C_4  and  C_5
REMARK    5  A    between atoms: C_5  and  C_6
REMARK    6  A    between atoms: C_5  and  N_9
REMARK    7  A    between atoms: C_6  and  O_8
REMARK    8  A    between atoms: C_12  and  C_13
REMARK    9  A    between atoms: C_15  and  C_16
REMARK   10  A    between atoms: C_20  and  O_21
REMARK   11  A    between atoms: O_21  and  C_22
REMARK   12  A    between atoms: C_25  and  C_26
REMARK   13  A    between atoms: C_26  and  C_27
REMARK   14  A    between atoms: C_26  and  C_28
REMARK   15  A    between atoms: C_26  and  C_29
REMARK                            x       y       z     vdW  Elec       q    Type
REMARK                         _______ _______ _______ _____ _____    ______ ____
ROOT
ATOM      1  C   UNL     1       5.819   6.059  17.650  0.00  0.00    +0.000 A 
ATOM      2  C   UNL     1       6.420   5.404  18.737  0.00  0.00    +0.000 A 
ATOM      3  C   UNL     1       7.612   5.875  19.293  0.00  0.00    +0.000 A 
ATOM      4  C   UNL     1       8.232   7.008  18.765  0.00  0.00    +0.000 A 
ATOM      5  C   UNL     1       7.658   7.672  17.684  0.00  0.00    +0.000 A 
ATOM      6  C   UNL     1       6.479   7.179  17.111  0.00  0.00    +0.000 A 
ENDROOT
BRANCH   1  13
ATOM      7  N   UNL     1       3.302   5.692  17.787  0.00  0.00    +0.000 N 
ATOM      8  C   UNL     1       2.528   4.544  17.877  0.00  0.00    +0.000 C 
ATOM      9  O   UNL     1       1.398   4.520  18.347  0.00  0.00    +0.000 OA
ATOM     10  C   UNL     1       3.279   3.297  17.455  0.00  0.00    +0.000 C 
ATOM     11  C   UNL     1       3.773   2.597  18.717  0.00  0.00    +0.000 C 
ATOM     12  S   UNL     1       4.666   3.873  16.445  0.00  0.00    +0.000 S 
ATOM     13  C   UNL     1       4.535   5.592  17.006  0.00  0.00    +0.000 C 
BRANCH   7  14
ATOM     14  C   UNL     1       2.899   6.903  18.553  0.00  0.00    +0.000 C 
BRANCH  14  15
ATOM     15  C   UNL     1       2.433   6.577  19.979  0.00  0.00    +0.000 C 
ATOM     16  O   UNL     1       1.577   7.173  20.605  0.00  0.00    +0.000 OA
BRANCH  15  17
ATOM     17  O   UNL     1       3.179   5.593  20.550  0.00  0.00    +0.000 OA
ATOM     18  H   UNL     1       3.913   5.300  19.974  0.00  0.00    +0.000 HD
ENDBRANCH  15  17
ENDBRANCH  14  15
BRANCH  14  19
ATOM     19  C   UNL     1       1.927   7.761  17.723  0.00  0.00    +0.000 C 
BRANCH  19  20
ATOM     20  C   UNL     1       2.035   9.281  17.856  0.00  0.00    +0.000 C 
BRANCH  20  22
ATOM     21  C   UNL     1       1.155  11.239  19.140  0.00  0.00    +0.000 C 
ATOM     22  C   UNL     1       0.784   9.974  18.380  0.00  0.00    +0.000 C 
ENDBRANCH  20  22
ENDBRANCH  19  20
ENDBRANCH  14  19
ENDBRANCH   7  14
ENDBRANCH   1  13
BRANCH   5  23
ATOM     23  O   UNL     1       8.336   8.767  17.191  0.00  0.00    +0.000 OA
BRANCH  23  24
ATOM     24  C   UNL     1       8.628   9.804  18.051  0.00  0.00    +0.000 A 
ATOM     25  C   UNL     1       9.134   9.620  19.332  0.00  0.00    +0.000 A 
ATOM     26  C   UNL     1       9.382  10.715  20.161  0.00  0.00    +0.000 A 
ATOM     27  C   UNL     1       9.206  12.033  19.712  0.00  0.00    +0.000 A 
ATOM     28  C   UNL     1       8.734  12.208  18.397  0.00  0.00    +0.000 A 
ATOM     29  C   UNL     1       8.448  11.102  17.573  0.00  0.00    +0.000 A 
BRANCH  27  30
ATOM     30  C   UNL     1       9.564  13.241  20.597  0.00  0.00    +0.000 C 
ATOM     31  C   UNL     1       9.437  12.941  22.109  0.00  0.00    +0.000 C 
ATOM     32  C   UNL     1      11.027  13.654  20.335  0.00  0.00    +0.000 C 
ATOM     33  C   UNL     1       8.643  14.442  20.296  0.00  0.00    +0.000 C 
ENDBRANCH  27  30
ENDBRANCH  23  24
ENDBRANCH   5  23
TORSDOF 10
ENDMDL
MODEL 2
REMARK VINA RESULT:      -7.8      3.195      6.623
REMARK  Name = 
REMARK  15 active torsions:
REMARK  status: ('A' for Active; 'I' for Inactive)
REMARK    1  A    between atoms: C_1  and  C_2
REMARK    2  A    between atoms: C_2  and  C_3
REMARK    3  A    between atoms: C_3  and  C_4
REMARK    4  A    between atoms: C_4  and  C_5
REMARK    5  A    between atoms: C_5  and  C_6
REMARK    6  A    between atoms: C_5  and  N_9
REMARK    7  A    between atoms: C_6  and  O_8
REMARK    8  A    between atoms: C_12  and  C_13
REMARK    9  A    between atoms: C_15  and  C_16
REMARK   10  A    between atoms: C_20  and  O_21
REMARK   11  A    between atoms: O_21  and  C_22
REMARK   12  A    between atoms: C_25  and  C_26
REMARK   13  A    between atoms: C_26  and  C_27
REMARK   14  A    between atoms: C_26  and  C_28
REMARK   15  A    between atoms: C_26  and  C_29
REMARK                            x       y       z     vdW  Elec       q    Type
REMARK                         _______ _______ _______ _____ _____    ______ ____
ROOT
ATOM      1  C   UNL     1       2.655   7.005  19.369  0.00  0.00    +0.000 A 
ATOM      2  C   UNL     1       2.982   7.349  18.047  0.00  0.00    +0.000 A 
ATOM      3  C   UNL     1       2.448   8.494  17.448  0.00  0.00    +0.000 A 
ATOM      4  C   UNL     1       1.571   9.312  18.159  0.00  0.00    +0.000 A 
ATOM      5  C   UNL     1       1.228   8.988  19.469  0.00  0.00    +0.000 A 
ATOM      6  C   UNL     1       1.742   7.825  20.055  0.00  0.00    +0.000 A 
ENDROOT
BRANCH   1  13
ATOM      7  N   UNL     1       4.056   4.878  19.292  0.00  0.00    +0.000 N 
ATOM      8  C   UNL     1       3.715   3.532  19.304  0.00  0.00    +0.000 C 
ATOM      9  O   UNL     1       4.427   2.646  18.851  0.00  0.00    +0.000 OA
ATOM     10  C   UNL     1       2.308   3.289  19.813  0.00  0.00    +0.000 C 
ATOM     11  C   UNL     1       1.395   3.113  18.604  0.00  0.00    +0.000 C 
ATOM     12  S   UNL     1       1.862   4.767  20.756  0.00  0.00    +0.000 S 
ATOM     13  C   UNL     1       3.197   5.777  20.063  0.00  0.00    +0.000 C 
BRANCH   7  14
ATOM     14  C   UNL     1       5.186   5.335  18.439  0.00  0.00    +0.000 C 
BRANCH  14  15
ATOM     15  C   UNL     1       5.247   4.603  17.091  0.00  0.00    +0.000 C 
ATOM     16  O   UNL     1       4.409   4.654  16.211  0.00  0.00    +0.000 OA
BRANCH  15  17
ATOM     17  O   UNL     1       6.313   3.760  17.012  0.00  0.00    +0.000 OA
ATOM     18  H   UNL     1       6.703   3.571  17.888  0.00  0.00    +0.000 HD
ENDBRANCH  15  17
ENDBRANCH  14  15
BRANCH  14  19
ATOM     19  C   UNL     1       6.497   5.338  19.246  0.00  0.00    +0.000 C 
BRANCH  19  20
ATOM     20  C   UNL     1       7.658   6.174  18.703  0.00  0.00    +0.000 C 
BRANCH  20  22
ATOM     21  C   UNL     1       8.088   8.489  17.858  0.00  0.00    +0.000 C 
ATOM     22  C   UNL     1       7.271   7.220  17.665  0.00  0.00    +0.000 C 
ENDBRANCH  20  22
ENDBRANCH  19  20
ENDBRANCH  14  19
ENDBRANCH   7  14
ENDBRANCH   1  13
BRANCH   5  23
ATOM     23  O   UNL     1       0.333   9.822  20.106  0.00  0.00    +0.000 OA
BRANCH  23  24
ATOM     24  C   UNL     1       0.492  11.184  19.974  0.00  0.00    +0.000 A 
ATOM     25  C   UNL     1       1.473  11.911  20.639  0.00  0.00    +0.000 A 
ATOM     26  C   UNL     1       1.561  13.295  20.478  0.00  0.00    +0.000 A 
ATOM     27  C   UNL     1       0.724  13.989  19.591  0.00  0.00    +0.000 A 
ATOM     28  C   UNL     1      -0.238  13.235  18.891  0.00  0.00    +0.000 A 
ATOM     29  C   UNL     1      -0.352  11.845  19.080  0.00  0.00    +0.000 A 
BRANCH  27  30
ATOM     30  C   UNL     1       0.881  15.501  19.350  0.00  0.00    +0.000 C 
ATOM     31  C   UNL     1      -0.318  16.120  18.593  0.00  0.00    +0.000 C 
ATOM     32  C   UNL     1       0.989  16.229  20.706  0.00  0.00    +0.000 C 
ATOM     33  C   UNL     1       2.144  15.803  18.518  0.00  0.00    +0.000 C 
ENDBRANCH  27  30
ENDBRANCH  23  24
ENDBRANCH   5  23
TORSDOF 10
ENDMDL
MODEL 3
REMARK VINA RESULT:      -7.7      0.292      1.201
REMARK  Name = 
REMARK  15 active torsions:
REMARK  status: ('A' for Active; 'I' for Inactive)
REMARK    1  A    between atoms: C_1  and  C_2
REMARK    2  A    between atoms: C_2  and  C_3
REMARK    3  A    between atoms: C_3  and  C_4
REMARK    4  A    between atoms: C_4  and  C_5
REMARK    5  A    between atoms: C_5  and  C_6
REMARK    6  A    between atoms: C_5  and  N_9
REMARK    7  A    between atoms: C_6  and  O_8
REMARK    8  A    between atoms: C_12  and  C_13
REMARK    9  A    between atoms: C_15  and  C_16
REMARK   10  A    between atoms: C_20  and  O_21
REMARK   11  A    between atoms: O_21  and  C_22
REMARK   12  A    between atoms: C_25  and  C_26
REMARK   13  A    between atoms: C_26  and  C_27
REMARK   14  A    between atoms: C_26  and  C_28
REMARK   15  A    between atoms: C_26  and  C_29
REMARK                            x       y       z     vdW  Elec       q    Type
REMARK                         _______ _______ _______ _____ _____    ______ ____
ROOT
ATOM      1  C   UNL     1       5.747   6.066  17.669  0.00  0.00    +0.000 A 
ATOM      2  C   UNL     1       6.299   5.428  18.792  0.00  0.00    +0.000 A 
ATOM      3  C   UNL     1       7.497   5.873  19.356  0.00  0.00    +0.000 A 
ATOM      4  C   UNL     1       8.172   6.960  18.802  0.00  0.00    +0.000 A 
ATOM      5  C   UNL     1       7.648   7.605  17.684  0.00  0.00    +0.000 A 
ATOM      6  C   UNL     1       6.462   7.138  17.105  0.00  0.00    +0.000 A 
ENDROOT
BRANCH   1  13
ATOM      7  N   UNL     1       3.231   5.691  17.808  0.00  0.00    +0.000 N 
ATOM      8  C   UNL     1       2.458   4.539  17.853  0.00  0.00    +0.000 C 
ATOM      9  O   UNL     1       1.332   4.493  18.330  0.00  0.00    +0.000 OA
ATOM     10  C   UNL     1       3.208   3.312  17.373  0.00  0.00    +0.000 C 
ATOM     11  C   UNL     1       3.710   2.559  18.601  0.00  0.00    +0.000 C 
ATOM     12  S   UNL     1       4.587   3.932  16.380  0.00  0.00    +0.000 S 
ATOM     13  C   UNL     1       4.459   5.624  17.015  0.00  0.00    +0.000 C 
BRANCH   7  14
ATOM     14  C   UNL     1       2.833   6.868  18.627  0.00  0.00    +0.000 C 
BRANCH  14  15
ATOM     15  C   UNL     1       2.365   6.480  20.037  0.00  0.00    +0.000 C 
ATOM     16  O   UNL     1       1.497   7.037  20.681  0.00  0.00    +0.000 OA
BRANCH  15  17
ATOM     17  O   UNL     1       3.123   5.485  20.574  0.00  0.00    +0.000 OA
ATOM     18  H   UNL     1       3.269   5.605  21.533  0.00  0.00    +0.000 HD
ENDBRANCH  15  17
ENDBRANCH  14  15
BRANCH  14  19
ATOM     19  C   UNL     1       1.864   7.765  17.836  0.00  0.00    +0.000 C 
BRANCH  19  20
ATOM     20  C   UNL     1       2.105   9.276  17.882  0.00  0.00    +0.000 C 
BRANCH  20  22
ATOM     21  C   UNL     1      -0.219  10.114  18.273  0.00  0.00    +0.000 C 
ATOM     22  C   UNL     1       1.196  10.047  18.830  0.00  0.00    +0.000 C 
ENDBRANCH  20  22
ENDBRANCH  19  20
ENDBRANCH  14  19
ENDBRANCH   7  14
ENDBRANCH   1  13
BRANCH   5  23
ATOM     23  O   UNL     1       8.379   8.654  17.167  0.00  0.00    +0.000 OA
BRANCH  23  24
ATOM     24  C   UNL     1       8.616   9.750  17.967  0.00  0.00    +0.000 A 
ATOM     25  C   UNL     1       8.319  11.055  17.592  0.00  0.00    +0.000 A 
ATOM     26  C   UNL     1       8.611  12.122  18.443  0.00  0.00    +0.000 A 
ATOM     27  C   UNL     1       9.137  11.917  19.727  0.00  0.00    +0.000 A 
ATOM     28  C   UNL     1       9.394  10.587  20.114  0.00  0.00    +0.000 A 
ATOM     29  C   UNL     1       9.135   9.513  19.241  0.00  0.00    +0.000 A 
BRANCH  27  30
ATOM     30  C   UNL     1       9.376  13.089  20.698  0.00  0.00    +0.000 C 
ATOM     31  C   UNL     1       8.379  14.254  20.495  0.00  0.00    +0.000 C 
ATOM     32  C   UNL     1       9.210  12.594  22.150  0.00  0.00    +0.000 C 
ATOM     33  C   UNL     1      10.794  13.671  20.526  0.00  0.00    +0.000 C 
ENDBRANCH  27  30
ENDBRANCH  23  24
ENDBRANCH   5  23
TORSDOF 10
ENDMDL
MODEL 4
REMARK VINA RESULT:      -7.6      5.612      9.322
REMARK  Name = 
REMARK  15 active torsions:
REMARK  status: ('A' for Active; 'I' for Inactive)
REMARK    1  A    between atoms: C_1  and  C_2
REMARK    2  A    between atoms: C_2  and  C_3
REMARK    3  A    between atoms: C_3  and  C_4
REMARK    4  A    between atoms: C_4  and  C_5
REMARK    5  A    between atoms: C_5  and  C_6
REMARK    6  A    between atoms: C_5  and  N_9
REMARK    7  A    between atoms: C_6  and  O_8
REMARK    8  A    between atoms: C_12  and  C_13
REMARK    9  A    between atoms: C_15  and  C_16
REMARK   10  A    between atoms: C_20  and  O_21
REMARK   11  A    between atoms: O_21  and  C_22
REMARK   12  A    between atoms: C_25  and  C_26
REMARK   13  A    between atoms: C_26  and  C_27
REMARK   14  A    between atoms: C_26  and  C_28
REMARK   15  A    between atoms: C_26  and  C_29
REMARK                            x       y       z     vdW  Elec       q    Type
REMARK                         _______ _______ _______ _____ _____    ______ ____
ROOT
ATOM      1  C   UNL     1       0.670  11.329  19.392  0.00  0.00    +0.000 A 
ATOM      2  C   UNL     1      -0.500  11.118  18.644  0.00  0.00    +0.000 A 
ATOM      3  C   UNL     1      -0.586  10.070  17.723  0.00  0.00    +0.000 A 
ATOM      4  C   UNL     1       0.500   9.219  17.526  0.00  0.00    +0.000 A 
ATOM      5  C   UNL     1       1.673   9.412  18.251  0.00  0.00    +0.000 A 
ATOM      6  C   UNL     1       1.766  10.480  19.152  0.00  0.00    +0.000 A 
ENDROOT
BRANCH   1  13
ATOM      7  N   UNL     1      -0.396  13.016  20.975  0.00  0.00    +0.000 N 
ATOM      8  C   UNL     1      -0.521  14.397  20.924  0.00  0.00    +0.000 C 
ATOM      9  O   UNL     1      -1.392  15.024  21.512  0.00  0.00    +0.000 OA
ATOM     10  C   UNL     1       0.452  15.038  19.955  0.00  0.00    +0.000 C 
ATOM     11  C   UNL     1      -0.293  15.309  18.652  0.00  0.00    +0.000 C 
ATOM     12  S   UNL     1       1.774  13.827  19.709  0.00  0.00    +0.000 S 
ATOM     13  C   UNL     1       0.822  12.447  20.396  0.00  0.00    +0.000 C 
BRANCH   7  14
ATOM     14  C   UNL     1      -1.521  12.202  21.511  0.00  0.00    +0.000 C 
BRANCH  14  15
ATOM     15  C   UNL     1      -2.895  12.811  21.202  0.00  0.00    +0.000 C 
ATOM     16  O   UNL     1      -3.401  12.912  20.100  0.00  0.00    +0.000 OA
BRANCH  15  17
ATOM     17  O   UNL     1      -3.474  13.361  22.304  0.00  0.00    +0.000 OA
ATOM     18  H   UNL     1      -3.751  12.686  22.955  0.00  0.00    +0.000 HD
ENDBRANCH  15  17
ENDBRANCH  14  15
BRANCH  14  19
ATOM     19  C   UNL     1      -1.272  11.857  22.991  0.00  0.00    +0.000 C 
BRANCH  19  20
ATOM     20  C   UNL     1      -1.084  10.381  23.349  0.00  0.00    +0.000 C 
BRANCH  20  22
ATOM     21  C   UNL     1      -0.367   8.631  21.713  0.00  0.00    +0.000 C 
ATOM     22  C   UNL     1       0.106   9.702  22.685  0.00  0.00    +0.000 C 
ENDBRANCH  20  22
ENDBRANCH  19  20
ENDBRANCH  14  19
ENDBRANCH   7  14
ENDBRANCH   1  13
BRANCH   5  23
ATOM     23  O   UNL     1       2.721   8.554  17.987  0.00  0.00    +0.000 OA
BRANCH  23  24
ATOM     24  C   UNL     1       2.639   7.255  18.440  0.00  0.00    +0.000 A 
ATOM     25  C   UNL     1       3.012   6.151  17.682  0.00  0.00    +0.000 A 
ATOM     26  C   UNL     1       2.878   4.861  18.195  0.00  0.00    +0.000 A 
ATOM     27  C   UNL     1       2.439   4.631  19.508  0.00  0.00    +0.000 A 
ATOM     28  C   UNL     1       2.104   5.760  20.281  0.00  0.00    +0.000 A 
ATOM     29  C   UNL     1       2.204   7.060  19.752  0.00  0.00    +0.000 A 
BRANCH  27  30
ATOM     30  C   UNL     1       2.375   3.211  20.101  0.00  0.00    +0.000 C 
ATOM     31  C   UNL     1       2.126   3.205  21.627  0.00  0.00    +0.000 C 
ATOM     32  C   UNL     1       1.215   2.433  19.446  0.00  0.00    +0.000 C 
ATOM     33  C   UNL     1       3.692   2.447  19.855  0.00  0.00    +0.000 C 
ENDBRANCH  27  30
ENDBRANCH  23  24
ENDBRANCH   5  23
TORSDOF 10
ENDMDL
MODEL 5
REMARK VINA RESULT:      -7.5      3.328      8.325
REMARK  Name = 
REMARK  15 active torsions:
REMARK  status: ('A' for Active; 'I' for Inactive)
REMARK    1  A    between atoms: C_1  and  C_2
REMARK    2  A    between atoms: C_2  and  C_3
REMARK    3  A    between atoms: C_3  and  C_4
REMARK    4  A    between atoms: C_4  and  C_5
REMARK    5  A    between atoms: C_5  and  C_6
REMARK    6  A    between atoms: C_5  and  N_9
REMARK    7  A    between atoms: C_6  and  O_8
REMARK    8  A    between atoms: C_12  and  C_13
REMARK    9  A    between atoms: C_15  and  C_16
REMARK   10  A    between atoms: C_20  and  O_21
REMARK   11  A    between atoms: O_21  and  C_22
REMARK   12  A    between atoms: C_25  and  C_26
REMARK   13  A    between atoms: C_26  and  C_27
REMARK   14  A    between atoms: C_26  and  C_28
REMARK   15  A    between atoms: C_26  and  C_29
REMARK                            x       y       z     vdW  Elec       q    Type
REMARK                         _______ _______ _______ _____ _____    ______ ____
ROOT
ATOM      1  C   UNL     1       2.704   6.983  19.269  0.00  0.00    +0.000 A 
ATOM      2  C   UNL     1       2.944   7.212  17.905  0.00  0.00    +0.000 A 
ATOM      3  C   UNL     1       2.469   8.365  17.274  0.00  0.00    +0.000 A 
ATOM      4  C   UNL     1       1.738   9.308  17.995  0.00  0.00    +0.000 A 
ATOM      5  C   UNL     1       1.482   9.100  19.348  0.00  0.00    +0.000 A 
ATOM      6  C   UNL     1       1.935   7.929  19.969  0.00  0.00    +0.000 A 
ENDROOT
BRANCH   1  13
ATOM      7  N   UNL     1       3.927   4.747  19.235  0.00  0.00    +0.000 N 
ATOM      8  C   UNL     1       3.482   3.437  19.341  0.00  0.00    +0.000 C 
ATOM      9  O   UNL     1       4.095   2.473  18.900  0.00  0.00    +0.000 OA
ATOM     10  C   UNL     1       2.093   3.336  19.939  0.00  0.00    +0.000 C 
ATOM     11  C   UNL     1       1.100   3.173  18.793  0.00  0.00    +0.000 C 
ATOM     12  S   UNL     1       1.821   4.892  20.821  0.00  0.00    +0.000 S 
ATOM     13  C   UNL     1       3.188   5.752  20.001  0.00  0.00    +0.000 C 
BRANCH   7  14
ATOM     14  C   UNL     1       5.037   5.067  18.298  0.00  0.00    +0.000 C 
BRANCH  14  15
ATOM     15  C   UNL     1       4.906   4.340  16.952  0.00  0.00    +0.000 C 
ATOM     16  O   UNL     1       3.942   4.376  16.211  0.00  0.00    +0.000 OA
BRANCH  15  17
ATOM     17  O   UNL     1       5.964   3.519  16.706  0.00  0.00    +0.000 OA
ATOM     18  H   UNL     1       5.930   3.127  15.812  0.00  0.00    +0.000 HD
ENDBRANCH  15  17
ENDBRANCH  14  15
BRANCH  14  19
ATOM     19  C   UNL     1       6.395   4.905  19.003  0.00  0.00    +0.000 C 
BRANCH  19  20
ATOM     20  C   UNL     1       7.351   6.100  18.978  0.00  0.00    +0.000 C 
BRANCH  20  22
ATOM     21  C   UNL     1       8.014   8.243  17.872  0.00  0.00    +0.000 C 
ATOM     22  C   UNL     1       7.382   6.874  17.666  0.00  0.00    +0.000 C 
ENDBRANCH  20  22
ENDBRANCH  19  20
ENDBRANCH  14  19
ENDBRANCH   7  14
ENDBRANCH   1  13
BRANCH   5  23
ATOM     23  O   UNL     1       0.728  10.056  19.997  0.00  0.00    +0.000 OA
BRANCH  23  24
ATOM     24  C   UNL     1      -0.514  10.370  19.490  0.00  0.00    +0.000 A 
ATOM     25  C   UNL     1      -1.132   9.656  18.470  0.00  0.00    +0.000 A 
ATOM     26  C   UNL     1      -2.382  10.046  17.988  0.00  0.00    +0.000 A 
ATOM     27  C   UNL     1      -3.091  11.114  18.557  0.00  0.00    +0.000 A 
ATOM     28  C   UNL     1      -2.474  11.804  19.618  0.00  0.00    +0.000 A 
ATOM     29  C   UNL     1      -1.196  11.434  20.082  0.00  0.00    +0.000 A 
BRANCH  27  30
ATOM     30  C   UNL     1      -4.507  11.488  18.080  0.00  0.00    +0.000 C 
ATOM     31  C   UNL     1      -5.562  10.408  18.417  0.00  0.00    +0.000 C 
ATOM     32  C   UNL     1      -4.953  12.793  18.771  0.00  0.00    +0.000 C 
ATOM     33  C   UNL     1      -4.543  11.693  16.552  0.00  0.00    +0.000 C 
ENDBRANCH  27  30
ENDBRANCH  23  24
ENDBRANCH   5  23
TORSDOF 10
ENDMDL
MODEL 6
REMARK VINA RESULT:      -7.4      3.903      8.239
REMARK  Name = 
REMARK  15 active torsions:
REMARK  status: ('A' for Active; 'I' for Inactive)
REMARK    1  A    between atoms: C_1  and  C_2
REMARK    2  A    between atoms: C_2  and  C_3
REMARK    3  A    between atoms: C_3  and  C_4
REMARK    4  A    between atoms: C_4  and  C_5
REMARK    5  A    between atoms: C_5  and  C_6
REMARK    6  A    between atoms: C_5  and  N_9
REMARK    7  A    between atoms: C_6  and  O_8
REMARK    8  A    between atoms: C_12  and  C_13
REMARK    9  A    between atoms: C_15  and  C_16
REMARK   10  A    between atoms: C_20  and  O_21
REMARK   11  A    between atoms: O_21  and  C_22
REMARK   12  A    between atoms: C_25  and  C_26
REMARK   13  A    between atoms: C_26  and  C_27
REMARK   14  A    between atoms: C_26  and  C_28
REMARK   15  A    between atoms: C_26  and  C_29
REMARK                            x       y       z     vdW  Elec       q    Type
REMARK                         _______ _______ _______ _____ _____    ______ ____
ROOT
ATOM      1  C   UNL     1       2.814   7.021  18.207  0.00  0.00    +0.000 A 
ATOM      2  C   UNL     1       2.589   6.558  19.513  0.00  0.00    +0.000 A 
ATOM      3  C   UNL     1       1.910   7.343  20.449  0.00  0.00    +0.000 A 
ATOM      4  C   UNL     1       1.450   8.611  20.098  0.00  0.00    +0.000 A 
ATOM      5  C   UNL     1       1.667   9.095  18.810  0.00  0.00    +0.000 A 
ATOM      6  C   UNL     1       2.373   8.317  17.884  0.00  0.00    +0.000 A 
ENDROOT
BRANCH   1  13
ATOM      7  N   UNL     1       4.333   5.068  17.601  0.00  0.00    +0.000 N 
ATOM      8  C   UNL     1       5.648   5.007  17.160  0.00  0.00    +0.000 C 
ATOM      9  O   UNL     1       6.370   4.030  17.306  0.00  0.00    +0.000 OA
ATOM     10  C   UNL     1       6.139   6.327  16.599  0.00  0.00    +0.000 C 
ATOM     11  C   UNL     1       6.943   7.030  17.688  0.00  0.00    +0.000 C 
ATOM     12  S   UNL     1       4.653   7.268  16.177  0.00  0.00    +0.000 S 
ATOM     13  C   UNL     1       3.547   6.219  17.157  0.00  0.00    +0.000 C 
BRANCH   7  14
ATOM     14  C   UNL     1       3.837   4.040  18.556  0.00  0.00    +0.000 C 
BRANCH  14  15
ATOM     15  C   UNL     1       4.918   3.576  19.543  0.00  0.00    +0.000 C 
ATOM     16  O   UNL     1       5.047   2.449  19.984  0.00  0.00    +0.000 OA
BRANCH  15  17
ATOM     17  O   UNL     1       5.680   4.609  19.994  0.00  0.00    +0.000 OA
ATOM     18  H   UNL     1       5.610   5.400  19.424  0.00  0.00    +0.000 HD
ENDBRANCH  15  17
ENDBRANCH  14  15
BRANCH  14  19
ATOM     19  C   UNL     1       3.110   2.915  17.800  0.00  0.00    +0.000 C 
BRANCH  19  20
ATOM     20  C   UNL     1       1.642   2.661  18.152  0.00  0.00    +0.000 C 
BRANCH  20  22
ATOM     21  C   UNL     1       0.912   3.458  20.408  0.00  0.00    +0.000 C 
ATOM     22  C   UNL     1       1.386   2.259  19.599  0.00  0.00    +0.000 C 
ENDBRANCH  20  22
ENDBRANCH  19  20
ENDBRANCH  14  19
ENDBRANCH   7  14
ENDBRANCH   1  13
BRANCH   5  23
ATOM     23  O   UNL     1       1.213  10.369  18.535  0.00  0.00    +0.000 OA
BRANCH  23  24
ATOM     24  C   UNL     1      -0.144  10.572  18.407  0.00  0.00    +0.000 A 
ATOM     25  C   UNL     1      -0.954   9.835  17.551  0.00  0.00    +0.000 A 
ATOM     26  C   UNL     1      -2.318  10.112  17.452  0.00  0.00    +0.000 A 
ATOM     27  C   UNL     1      -2.934  11.080  18.259  0.00  0.00    +0.000 A 
ATOM     28  C   UNL     1      -2.111  11.791  19.154  0.00  0.00    +0.000 A 
ATOM     29  C   UNL     1      -0.728  11.538  19.228  0.00  0.00    +0.000 A 
BRANCH  27  30
ATOM     30  C   UNL     1      -4.454  11.323  18.211  0.00  0.00    +0.000 C 
ATOM     31  C   UNL     1      -4.934  12.355  19.258  0.00  0.00    +0.000 C 
ATOM     32  C   UNL     1      -4.843  11.868  16.820  0.00  0.00    +0.000 C 
ATOM     33  C   UNL     1      -5.233  10.018  18.472  0.00  0.00    +0.000 C 
ENDBRANCH  27  30
ENDBRANCH  23  24
ENDBRANCH   5  23
TORSDOF 10
ENDMDL
MODEL 7
REMARK VINA RESULT:      -7.4      3.926      6.744
REMARK  Name = 
REMARK  15 active torsions:
REMARK  status: ('A' for Active; 'I' for Inactive)
REMARK    1  A    between atoms: C_1  and  C_2
REMARK    2  A    between atoms: C_2  and  C_3
REMARK    3  A    between atoms: C_3  and  C_4
REMARK    4  A    between atoms: C_4  and  C_5
REMARK    5  A    between atoms: C_5  and  C_6
REMARK    6  A    between atoms: C_5  and  N_9
REMARK    7  A    between atoms: C_6  and  O_8
REMARK    8  A    between atoms: C_12  and  C_13
REMARK    9  A    between atoms: C_15  and  C_16
REMARK   10  A    between atoms: C_20  and  O_21
REMARK   11  A    between atoms: O_21  and  C_22
REMARK   12  A    between atoms: C_25  and  C_26
REMARK   13  A    between atoms: C_26  and  C_27
REMARK   14  A    between atoms: C_26  and  C_28
REMARK   15  A    between atoms: C_26  and  C_29
REMARK                            x       y       z     vdW  Elec       q    Type
REMARK                         _______ _______ _______ _____ _____    ______ ____
ROOT
ATOM      1  C   UNL     1       4.239   6.969  17.775  0.00  0.00    +0.000 A 
ATOM      2  C   UNL     1       3.955   6.250  18.947  0.00  0.00    +0.000 A 
ATOM      3  C   UNL     1       2.759   6.451  19.643  0.00  0.00    +0.000 A 
ATOM      4  C   UNL     1       1.828   7.381  19.183  0.00  0.00    +0.000 A 
ATOM      5  C   UNL     1       2.090   8.110  18.025  0.00  0.00    +0.000 A 
ATOM      6  C   UNL     1       3.302   7.927  17.348  0.00  0.00    +0.000 A 
ENDROOT
BRANCH   1  13
ATOM      7  N   UNL     1       6.005   5.436  16.763  0.00  0.00    +0.000 N 
ATOM      8  C   UNL     1       7.330   5.190  17.094  0.00  0.00    +0.000 C 
ATOM      9  O   UNL     1       7.923   4.159  16.808  0.00  0.00    +0.000 OA
ATOM     10  C   UNL     1       7.928   6.277  17.965  0.00  0.00    +0.000 C 
ATOM     11  C   UNL     1       7.881   5.798  19.412  0.00  0.00    +0.000 C 
ATOM     12  S   UNL     1       6.880   7.733  17.727  0.00  0.00    +0.000 S 
ATOM     13  C   UNL     1       5.516   6.797  16.987  0.00  0.00    +0.000 C 
BRANCH   7  14
ATOM     14  C   UNL     1       5.147   4.309  16.306  0.00  0.00    +0.000 C 
BRANCH  14  15
ATOM     15  C   UNL     1       4.728   3.379  17.453  0.00  0.00    +0.000 C 
ATOM     16  O   UNL     1       3.689   2.749  17.519  0.00  0.00    +0.000 OA
BRANCH  15  17
ATOM     17  O   UNL     1       5.607   3.415  18.492  0.00  0.00    +0.000 OA
ATOM     18  H   UNL     1       6.465   3.810  18.239  0.00  0.00    +0.000 HD
ENDBRANCH  15  17
ENDBRANCH  14  15
BRANCH  14  19
ATOM     19  C   UNL     1       5.785   3.611  15.092  0.00  0.00    +0.000 C 
BRANCH  19  20
ATOM     20  C   UNL     1       5.530   4.220  13.712  0.00  0.00    +0.000 C 
BRANCH  20  22
ATOM     21  C   UNL     1       4.648   3.221  11.596  0.00  0.00    +0.000 C 
ATOM     22  C   UNL     1       5.842   3.306  12.534  0.00  0.00    +0.000 C 
ENDBRANCH  20  22
ENDBRANCH  19  20
ENDBRANCH  14  19
ENDBRANCH   7  14
ENDBRANCH   1  13
BRANCH   5  23
ATOM     23  O   UNL     1       1.142   9.035  17.641  0.00  0.00    +0.000 OA
BRANCH  23  24
ATOM     24  C   UNL     1       1.127  10.262  18.266  0.00  0.00    +0.000 A 
ATOM     25  C   UNL     1       2.106  11.232  18.081  0.00  0.00    +0.000 A 
ATOM     26  C   UNL     1       2.041  12.445  18.768  0.00  0.00    +0.000 A 
ATOM     27  C   UNL     1       0.959  12.762  19.603  0.00  0.00    +0.000 A 
ATOM     28  C   UNL     1      -0.049  11.790  19.749  0.00  0.00    +0.000 A 
ATOM     29  C   UNL     1       0.034  10.551  19.085  0.00  0.00    +0.000 A 
BRANCH  27  30
ATOM     30  C   UNL     1       0.847  14.136  20.290  0.00  0.00    +0.000 C 
ATOM     31  C   UNL     1       0.406  14.036  21.770  0.00  0.00    +0.000 C 
ATOM     32  C   UNL     1       2.222  14.835  20.269  0.00  0.00    +0.000 C 
ATOM     33  C   UNL     1      -0.182  15.033  19.572  0.00  0.00    +0.000 C 
ENDBRANCH  27  30
ENDBRANCH  23  24
ENDBRANCH   5  23
TORSDOF 10
ENDMDL
MODEL 8
REMARK VINA RESULT:      -7.4      3.820      8.114
REMARK  Name = 
REMARK  15 active torsions:
REMARK  status: ('A' for Active; 'I' for Inactive)
REMARK    1  A    between atoms: C_1  and  C_2
REMARK    2  A    between atoms: C_2  and  C_3
REMARK    3  A    between atoms: C_3  and  C_4
REMARK    4  A    between atoms: C_4  and  C_5
REMARK    5  A    between atoms: C_5  and  C_6
REMARK    6  A    between atoms: C_5  and  N_9
REMARK    7  A    between atoms: C_6  and  O_8
REMARK    8  A    between atoms: C_12  and  C_13
REMARK    9  A    between atoms: C_15  and  C_16
REMARK   10  A    between atoms: C_20  and  O_21
REMARK   11  A    between atoms: O_21  and  C_22
REMARK   12  A    between atoms: C_25  and  C_26
REMARK   13  A    between atoms: C_26  and  C_27
REMARK   14  A    between atoms: C_26  and  C_28
REMARK   15  A    between atoms: C_26  and  C_29
REMARK                            x       y       z     vdW  Elec       q    Type
REMARK                         _______ _______ _______ _____ _____    ______ ____
ROOT
ATOM      1  C   UNL     1       3.115   6.888  18.138  0.00  0.00    +0.000 A 
ATOM      2  C   UNL     1       2.772   6.335  19.382  0.00  0.00    +0.000 A 
ATOM      3  C   UNL     1       2.014   7.058  20.307  0.00  0.00    +0.000 A 
ATOM      4  C   UNL     1       1.592   8.353  20.008  0.00  0.00    +0.000 A 
ATOM      5  C   UNL     1       1.926   8.925  18.782  0.00  0.00    +0.000 A 
ATOM      6  C   UNL     1       2.710   8.208  17.870  0.00  0.00    +0.000 A 
ENDROOT
BRANCH   1  13
ATOM      7  N   UNL     1       4.714   4.995  17.542  0.00  0.00    +0.000 N 
ATOM      8  C   UNL     1       6.057   4.980  17.193  0.00  0.00    +0.000 C 
ATOM      9  O   UNL     1       6.788   4.010  17.340  0.00  0.00    +0.000 OA
ATOM     10  C   UNL     1       6.558   6.336  16.737  0.00  0.00    +0.000 C 
ATOM     11  C   UNL     1       7.269   6.995  17.915  0.00  0.00    +0.000 C 
ATOM     12  S   UNL     1       5.086   7.272  16.259  0.00  0.00    +0.000 S 
ATOM     13  C   UNL     1       3.936   6.154  17.103  0.00  0.00    +0.000 C 
BRANCH   7  14
ATOM     14  C   UNL     1       4.174   3.911  18.406  0.00  0.00    +0.000 C 
BRANCH  14  15
ATOM     15  C   UNL     1       5.129   3.527  19.545  0.00  0.00    +0.000 C 
ATOM     16  O   UNL     1       5.164   2.455  20.119  0.00  0.00    +0.000 OA
BRANCH  15  17
ATOM     17  O   UNL     1       5.887   4.581  19.956  0.00  0.00    +0.000 OA
ATOM     18  H   UNL     1       6.567   4.828  19.299  0.00  0.00    +0.000 HD
ENDBRANCH  15  17
ENDBRANCH  14  15
BRANCH  14  19
ATOM     19  C   UNL     1       3.676   2.738  17.542  0.00  0.00    +0.000 C 
BRANCH  19  20
ATOM     20  C   UNL     1       2.244   2.250  17.772  0.00  0.00    +0.000 C 
BRANCH  20  22
ATOM     21  C   UNL     1       0.693   2.847  19.641  0.00  0.00    +0.000 C 
ATOM     22  C   UNL     1       1.283   3.300  18.314  0.00  0.00    +0.000 C 
ENDBRANCH  20  22
ENDBRANCH  19  20
ENDBRANCH  14  19
ENDBRANCH   7  14
ENDBRANCH   1  13
BRANCH   5  23
ATOM     23  O   UNL     1       1.504  10.220  18.560  0.00  0.00    +0.000 OA
BRANCH  23  24
ATOM     24  C   UNL     1       0.150  10.472  18.508  0.00  0.00    +0.000 A 
ATOM     25  C   UNL     1      -0.490  11.404  19.316  0.00  0.00    +0.000 A 
ATOM     26  C   UNL     1      -1.870  11.590  19.228  0.00  0.00    +0.000 A 
ATOM     27  C   UNL     1      -2.646  10.908  18.279  0.00  0.00    +0.000 A 
ATOM     28  C   UNL     1      -1.980   9.997  17.436  0.00  0.00    +0.000 A 
ATOM     29  C   UNL     1      -0.593   9.781  17.549  0.00  0.00    +0.000 A 
BRANCH  27  30
ATOM     30  C   UNL     1      -4.154  11.178  18.124  0.00  0.00    +0.000 C 
ATOM     31  C   UNL     1      -4.536  11.685  16.713  0.00  0.00    +0.000 C 
ATOM     32  C   UNL     1      -4.938   9.872  18.367  0.00  0.00    +0.000 C 
ATOM     33  C   UNL     1      -4.633  12.244  19.131  0.00  0.00    +0.000 C 
ENDBRANCH  27  30
ENDBRANCH  23  24
ENDBRANCH   5  23
TORSDOF 10
ENDMDL
MODEL 9
REMARK VINA RESULT:      -7.3      3.366      6.779
REMARK  Name = 
REMARK  15 active torsions:
REMARK  status: ('A' for Active; 'I' for Inactive)
REMARK    1  A    between atoms: C_1  and  C_2
REMARK    2  A    between atoms: C_2  and  C_3
REMARK    3  A    between atoms: C_3  and  C_4
REMARK    4  A    between atoms: C_4  and  C_5
REMARK    5  A    between atoms: C_5  and  C_6
REMARK    6  A    between atoms: C_5  and  N_9
REMARK    7  A    between atoms: C_6  and  O_8
REMARK    8  A    between atoms: C_12  and  C_13
REMARK    9  A    between atoms: C_15  and  C_16
REMARK   10  A    between atoms: C_20  and  O_21
REMARK   11  A    between atoms: O_21  and  C_22
REMARK   12  A    between atoms: C_25  and  C_26
REMARK   13  A    between atoms: C_26  and  C_27
REMARK   14  A    between atoms: C_26  and  C_28
REMARK   15  A    between atoms: C_26  and  C_29
REMARK                            x       y       z     vdW  Elec       q    Type
REMARK                         _______ _______ _______ _____ _____    ______ ____
ROOT
ATOM      1  C   UNL     1       2.292   7.243  19.455  0.00  0.00    +0.000 A 
ATOM      2  C   UNL     1       2.346   7.519  18.080  0.00  0.00    +0.000 A 
ATOM      3  C   UNL     1       1.789   8.690  17.558  0.00  0.00    +0.000 A 
ATOM      4  C   UNL     1       1.160   9.604  18.402  0.00  0.00    +0.000 A 
ATOM      5  C   UNL     1       1.088   9.349  19.770  0.00  0.00    +0.000 A 
ATOM      6  C   UNL     1       1.622   8.161  20.284  0.00  0.00    +0.000 A 
ENDROOT
BRANCH   1  13
ATOM      7  N   UNL     1       3.802   5.200  19.269  0.00  0.00    +0.000 N 
ATOM      8  C   UNL     1       3.531   3.843  19.162  0.00  0.00    +0.000 C 
ATOM      9  O   UNL     1       4.304   3.031  18.670  0.00  0.00    +0.000 OA
ATOM     10  C   UNL     1       2.122   3.492  19.595  0.00  0.00    +0.000 C 
ATOM     11  C   UNL     1       1.263   3.369  18.340  0.00  0.00    +0.000 C 
ATOM     12  S   UNL     1       1.566   4.866  20.631  0.00  0.00    +0.000 S 
ATOM     13  C   UNL     1       2.871   5.992  20.073  0.00  0.00    +0.000 C 
BRANCH   7  14
ATOM     14  C   UNL     1       4.937   5.778  18.500  0.00  0.00    +0.000 C 
BRANCH  14  15
ATOM     15  C   UNL     1       4.790   5.580  16.985  0.00  0.00    +0.000 C 
ATOM     16  O   UNL     1       4.733   4.512  16.406  0.00  0.00    +0.000 OA
BRANCH  15  17
ATOM     17  O   UNL     1       4.852   6.757  16.304  0.00  0.00    +0.000 OA
ATOM     18  H   UNL     1       4.085   6.886  15.712  0.00  0.00    +0.000 HD
ENDBRANCH  15  17
ENDBRANCH  14  15
BRANCH  14  19
ATOM     19  C   UNL     1       6.278   5.316  19.097  0.00  0.00    +0.000 C 
BRANCH  19  20
ATOM     20  C   UNL     1       7.552   5.650  18.316  0.00  0.00    +0.000 C 
BRANCH  20  22
ATOM     21  C   UNL     1       7.788   8.031  17.591  0.00  0.00    +0.000 C 
ATOM     22  C   UNL     1       8.173   7.002  18.642  0.00  0.00    +0.000 C 
ENDBRANCH  20  22
ENDBRANCH  19  20
ENDBRANCH  14  19
ENDBRANCH   7  14
ENDBRANCH   1  13
BRANCH   5  23
ATOM     23  O   UNL     1       0.426  10.278  20.546  0.00  0.00    +0.000 OA
BRANCH  23  24
ATOM     24  C   UNL     1       0.505  11.607  20.193  0.00  0.00    +0.000 A 
ATOM     25  C   UNL     1      -0.464  12.261  19.440  0.00  0.00    +0.000 A 
ATOM     26  C   UNL     1      -0.308  13.605  19.097  0.00  0.00    +0.000 A 
ATOM     27  C   UNL     1       0.781  14.361  19.555  0.00  0.00    +0.000 A 
ATOM     28  C   UNL     1       1.735  13.698  20.353  0.00  0.00    +0.000 A 
ATOM     29  C   UNL     1       1.597  12.333  20.669  0.00  0.00    +0.000 A 
BRANCH  27  30
ATOM     30  C   UNL     1       0.907  15.864  19.248  0.00  0.00    +0.000 C 
ATOM     31  C   UNL     1       2.098  16.193  18.318  0.00  0.00    +0.000 C 
ATOM     32  C   UNL     1      -0.374  16.352  18.539  0.00  0.00    +0.000 C 
ATOM     33  C   UNL     1       1.105  16.681  20.541  0.00  0.00    +0.000 C 
ENDBRANCH  27  30
ENDBRANCH  23  24
ENDBRANCH   5  23
TORSDOF 10
ENDMDL
