MODEL 1
REMARK VINA RESULT:      -7.4      0.000      0.000
REMARK  Name = 
REMARK  3 active torsions:
REMARK  status: ('A' for Active; 'I' for Inactive)
REMARK    1  A    between atoms: C_1  and  C_2
REMARK    2  A    between atoms: C_8  and  N_9
REMARK    3  A    between atoms: C_10  and  C_11
REMARK                            x       y       z     vdW  Elec       q    Type
REMARK                         _______ _______ _______ _____ _____    ______ ____
ROOT
ATOM      1  N   UNL     1       5.496   5.046  16.739  0.00  0.00    +0.000 N 
ATOM      2  C   UNL     1       6.729   5.685  16.692  0.00  0.00    +0.000 A 
ATOM      3  N   UNL     1       7.470   5.729  15.626  0.00  0.00    +0.000 NA
ATOM      4  C   UNL     1       7.035   5.061  14.477  0.00  0.00    +0.000 A 
ATOM      5  C   UNL     1       7.851   5.081  13.342  0.00  0.00    +0.000 A 
ATOM      6  C   UNL     1       7.486   4.378  12.192  0.00  0.00    +0.000 A 
ATOM      7  C   UNL     1       6.295   3.653  12.164  0.00  0.00    +0.000 A 
ATOM      8  C   UNL     1       5.465   3.641  13.283  0.00  0.00    +0.000 A 
ATOM      9  C   UNL     1       5.841   4.348  14.433  0.00  0.00    +0.000 A 
ATOM     10  C   UNL     1       4.996   4.344  15.640  0.00  0.00    +0.000 A 
ATOM     11  O   UNL     1       3.929   3.732  15.618  0.00  0.00    +0.000 OA
ENDROOT
BRANCH   1  19
ATOM     12  C   UNL     1       3.697   7.236  17.410  0.00  0.00    +0.000 C 
ATOM     13  C   UNL     1       3.856   6.036  18.308  0.00  0.00    +0.000 A 
ATOM     14  C   UNL     1       3.149   5.906  19.518  0.00  0.00    +0.000 A 
ATOM     15 CL   UNL     1       2.097   7.139  20.117  0.00  0.00    +0.000 Cl
ATOM     16  C   UNL     1       3.279   4.755  20.307  0.00  0.00    +0.000 A 
ATOM     17  C   UNL     1       4.115   3.717  19.909  0.00  0.00    +0.000 A 
ATOM     18  C   UNL     1       4.847   3.837  18.733  0.00  0.00    +0.000 A 
ATOM     19  C   UNL     1       4.735   4.990  17.942  0.00  0.00    +0.000 A 
ENDBRANCH   1  19
BRANCH   2  20
ATOM     20  C   UNL     1       7.255   6.379  17.939  0.00  0.00    +0.000 C 
ATOM     21  F   UNL     1       7.893   7.547  17.647  0.00  0.00    +0.000 F 
ENDBRANCH   2  20
TORSDOF 2
ENDMDL
MODEL 2
REMARK VINA RESULT:      -7.3      0.994      1.080
REMARK  Name = 
REMARK  3 active torsions:
REMARK  status: ('A' for Active; 'I' for Inactive)
REMARK    1  A    between atoms: C_1  and  C_2
REMARK    2  A    between atoms: C_8  and  N_9
REMARK    3  A    between atoms: C_10  and  C_11
REMARK                            x       y       z     vdW  Elec       q    Type
REMARK                         _______ _______ _______ _____ _____    ______ ____
ROOT
ATOM      1  N   UNL     1       5.215   4.609  17.527  0.00  0.00    +0.000 N 
ATOM      2  C   UNL     1       6.472   5.186  17.666  0.00  0.00    +0.000 A 
ATOM      3  N   UNL     1       7.281   5.380  16.669  0.00  0.00    +0.000 NA
ATOM      4  C   UNL     1       6.898   4.946  15.396  0.00  0.00    +0.000 A 
ATOM      5  C   UNL     1       7.786   5.124  14.332  0.00  0.00    +0.000 A 
ATOM      6  C   UNL     1       7.471   4.653  13.055  0.00  0.00    +0.000 A 
ATOM      7  C   UNL     1       6.259   4.002  12.830  0.00  0.00    +0.000 A 
ATOM      8  C   UNL     1       5.357   3.835  13.880  0.00  0.00    +0.000 A 
ATOM      9  C   UNL     1       5.684   4.310  15.157  0.00  0.00    +0.000 A 
ATOM     10  C   UNL     1       4.761   4.135  16.293  0.00  0.00    +0.000 A 
ATOM     11  O   UNL     1       3.676   3.589  16.101  0.00  0.00    +0.000 OA
ENDROOT
BRANCH   1  19
ATOM     12  C   UNL     1       3.260   6.624  18.301  0.00  0.00    +0.000 C 
ATOM     13  C   UNL     1       3.419   5.337  19.068  0.00  0.00    +0.000 A 
ATOM     14  C   UNL     1       2.637   5.035  20.198  0.00  0.00    +0.000 A 
ATOM     15 CL   UNL     1       1.481   6.143  20.851  0.00  0.00    +0.000 Cl
ATOM     16  C   UNL     1       2.771   3.808  20.861  0.00  0.00    +0.000 A 
ATOM     17  C   UNL     1       3.687   2.860  20.413  0.00  0.00    +0.000 A 
ATOM     18  C   UNL     1       4.492   3.149  19.317  0.00  0.00    +0.000 A 
ATOM     19  C   UNL     1       4.375   4.380  18.654  0.00  0.00    +0.000 A 
ENDBRANCH   1  19
BRANCH   2  20
ATOM     20  C   UNL     1       6.940   5.624  19.044  0.00  0.00    +0.000 C 
ATOM     21  F   UNL     1       8.143   6.262  18.999  0.00  0.00    +0.000 F 
ENDBRANCH   2  20
TORSDOF 2
ENDMDL
MODEL 3
REMARK VINA RESULT:      -6.7      3.081      6.300
REMARK  Name = 
REMARK  3 active torsions:
REMARK  status: ('A' for Active; 'I' for Inactive)
REMARK    1  A    between atoms: C_1  and  C_2
REMARK    2  A    between atoms: C_8  and  N_9
REMARK    3  A    between atoms: C_10  and  C_11
REMARK                            x       y       z     vdW  Elec       q    Type
REMARK                         _______ _______ _______ _____ _____    ______ ____
ROOT
ATOM      1  N   UNL     1       4.398   5.283  18.545  0.00  0.00    +0.000 N 
ATOM      2  C   UNL     1       3.208   6.000  18.528  0.00  0.00    +0.000 A 
ATOM      3  N   UNL     1       2.168   5.675  19.235  0.00  0.00    +0.000 NA
ATOM      4  C   UNL     1       2.223   4.518  20.019  0.00  0.00    +0.000 A 
ATOM      5  C   UNL     1       1.091   4.152  20.752  0.00  0.00    +0.000 A 
ATOM      6  C   UNL     1       1.079   2.973  21.501  0.00  0.00    +0.000 A 
ATOM      7  C   UNL     1       2.205   2.152  21.530  0.00  0.00    +0.000 A 
ATOM      8  C   UNL     1       3.347   2.517  20.819  0.00  0.00    +0.000 A 
ATOM      9  C   UNL     1       3.347   3.700  20.068  0.00  0.00    +0.000 A 
ATOM     10  C   UNL     1       4.531   4.108  19.291  0.00  0.00    +0.000 A 
ATOM     11  O   UNL     1       5.541   3.408  19.331  0.00  0.00    +0.000 OA
ENDROOT
BRANCH   1  19
ATOM     12  C   UNL     1       4.665   4.129  15.884  0.00  0.00    +0.000 C 
ATOM     13  C   UNL     1       5.671   5.110  16.428  0.00  0.00    +0.000 A 
ATOM     14  C   UNL     1       6.793   5.524  15.687  0.00  0.00    +0.000 A 
ATOM     15 CL   UNL     1       7.159   4.887  14.121  0.00  0.00    +0.000 Cl
ATOM     16  C   UNL     1       7.684   6.477  16.198  0.00  0.00    +0.000 A 
ATOM     17  C   UNL     1       7.476   7.033  17.457  0.00  0.00    +0.000 A 
ATOM     18  C   UNL     1       6.390   6.617  18.220  0.00  0.00    +0.000 A 
ATOM     19  C   UNL     1       5.500   5.654  17.723  0.00  0.00    +0.000 A 
ENDBRANCH   1  19
BRANCH   2  20
ATOM     20  C   UNL     1       3.098   7.236  17.647  0.00  0.00    +0.000 C 
ATOM     21  F   UNL     1       1.868   7.818  17.731  0.00  0.00    +0.000 F 
ENDBRANCH   2  20
TORSDOF 2
ENDMDL
MODEL 4
REMARK VINA RESULT:      -6.7      1.732      2.420
REMARK  Name = 
REMARK  3 active torsions:
REMARK  status: ('A' for Active; 'I' for Inactive)
REMARK    1  A    between atoms: C_1  and  C_2
REMARK    2  A    between atoms: C_8  and  N_9
REMARK    3  A    between atoms: C_10  and  C_11
REMARK                            x       y       z     vdW  Elec       q    Type
REMARK                         _______ _______ _______ _____ _____    ______ ____
ROOT
ATOM      1  N   UNL     1       4.693   4.816  17.884  0.00  0.00    +0.000 N 
ATOM      2  C   UNL     1       6.013   5.198  18.088  0.00  0.00    +0.000 A 
ATOM      3  N   UNL     1       6.902   5.227  17.141  0.00  0.00    +0.000 NA
ATOM      4  C   UNL     1       6.534   4.806  15.859  0.00  0.00    +0.000 A 
ATOM      5  C   UNL     1       7.501   4.805  14.851  0.00  0.00    +0.000 A 
ATOM      6  C   UNL     1       7.195   4.337  13.571  0.00  0.00    +0.000 A 
ATOM      7  C   UNL     1       5.912   3.871  13.286  0.00  0.00    +0.000 A 
ATOM      8  C   UNL     1       4.933   3.886  14.278  0.00  0.00    +0.000 A 
ATOM      9  C   UNL     1       5.252   4.355  15.560  0.00  0.00    +0.000 A 
ATOM     10  C   UNL     1       4.247   4.370  16.637  0.00  0.00    +0.000 A 
ATOM     11  O   UNL     1       3.103   3.989  16.390  0.00  0.00    +0.000 OA
ENDROOT
BRANCH   1  19
ATOM     12  C   UNL     1       4.436   2.373  19.449  0.00  0.00    +0.000 C 
ATOM     13  C   UNL     1       3.600   3.593  19.739  0.00  0.00    +0.000 A 
ATOM     14  C   UNL     1       2.650   3.623  20.777  0.00  0.00    +0.000 A 
ATOM     15 CL   UNL     1       2.304   2.243  21.760  0.00  0.00    +0.000 Cl
ATOM     16  C   UNL     1       1.924   4.788  21.056  0.00  0.00    +0.000 A 
ATOM     17  C   UNL     1       2.127   5.943  20.306  0.00  0.00    +0.000 A 
ATOM     18  C   UNL     1       3.039   5.928  19.256  0.00  0.00    +0.000 A 
ATOM     19  C   UNL     1       3.761   4.763  18.959  0.00  0.00    +0.000 A 
ENDBRANCH   1  19
BRANCH   2  20
ATOM     20  C   UNL     1       6.460   5.614  19.481  0.00  0.00    +0.000 C 
ATOM     21  F   UNL     1       7.788   5.917  19.525  0.00  0.00    +0.000 F 
ENDBRANCH   2  20
TORSDOF 2
ENDMDL
MODEL 5
REMARK VINA RESULT:      -6.4      3.971      6.939
REMARK  Name = 
REMARK  3 active torsions:
REMARK  status: ('A' for Active; 'I' for Inactive)
REMARK    1  A    between atoms: C_1  and  C_2
REMARK    2  A    between atoms: C_8  and  N_9
REMARK    3  A    between atoms: C_10  and  C_11
REMARK                            x       y       z     vdW  Elec       q    Type
REMARK                         _______ _______ _______ _____ _____    ______ ____
ROOT
ATOM      1  N   UNL     1       2.355   6.625  18.861  0.00  0.00    +0.000 N 
ATOM      2  C   UNL     1       1.992   6.505  20.197  0.00  0.00    +0.000 A 
ATOM      3  N   UNL     1       1.474   7.476  20.885  0.00  0.00    +0.000 NA
ATOM      4  C   UNL     1       1.312   8.724  20.274  0.00  0.00    +0.000 A 
ATOM      5  C   UNL     1       0.786   9.776  21.027  0.00  0.00    +0.000 A 
ATOM      6  C   UNL     1       0.664  11.054  20.477  0.00  0.00    +0.000 A 
ATOM      7  C   UNL     1       1.061  11.289  19.161  0.00  0.00    +0.000 A 
ATOM      8  C   UNL     1       1.569  10.242  18.393  0.00  0.00    +0.000 A 
ATOM      9  C   UNL     1       1.691   8.965  18.956  0.00  0.00    +0.000 A 
ATOM     10  C   UNL     1       2.239   7.839  18.180  0.00  0.00    +0.000 A 
ATOM     11  O   UNL     1       2.566   8.027  17.009  0.00  0.00    +0.000 OA
ENDROOT
BRANCH   1  19
ATOM     12  C   UNL     1       5.242   6.581  18.482  0.00  0.00    +0.000 C 
ATOM     13  C   UNL     1       4.354   5.489  17.943  0.00  0.00    +0.000 A 
ATOM     14  C   UNL     1       4.865   4.390  17.228  0.00  0.00    +0.000 A 
ATOM     15 CL   UNL     1       6.543   4.234  16.838  0.00  0.00    +0.000 Cl
ATOM     16  C   UNL     1       4.022   3.364  16.782  0.00  0.00    +0.000 A 
ATOM     17  C   UNL     1       2.654   3.414  17.038  0.00  0.00    +0.000 A 
ATOM     18  C   UNL     1       2.122   4.505  17.717  0.00  0.00    +0.000 A 
ATOM     19  C   UNL     1       2.956   5.544  18.155  0.00  0.00    +0.000 A 
ENDBRANCH   1  19
BRANCH   2  20
ATOM     20  C   UNL     1       2.200   5.176  20.907  0.00  0.00    +0.000 C 
ATOM     21  F   UNL     1       1.076   4.406  20.895  0.00  0.00    +0.000 F 
ENDBRANCH   2  20
TORSDOF 2
ENDMDL
MODEL 6
REMARK VINA RESULT:      -6.4      4.019      6.507
REMARK  Name = 
REMARK  3 active torsions:
REMARK  status: ('A' for Active; 'I' for Inactive)
REMARK    1  A    between atoms: C_1  and  C_2
REMARK    2  A    between atoms: C_8  and  N_9
REMARK    3  A    between atoms: C_10  and  C_11
REMARK                            x       y       z     vdW  Elec       q    Type
REMARK                         _______ _______ _______ _____ _____    ______ ____
ROOT
ATOM      1  N   UNL     1       2.860   6.859  18.841  0.00  0.00    +0.000 N 
ATOM      2  C   UNL     1       3.093   7.707  17.765  0.00  0.00    +0.000 A 
ATOM      3  N   UNL     1       2.585   8.899  17.674  0.00  0.00    +0.000 NA
ATOM      4  C   UNL     1       1.721   9.342  18.680  0.00  0.00    +0.000 A 
ATOM      5  C   UNL     1       1.150  10.611  18.561  0.00  0.00    +0.000 A 
ATOM      6  C   UNL     1       0.235  11.071  19.511  0.00  0.00    +0.000 A 
ATOM      7  C   UNL     1      -0.113  10.265  20.595  0.00  0.00    +0.000 A 
ATOM      8  C   UNL     1       0.466   9.005  20.734  0.00  0.00    +0.000 A 
ATOM      9  C   UNL     1       1.381   8.552  19.774  0.00  0.00    +0.000 A 
ATOM     10  C   UNL     1       1.998   7.219  19.881  0.00  0.00    +0.000 A 
ATOM     11  O   UNL     1       1.723   6.510  20.848  0.00  0.00    +0.000 OA
ENDROOT
BRANCH   1  19
ATOM     12  C   UNL     1       1.381   4.647  17.657  0.00  0.00    +0.000 C 
ATOM     13  C   UNL     1       2.716   4.441  18.325  0.00  0.00    +0.000 A 
ATOM     14  C   UNL     1       3.322   3.175  18.416  0.00  0.00    +0.000 A 
ATOM     15 CL   UNL     1       2.559   1.734  17.841  0.00  0.00    +0.000 Cl
ATOM     16  C   UNL     1       4.588   3.022  18.998  0.00  0.00    +0.000 A 
ATOM     17  C   UNL     1       5.271   4.125  19.502  0.00  0.00    +0.000 A 
ATOM     18  C   UNL     1       4.678   5.382  19.450  0.00  0.00    +0.000 A 
ATOM     19  C   UNL     1       3.406   5.544  18.882  0.00  0.00    +0.000 A 
ENDBRANCH   1  19
BRANCH   2  20
ATOM     20  C   UNL     1       3.988   7.237  16.629  0.00  0.00    +0.000 C 
ATOM     21  F   UNL     1       5.309   7.288  16.962  0.00  0.00    +0.000 F 
ENDBRANCH   2  20
TORSDOF 2
ENDMDL
MODEL 7
REMARK VINA RESULT:      -6.3      5.529      7.719
REMARK  Name = 
REMARK  3 active torsions:
REMARK  status: ('A' for Active; 'I' for Inactive)
REMARK    1  A    between atoms: C_1  and  C_2
REMARK    2  A    between atoms: C_8  and  N_9
REMARK    3  A    between atoms: C_10  and  C_11
REMARK                            x       y       z     vdW  Elec       q    Type
REMARK                         _______ _______ _______ _____ _____    ______ ____
ROOT
ATOM      1  N   UNL     1       0.799   9.360  19.551  0.00  0.00    +0.000 N 
ATOM      2  C   UNL     1       0.731   8.507  20.646  0.00  0.00    +0.000 A 
ATOM      3  N   UNL     1       1.473   7.449  20.774  0.00  0.00    +0.000 NA
ATOM      4  C   UNL     1       2.352   7.115  19.739  0.00  0.00    +0.000 A 
ATOM      5  C   UNL     1       3.123   5.956  19.864  0.00  0.00    +0.000 A 
ATOM      6  C   UNL     1       3.971   5.551  18.830  0.00  0.00    +0.000 A 
ATOM      7  C   UNL     1       4.059   6.307  17.662  0.00  0.00    +0.000 A 
ATOM      8  C   UNL     1       3.310   7.475  17.534  0.00  0.00    +0.000 A 
ATOM      9  C   UNL     1       2.461   7.871  18.576  0.00  0.00    +0.000 A 
ATOM     10  C   UNL     1       1.641   9.091  18.468  0.00  0.00    +0.000 A 
ATOM     11  O   UNL     1       1.732   9.782  17.455  0.00  0.00    +0.000 OA
ENDROOT
BRANCH   1  19
ATOM     12  C   UNL     1       1.645  11.932  20.623  0.00  0.00    +0.000 C 
ATOM     13  C   UNL     1       0.309  11.754  19.949  0.00  0.00    +0.000 A 
ATOM     14  C   UNL     1      -0.604  12.814  19.801  0.00  0.00    +0.000 A 
ATOM     15 CL   UNL     1      -0.309  14.392  20.443  0.00  0.00    +0.000 Cl
ATOM     16  C   UNL     1      -1.817  12.631  19.124  0.00  0.00    +0.000 A 
ATOM     17  C   UNL     1      -2.145  11.390  18.587  0.00  0.00    +0.000 A 
ATOM     18  C   UNL     1      -1.272  10.320  18.747  0.00  0.00    +0.000 A 
ATOM     19  C   UNL     1      -0.061  10.488  19.435  0.00  0.00    +0.000 A 
ENDBRANCH   1  19
BRANCH   2  20
ATOM     20  C   UNL     1      -0.250   8.814  21.767  0.00  0.00    +0.000 C 
ATOM     21  F   UNL     1       0.366   9.354  22.855  0.00  0.00    +0.000 F 
ENDBRANCH   2  20
TORSDOF 2
ENDMDL
MODEL 8
REMARK VINA RESULT:      -6.3      3.006      5.489
REMARK  Name = 
REMARK  3 active torsions:
REMARK  status: ('A' for Active; 'I' for Inactive)
REMARK    1  A    between atoms: C_1  and  C_2
REMARK    2  A    between atoms: C_8  and  N_9
REMARK    3  A    between atoms: C_10  and  C_11
REMARK                            x       y       z     vdW  Elec       q    Type
REMARK                         _______ _______ _______ _____ _____    ______ ____
ROOT
ATOM      1  N   UNL     1       4.811   4.776  18.225  0.00  0.00    +0.000 N 
ATOM      2  C   UNL     1       4.656   3.870  17.183  0.00  0.00    +0.000 A 
ATOM      3  N   UNL     1       3.621   3.096  17.059  0.00  0.00    +0.000 NA
ATOM      4  C   UNL     1       2.629   3.134  18.045  0.00  0.00    +0.000 A 
ATOM      5  C   UNL     1       1.534   2.275  17.926  0.00  0.00    +0.000 A 
ATOM      6  C   UNL     1       0.550   2.236  18.917  0.00  0.00    +0.000 A 
ATOM      7  C   UNL     1       0.651   3.063  20.035  0.00  0.00    +0.000 A 
ATOM      8  C   UNL     1       1.729   3.937  20.155  0.00  0.00    +0.000 A 
ATOM      9  C   UNL     1       2.712   3.967  19.156  0.00  0.00    +0.000 A 
ATOM     10  C   UNL     1       3.874   4.867  19.258  0.00  0.00    +0.000 A 
ATOM     11  O   UNL     1       3.959   5.623  20.225  0.00  0.00    +0.000 OA
ENDROOT
BRANCH   1  19
ATOM     12  C   UNL     1       4.888   7.405  16.974  0.00  0.00    +0.000 C 
ATOM     13  C   UNL     1       6.062   6.857  17.744  0.00  0.00    +0.000 A 
ATOM     14  C   UNL     1       7.260   7.580  17.900  0.00  0.00    +0.000 A 
ATOM     15 CL   UNL     1       7.518   9.123  17.163  0.00  0.00    +0.000 Cl
ATOM     16  C   UNL     1       8.316   7.067  18.664  0.00  0.00    +0.000 A 
ATOM     17  C   UNL     1       8.202   5.825  19.282  0.00  0.00    +0.000 A 
ATOM     18  C   UNL     1       7.040   5.080  19.116  0.00  0.00    +0.000 A 
ATOM     19  C   UNL     1       5.982   5.578  18.343  0.00  0.00    +0.000 A 
ENDBRANCH   1  19
BRANCH   2  20
ATOM     20  C   UNL     1       5.739   3.767  16.120  0.00  0.00    +0.000 C 
ATOM     21  F   UNL     1       5.521   4.620  15.081  0.00  0.00    +0.000 F 
ENDBRANCH   2  20
TORSDOF 2
ENDMDL
MODEL 9
REMARK VINA RESULT:      -6.2      5.436      7.586
REMARK  Name = 
REMARK  3 active torsions:
REMARK  status: ('A' for Active; 'I' for Inactive)
REMARK    1  A    between atoms: C_1  and  C_2
REMARK    2  A    between atoms: C_8  and  N_9
REMARK    3  A    between atoms: C_10  and  C_11
REMARK                            x       y       z     vdW  Elec       q    Type
REMARK                         _______ _______ _______ _____ _____    ______ ____
ROOT
ATOM      1  N   UNL     1       1.166   9.416  19.568  0.00  0.00    +0.000 N 
ATOM      2  C   UNL     1       1.051   8.535  20.637  0.00  0.00    +0.000 A 
ATOM      3  N   UNL     1       1.673   7.397  20.692  0.00  0.00    +0.000 NA
ATOM      4  C   UNL     1       2.462   7.006  19.606  0.00  0.00    +0.000 A 
ATOM      5  C   UNL     1       3.102   5.765  19.654  0.00  0.00    +0.000 A 
ATOM      6  C   UNL     1       3.850   5.308  18.567  0.00  0.00    +0.000 A 
ATOM      7  C   UNL     1       3.971   6.094  17.422  0.00  0.00    +0.000 A 
ATOM      8  C   UNL     1       3.354   7.342  17.370  0.00  0.00    +0.000 A 
ATOM      9  C   UNL     1       2.603   7.790  18.465  0.00  0.00    +0.000 A 
ATOM     10  C   UNL     1       1.922   9.097  18.437  0.00  0.00    +0.000 A 
ATOM     11  O   UNL     1       2.045   9.812  17.444  0.00  0.00    +0.000 OA
ENDROOT
BRANCH   1  19
ATOM     12  C   UNL     1      -1.508   9.461  18.413  0.00  0.00    +0.000 C 
ATOM     13  C   UNL     1      -0.863  10.704  18.972  0.00  0.00    +0.000 A 
ATOM     14  C   UNL     1      -1.512  11.953  18.967  0.00  0.00    +0.000 A 
ATOM     15 CL   UNL     1      -3.069  12.189  18.253  0.00  0.00    +0.000 Cl
ATOM     16  C   UNL     1      -0.909  13.080  19.540  0.00  0.00    +0.000 A 
ATOM     17  C   UNL     1       0.351  12.986  20.125  0.00  0.00    +0.000 A 
ATOM     18  C   UNL     1       1.023  11.769  20.114  0.00  0.00    +0.000 A 
ATOM     19  C   UNL     1       0.435  10.637  19.531  0.00  0.00    +0.000 A 
ENDBRANCH   1  19
BRANCH   2  20
ATOM     20  C   UNL     1       0.162   8.906  21.813  0.00  0.00    +0.000 C 
ATOM     21  F   UNL     1      -0.962   8.137  21.870  0.00  0.00    +0.000 F 
ENDBRANCH   2  20
TORSDOF 2
ENDMDL
