MODEL 1
REMARK VINA RESULT:      -8.5      0.000      0.000
REMARK  Name = 
REMARK  8 active torsions:
REMARK  status: ('A' for Active; 'I' for Inactive)
REMARK    1  A    between atoms: C_1  and  O_2
REMARK    2  A    between atoms: O_2  and  C_3
REMARK    3  A    between atoms: C_8  and  C_9
REMARK    4  A    between atoms: C_15  and  C_16
REMARK    5  A    between atoms: C_16  and  S_17
REMARK    6  A    between atoms: S_17  and  C_18
REMARK    7  A    between atoms: C_24  and  C_25
REMARK    8  A    between atoms: C_24  and  C_26
REMARK                            x       y       z     vdW  Elec       q    Type
REMARK                         _______ _______ _______ _____ _____    ______ ____
ROOT
ATOM      1  C   UNL     1       2.256   7.792  18.964  0.00  0.00    +0.000 A 
ATOM      2  C   UNL     1       2.678   8.372  17.749  0.00  0.00    +0.000 A 
ATOM      3  C   UNL     1       3.793   7.881  17.066  0.00  0.00    +0.000 A 
ATOM      4  C   UNL     1       4.434   6.752  17.520  0.00  0.00    +0.000 A 
ATOM      5  C   UNL     1       3.672   5.926  18.355  0.00  0.00    +0.000 A 
ATOM      6  C   UNL     1       2.718   6.484  19.202  0.00  0.00    +0.000 A 
ATOM      7  C   UNL     1       3.947   4.477  18.214  0.00  0.00    +0.000 C 
ATOM      8  C   UNL     1       5.263   4.201  18.242  0.00  0.00    +0.000 C 
ATOM      9  C   UNL     1       6.318   5.242  17.909  0.00  0.00    +0.000 C 
ATOM     10  C   UNL     1       7.424   4.673  17.001  0.00  0.00    +0.000 C 
ATOM     11  C   UNL     1       6.967   5.702  19.221  0.00  0.00    +0.000 C 
ATOM     12  N   UNL     1       5.704   6.356  17.115  0.00  0.00    +0.000 N 
ATOM     13  H   UNL     1       5.617   6.079  16.136  0.00  0.00    +0.000 HD
ENDROOT
BRANCH   1  19
ATOM     14  C   UNL     1       0.513   9.607  19.551  0.00  0.00    +0.000 A 
ATOM     15  C   UNL     1      -0.265  10.257  20.530  0.00  0.00    +0.000 A 
ATOM     16  C   UNL     1      -0.148   9.929  21.881  0.00  0.00    +0.000 A 
ATOM     17  C   UNL     1       0.727   8.929  22.269  0.00  0.00    +0.000 A 
ATOM     18  C   UNL     1       1.482   8.267  21.302  0.00  0.00    +0.000 A 
ATOM     19  C   UNL     1       1.416   8.589  19.920  0.00  0.00    +0.000 A 
BRANCH  14  21
ATOM     20  C   UNL     1      -0.951   9.937  17.697  0.00  0.00    +0.000 C 
ATOM     21  O   UNL     1       0.368   9.874  18.215  0.00  0.00    +0.000 OA
ENDBRANCH  14  21
ENDBRANCH   1  19
BRANCH   7  22
ATOM     22  C   UNL     1       2.975   3.822  17.217  0.00  0.00    +0.000 C 
BRANCH  22  23
ATOM     23  S   UNL     1       2.405   2.125  17.684  0.00  0.00    +0.000 S 
BRANCH  23  24
ATOM     24  C   UNL     1       1.941   2.196  19.454  0.00  0.00    +0.000 C 
ATOM     25  C   UNL     1       3.119   2.304  20.407  0.00  0.00    +0.000 C 
ATOM     26  C   UNL     1       2.471   2.546  21.760  0.00  0.00    +0.000 C 
ATOM     27  C   UNL     1       1.209   3.352  21.463  0.00  0.00    +0.000 C 
ATOM     28  C   UNL     1       0.964   3.257  19.948  0.00  0.00    +0.000 C 
ENDBRANCH  23  24
ENDBRANCH  22  23
ENDBRANCH   7  22
TORSDOF 5
ENDMDL
MODEL 2
REMARK VINA RESULT:      -7.7      2.268      4.622
REMARK  Name = 
REMARK  8 active torsions:
REMARK  status: ('A' for Active; 'I' for Inactive)
REMARK    1  A    between atoms: C_1  and  O_2
REMARK    2  A    between atoms: O_2  and  C_3
REMARK    3  A    between atoms: C_8  and  C_9
REMARK    4  A    between atoms: C_15  and  C_16
REMARK    5  A    between atoms: C_16  and  S_17
REMARK    6  A    between atoms: S_17  and  C_18
REMARK    7  A    between atoms: C_24  and  C_25
REMARK    8  A    between atoms: C_24  and  C_26
REMARK                            x       y       z     vdW  Elec       q    Type
REMARK                         _______ _______ _______ _____ _____    ______ ____
ROOT
ATOM      1  C   UNL     1       2.168   7.250  19.800  0.00  0.00    +0.000 A 
ATOM      2  C   UNL     1       1.903   6.498  20.964  0.00  0.00    +0.000 A 
ATOM      3  C   UNL     1       2.152   5.124  21.007  0.00  0.00    +0.000 A 
ATOM      4  C   UNL     1       2.760   4.503  19.941  0.00  0.00    +0.000 A 
ATOM      5  C   UNL     1       3.486   5.346  19.091  0.00  0.00    +0.000 A 
ATOM      6  C   UNL     1       3.067   6.659  18.892  0.00  0.00    +0.000 A 
ATOM      7  C   UNL     1       4.699   4.736  18.499  0.00  0.00    +0.000 C 
ATOM      8  C   UNL     1       4.455   3.523  17.972  0.00  0.00    +0.000 C 
ATOM      9  C   UNL     1       3.273   2.673  18.402  0.00  0.00    +0.000 C 
ATOM     10  C   UNL     1       3.665   1.198  18.605  0.00  0.00    +0.000 C 
ATOM     11  C   UNL     1       2.210   2.737  17.297  0.00  0.00    +0.000 C 
ATOM     12  N   UNL     1       2.779   3.127  19.743  0.00  0.00    +0.000 N 
ATOM     13  H   UNL     1       3.370   2.742  20.481  0.00  0.00    +0.000 HD
ENDROOT
BRANCH   1  19
ATOM     14  C   UNL     1       0.950   9.383  20.599  0.00  0.00    +0.000 A 
ATOM     15  C   UNL     1       0.351  10.619  20.279  0.00  0.00    +0.000 A 
ATOM     16  C   UNL     1       0.233  11.044  18.956  0.00  0.00    +0.000 A 
ATOM     17  C   UNL     1       0.736  10.254  17.936  0.00  0.00    +0.000 A 
ATOM     18  C   UNL     1       1.349   9.041  18.248  0.00  0.00    +0.000 A 
ATOM     19  C   UNL     1       1.464   8.557  19.578  0.00  0.00    +0.000 A 
BRANCH  14  21
ATOM     20  C   UNL     1       0.207   9.452  22.864  0.00  0.00    +0.000 C 
ATOM     21  O   UNL     1       1.128   8.978  21.895  0.00  0.00    +0.000 OA
ENDBRANCH  14  21
ENDBRANCH   1  19
BRANCH   7  22
ATOM     22  C   UNL     1       5.946   5.047  19.344  0.00  0.00    +0.000 C 
BRANCH  22  23
ATOM     23  S   UNL     1       7.215   6.098  18.504  0.00  0.00    +0.000 S 
BRANCH  23  24
ATOM     24  C   UNL     1       6.970   5.879  16.703  0.00  0.00    +0.000 C 
ATOM     25  C   UNL     1       7.274   4.480  16.195  0.00  0.00    +0.000 C 
ATOM     26  C   UNL     1       6.807   4.508  14.749  0.00  0.00    +0.000 C 
ATOM     27  C   UNL     1       5.612   5.458  14.732  0.00  0.00    +0.000 C 
ATOM     28  C   UNL     1       5.629   6.223  16.065  0.00  0.00    +0.000 C 
ENDBRANCH  23  24
ENDBRANCH  22  23
ENDBRANCH   7  22
TORSDOF 5
ENDMDL
MODEL 3
REMARK VINA RESULT:      -7.6      2.313      4.882
REMARK  Name = 
REMARK  8 active torsions:
REMARK  status: ('A' for Active; 'I' for Inactive)
REMARK    1  A    between atoms: C_1  and  O_2
REMARK    2  A    between atoms: O_2  and  C_3
REMARK    3  A    between atoms: C_8  and  C_9
REMARK    4  A    between atoms: C_15  and  C_16
REMARK    5  A    between atoms: C_16  and  S_17
REMARK    6  A    between atoms: S_17  and  C_18
REMARK    7  A    between atoms: C_24  and  C_25
REMARK    8  A    between atoms: C_24  and  C_26
REMARK                            x       y       z     vdW  Elec       q    Type
REMARK                         _______ _______ _______ _____ _____    ______ ____
ROOT
ATOM      1  C   UNL     1       1.246   8.966  18.878  0.00  0.00    +0.000 A 
ATOM      2  C   UNL     1       1.566   8.677  20.221  0.00  0.00    +0.000 A 
ATOM      3  C   UNL     1       2.063   7.425  20.590  0.00  0.00    +0.000 A 
ATOM      4  C   UNL     1       2.347   6.487  19.624  0.00  0.00    +0.000 A 
ATOM      5  C   UNL     1       2.544   6.996  18.335  0.00  0.00    +0.000 A 
ATOM      6  C   UNL     1       1.846   8.127  17.921  0.00  0.00    +0.000 A 
ATOM      7  C   UNL     1       3.550   6.268  17.527  0.00  0.00    +0.000 C 
ATOM      8  C   UNL     1       3.361   4.936  17.555  0.00  0.00    +0.000 C 
ATOM      9  C   UNL     1       2.595   4.249  18.672  0.00  0.00    +0.000 C 
ATOM     10  C   UNL     1       3.300   2.966  19.151  0.00  0.00    +0.000 C 
ATOM     11  C   UNL     1       1.212   3.859  18.134  0.00  0.00    +0.000 C 
ATOM     12  N   UNL     1       2.547   5.135  19.880  0.00  0.00    +0.000 N 
ATOM     13  H   UNL     1       3.426   5.071  20.395  0.00  0.00    +0.000 HD
ENDROOT
BRANCH   1  19
ATOM     14  C   UNL     1       0.488  11.436  18.851  0.00  0.00    +0.000 A 
ATOM     15  C   UNL     1      -0.466  12.398  18.462  0.00  0.00    +0.000 A 
ATOM     16  C   UNL     1      -1.640  12.028  17.804  0.00  0.00    +0.000 A 
ATOM     17  C   UNL     1      -1.864  10.695  17.502  0.00  0.00    +0.000 A 
ATOM     18  C   UNL     1      -0.913   9.742  17.865  0.00  0.00    +0.000 A 
ATOM     19  C   UNL     1       0.280  10.071  18.562  0.00  0.00    +0.000 A 
BRANCH  14  21
ATOM     20  C   UNL     1       1.639  12.820  20.415  0.00  0.00    +0.000 C 
ATOM     21  O   UNL     1       1.671  11.787  19.443  0.00  0.00    +0.000 OA
ENDBRANCH  14  21
ENDBRANCH   1  19
BRANCH   7  22
ATOM     22  C   UNL     1       4.938   6.919  17.649  0.00  0.00    +0.000 C 
BRANCH  22  23
ATOM     23  S   UNL     1       6.359   5.808  17.242  0.00  0.00    +0.000 S 
BRANCH  23  24
ATOM     24  C   UNL     1       6.196   5.374  15.471  0.00  0.00    +0.000 C 
ATOM     25  C   UNL     1       7.515   5.300  14.720  0.00  0.00    +0.000 C 
ATOM     26  C   UNL     1       7.129   4.738  13.362  0.00  0.00    +0.000 C 
ATOM     27  C   UNL     1       5.955   3.801  13.633  0.00  0.00    +0.000 C 
ATOM     28  C   UNL     1       5.461   4.104  15.057  0.00  0.00    +0.000 C 
ENDBRANCH  23  24
ENDBRANCH  22  23
ENDBRANCH   7  22
TORSDOF 5
ENDMDL
MODEL 4
REMARK VINA RESULT:      -7.5      3.580      8.118
REMARK  Name = 
REMARK  8 active torsions:
REMARK  status: ('A' for Active; 'I' for Inactive)
REMARK    1  A    between atoms: C_1  and  O_2
REMARK    2  A    between atoms: O_2  and  C_3
REMARK    3  A    between atoms: C_8  and  C_9
REMARK    4  A    between atoms: C_15  and  C_16
REMARK    5  A    between atoms: C_16  and  S_17
REMARK    6  A    between atoms: S_17  and  C_18
REMARK    7  A    between atoms: C_24  and  C_25
REMARK    8  A    between atoms: C_24  and  C_26
REMARK                            x       y       z     vdW  Elec       q    Type
REMARK                         _______ _______ _______ _____ _____    ______ ____
ROOT
ATOM      1  C   UNL     1       2.200   7.637  18.624  0.00  0.00    +0.000 A 
ATOM      2  C   UNL     1       1.881   7.461  19.987  0.00  0.00    +0.000 A 
ATOM      3  C   UNL     1       1.361   8.511  20.747  0.00  0.00    +0.000 A 
ATOM      4  C   UNL     1       1.054   9.708  20.144  0.00  0.00    +0.000 A 
ATOM      5  C   UNL     1       0.859   9.648  18.759  0.00  0.00    +0.000 A 
ATOM      6  C   UNL     1       1.577   8.732  17.995  0.00  0.00    +0.000 A 
ATOM      7  C   UNL     1      -0.165  10.581  18.234  0.00  0.00    +0.000 C 
ATOM      8  C   UNL     1      -0.003  11.833  18.700  0.00  0.00    +0.000 C 
ATOM      9  C   UNL     1       0.755  12.130  19.982  0.00  0.00    +0.000 C 
ATOM     10  C   UNL     1       0.027  13.168  20.856  0.00  0.00    +0.000 C 
ATOM     11  C   UNL     1       2.127  12.703  19.604  0.00  0.00    +0.000 C 
ATOM     12  N   UNL     1       0.828  10.896  20.830  0.00  0.00    +0.000 N 
ATOM     13  H   UNL     1      -0.050  10.769  21.337  0.00  0.00    +0.000 HD
ENDROOT
BRANCH   1  19
ATOM     14  C   UNL     1       3.007   5.331  17.786  0.00  0.00    +0.000 A 
ATOM     15  C   UNL     1       3.978   4.571  17.102  0.00  0.00    +0.000 A 
ATOM     16  C   UNL     1       5.140   5.161  16.604  0.00  0.00    +0.000 A 
ATOM     17  C   UNL     1       5.336   6.523  16.759  0.00  0.00    +0.000 A 
ATOM     18  C   UNL     1       4.368   7.283  17.414  0.00  0.00    +0.000 A 
ATOM     19  C   UNL     1       3.186   6.719  17.962  0.00  0.00    +0.000 A 
BRANCH  14  21
ATOM     20  C   UNL     1       1.761   3.364  18.305  0.00  0.00    +0.000 C 
ATOM     21  O   UNL     1       1.834   4.779  18.228  0.00  0.00    +0.000 OA
ENDBRANCH  14  21
ENDBRANCH   1  19
BRANCH   7  22
ATOM     22  C   UNL     1      -1.539   9.897  18.133  0.00  0.00    +0.000 C 
BRANCH  22  23
ATOM     23  S   UNL     1      -2.690  10.639  16.890  0.00  0.00    +0.000 S 
BRANCH  23  24
ATOM     24  C   UNL     1      -4.175  11.188  17.810  0.00  0.00    +0.000 C 
ATOM     25  C   UNL     1      -3.874  12.033  19.036  0.00  0.00    +0.000 C 
ATOM     26  C   UNL     1      -5.242  12.516  19.489  0.00  0.00    +0.000 C 
ATOM     27  C   UNL     1      -6.057  12.674  18.208  0.00  0.00    +0.000 C 
ATOM     28  C   UNL     1      -5.281  11.955  17.093  0.00  0.00    +0.000 C 
ENDBRANCH  23  24
ENDBRANCH  22  23
ENDBRANCH   7  22
TORSDOF 5
ENDMDL
MODEL 5
REMARK VINA RESULT:      -7.3      2.122      4.769
REMARK  Name = 
REMARK  8 active torsions:
REMARK  status: ('A' for Active; 'I' for Inactive)
REMARK    1  A    between atoms: C_1  and  O_2
REMARK    2  A    between atoms: O_2  and  C_3
REMARK    3  A    between atoms: C_8  and  C_9
REMARK    4  A    between atoms: C_15  and  C_16
REMARK    5  A    between atoms: C_16  and  S_17
REMARK    6  A    between atoms: S_17  and  C_18
REMARK    7  A    between atoms: C_24  and  C_25
REMARK    8  A    between atoms: C_24  and  C_26
REMARK                            x       y       z     vdW  Elec       q    Type
REMARK                         _______ _______ _______ _____ _____    ______ ____
ROOT
ATOM      1  C   UNL     1       1.024   9.010  19.142  0.00  0.00    +0.000 A 
ATOM      2  C   UNL     1       1.430   8.989  20.493  0.00  0.00    +0.000 A 
ATOM      3  C   UNL     1       1.900   7.814  21.085  0.00  0.00    +0.000 A 
ATOM      4  C   UNL     1       2.072   6.682  20.323  0.00  0.00    +0.000 A 
ATOM      5  C   UNL     1       2.195   6.901  18.946  0.00  0.00    +0.000 A 
ATOM      6  C   UNL     1       1.516   7.958  18.347  0.00  0.00    +0.000 A 
ATOM      7  C   UNL     1       3.107   5.965  18.247  0.00  0.00    +0.000 C 
ATOM      8  C   UNL     1       2.865   4.681  18.568  0.00  0.00    +0.000 C 
ATOM      9  C   UNL     1       2.155   4.285  19.851  0.00  0.00    +0.000 C 
ATOM     10  C   UNL     1       2.840   3.092  20.544  0.00  0.00    +0.000 C 
ATOM     11  C   UNL     1       0.721   3.871  19.496  0.00  0.00    +0.000 C 
ATOM     12  N   UNL     1       2.233   5.404  20.845  0.00  0.00    +0.000 N 
ATOM     13  H   UNL     1       3.145   5.398  21.306  0.00  0.00    +0.000 HD
ENDROOT
BRANCH   1  19
ATOM     14  C   UNL     1       0.293  11.465  18.806  0.00  0.00    +0.000 A 
ATOM     15  C   UNL     1      -0.633  12.383  18.270  0.00  0.00    +0.000 A 
ATOM     16  C   UNL     1      -1.780  11.948  17.605  0.00  0.00    +0.000 A 
ATOM     17  C   UNL     1      -2.004  10.591  17.443  0.00  0.00    +0.000 A 
ATOM     18  C   UNL     1      -1.080   9.680  17.953  0.00  0.00    +0.000 A 
ATOM     19  C   UNL     1       0.084  10.078  18.661  0.00  0.00    +0.000 A 
BRANCH  14  21
ATOM     20  C   UNL     1       2.307  12.735  18.673  0.00  0.00    +0.000 C 
ATOM     21  O   UNL     1       1.453  11.874  19.409  0.00  0.00    +0.000 OA
ENDBRANCH  14  21
ENDBRANCH   1  19
BRANCH   7  22
ATOM     22  C   UNL     1       4.526   6.548  18.141  0.00  0.00    +0.000 C 
BRANCH  22  23
ATOM     23  S   UNL     1       5.890   5.353  18.507  0.00  0.00    +0.000 S 
BRANCH  23  24
ATOM     24  C   UNL     1       6.445   4.681  16.897  0.00  0.00    +0.000 C 
ATOM     25  C   UNL     1       5.349   4.013  16.085  0.00  0.00    +0.000 C 
ATOM     26  C   UNL     1       6.008   3.732  14.746  0.00  0.00    +0.000 C 
ATOM     27  C   UNL     1       7.000   4.873  14.539  0.00  0.00    +0.000 C 
ATOM     28  C   UNL     1       7.153   5.584  15.893  0.00  0.00    +0.000 C 
ENDBRANCH  23  24
ENDBRANCH  22  23
ENDBRANCH   7  22
TORSDOF 5
ENDMDL
MODEL 6
REMARK VINA RESULT:      -7.2      4.018      8.420
REMARK  Name = 
REMARK  8 active torsions:
REMARK  status: ('A' for Active; 'I' for Inactive)
REMARK    1  A    between atoms: C_1  and  O_2
REMARK    2  A    between atoms: O_2  and  C_3
REMARK    3  A    between atoms: C_8  and  C_9
REMARK    4  A    between atoms: C_15  and  C_16
REMARK    5  A    between atoms: C_16  and  S_17
REMARK    6  A    between atoms: S_17  and  C_18
REMARK    7  A    between atoms: C_24  and  C_25
REMARK    8  A    between atoms: C_24  and  C_26
REMARK                            x       y       z     vdW  Elec       q    Type
REMARK                         _______ _______ _______ _____ _____    ______ ____
ROOT
ATOM      1  C   UNL     1       1.474   8.554  19.242  0.00  0.00    +0.000 A 
ATOM      2  C   UNL     1       1.168   8.730  20.608  0.00  0.00    +0.000 A 
ATOM      3  C   UNL     1       0.609   9.923  21.072  0.00  0.00    +0.000 A 
ATOM      4  C   UNL     1       0.251  10.907  20.180  0.00  0.00    +0.000 A 
ATOM      5  C   UNL     1       0.054  10.477  18.863  0.00  0.00    +0.000 A 
ATOM      6  C   UNL     1       0.805   9.420  18.357  0.00  0.00    +0.000 A 
ATOM      7  C   UNL     1      -1.010  11.200  18.126  0.00  0.00    +0.000 C 
ATOM      8  C   UNL     1      -0.896  12.535  18.245  0.00  0.00    +0.000 C 
ATOM      9  C   UNL     1      -0.146  13.187  19.393  0.00  0.00    +0.000 C 
ATOM     10  C   UNL     1      -0.912  14.390  19.973  0.00  0.00    +0.000 C 
ATOM     11  C   UNL     1       1.201  13.693  18.858  0.00  0.00    +0.000 C 
ATOM     12  N   UNL     1      -0.020  12.224  20.534  0.00  0.00    +0.000 N 
ATOM     13  H   UNL     1      -0.889  12.201  21.069  0.00  0.00    +0.000 HD
ENDROOT
BRANCH   1  19
ATOM     14  C   UNL     1       2.678   6.277  19.448  0.00  0.00    +0.000 A 
ATOM     15  C   UNL     1       3.634   5.371  18.946  0.00  0.00    +0.000 A 
ATOM     16  C   UNL     1       4.430   5.695  17.847  0.00  0.00    +0.000 A 
ATOM     17  C   UNL     1       4.264   6.918  17.219  0.00  0.00    +0.000 A 
ATOM     18  C   UNL     1       3.305   7.809  17.698  0.00  0.00    +0.000 A 
ATOM     19  C   UNL     1       2.494   7.532  18.830  0.00  0.00    +0.000 A 
BRANCH  14  21
ATOM     20  C   UNL     1       1.368   4.619  20.554  0.00  0.00    +0.000 C 
ATOM     21  O   UNL     1       1.847   5.952  20.487  0.00  0.00    +0.000 OA
ENDBRANCH  14  21
ENDBRANCH   1  19
BRANCH   7  22
ATOM     22  C   UNL     1      -2.355  10.462  18.228  0.00  0.00    +0.000 C 
BRANCH  22  23
ATOM     23  S   UNL     1      -3.691  11.121  17.132  0.00  0.00    +0.000 S 
BRANCH  23  24
ATOM     24  C   UNL     1      -5.012  11.749  18.233  0.00  0.00    +0.000 C 
ATOM     25  C   UNL     1      -6.091  10.731  18.562  0.00  0.00    +0.000 C 
ATOM     26  C   UNL     1      -6.930  11.422  19.624  0.00  0.00    +0.000 C 
ATOM     27  C   UNL     1      -5.951  12.291  20.408  0.00  0.00    +0.000 C 
ATOM     28  C   UNL     1      -4.657  12.364  19.582  0.00  0.00    +0.000 C 
ENDBRANCH  23  24
ENDBRANCH  22  23
ENDBRANCH   7  22
TORSDOF 5
ENDMDL
MODEL 7
REMARK VINA RESULT:      -7.2      3.448      7.902
REMARK  Name = 
REMARK  8 active torsions:
REMARK  status: ('A' for Active; 'I' for Inactive)
REMARK    1  A    between atoms: C_1  and  O_2
REMARK    2  A    between atoms: O_2  and  C_3
REMARK    3  A    between atoms: C_8  and  C_9
REMARK    4  A    between atoms: C_15  and  C_16
REMARK    5  A    between atoms: C_16  and  S_17
REMARK    6  A    between atoms: S_17  and  C_18
REMARK    7  A    between atoms: C_24  and  C_25
REMARK    8  A    between atoms: C_24  and  C_26
REMARK                            x       y       z     vdW  Elec       q    Type
REMARK                         _______ _______ _______ _____ _____    ______ ____
ROOT
ATOM      1  C   UNL     1       2.119   7.757  18.883  0.00  0.00    +0.000 A 
ATOM      2  C   UNL     1       1.862   7.528  20.251  0.00  0.00    +0.000 A 
ATOM      3  C   UNL     1       1.409   8.556  21.081  0.00  0.00    +0.000 A 
ATOM      4  C   UNL     1       1.106   9.786  20.547  0.00  0.00    +0.000 A 
ATOM      5  C   UNL     1       0.843   9.794  19.172  0.00  0.00    +0.000 A 
ATOM      6  C   UNL     1       1.498   8.894  18.334  0.00  0.00    +0.000 A 
ATOM      7  C   UNL     1      -0.180  10.775  18.740  0.00  0.00    +0.000 C 
ATOM      8  C   UNL     1       0.040  12.000  19.251  0.00  0.00    +0.000 C 
ATOM      9  C   UNL     1       0.867  12.219  20.506  0.00  0.00    +0.000 C 
ATOM     10  C   UNL     1       0.211  13.235  21.459  0.00  0.00    +0.000 C 
ATOM     11  C   UNL     1       2.234  12.774  20.086  0.00  0.00    +0.000 C 
ATOM     12  N   UNL     1       0.947  10.948  21.295  0.00  0.00    +0.000 N 
ATOM     13  H   UNL     1       0.091  10.820  21.838  0.00  0.00    +0.000 HD
ENDROOT
BRANCH   1  19
ATOM     14  C   UNL     1       2.956   5.437  18.114  0.00  0.00    +0.000 A 
ATOM     15  C   UNL     1       3.851   4.678  17.333  0.00  0.00    +0.000 A 
ATOM     16  C   UNL     1       4.853   5.292  16.580  0.00  0.00    +0.000 A 
ATOM     17  C   UNL     1       4.958   6.672  16.577  0.00  0.00    +0.000 A 
ATOM     18  C   UNL     1       4.061   7.428  17.331  0.00  0.00    +0.000 A 
ATOM     19  C   UNL     1       3.046   6.844  18.133  0.00  0.00    +0.000 A 
BRANCH  14  21
ATOM     20  C   UNL     1       1.349   3.681  18.267  0.00  0.00    +0.000 C 
ATOM     21  O   UNL     1       1.930   4.856  18.811  0.00  0.00    +0.000 OA
ENDBRANCH  14  21
ENDBRANCH   1  19
BRANCH   7  22
ATOM     22  C   UNL     1      -1.575  10.131  18.677  0.00  0.00    +0.000 C 
BRANCH  22  23
ATOM     23  S   UNL     1      -2.923  11.248  18.078  0.00  0.00    +0.000 S 
BRANCH  23  24
ATOM     24  C   UNL     1      -3.016  11.031  16.262  0.00  0.00    +0.000 C 
ATOM     25  C   UNL     1      -2.301   9.796  15.741  0.00  0.00    +0.000 C 
ATOM     26  C   UNL     1      -2.693   9.740  14.275  0.00  0.00    +0.000 C 
ATOM     27  C   UNL     1      -4.109  10.307  14.215  0.00  0.00    +0.000 C 
ATOM     28  C   UNL     1      -4.371  10.997  15.563  0.00  0.00    +0.000 C 
ENDBRANCH  23  24
ENDBRANCH  22  23
ENDBRANCH   7  22
TORSDOF 5
ENDMDL
MODEL 8
REMARK VINA RESULT:      -7.1      3.728      8.099
REMARK  Name = 
REMARK  8 active torsions:
REMARK  status: ('A' for Active; 'I' for Inactive)
REMARK    1  A    between atoms: C_1  and  O_2
REMARK    2  A    between atoms: O_2  and  C_3
REMARK    3  A    between atoms: C_8  and  C_9
REMARK    4  A    between atoms: C_15  and  C_16
REMARK    5  A    between atoms: C_16  and  S_17
REMARK    6  A    between atoms: S_17  and  C_18
REMARK    7  A    between atoms: C_24  and  C_25
REMARK    8  A    between atoms: C_24  and  C_26
REMARK                            x       y       z     vdW  Elec       q    Type
REMARK                         _______ _______ _______ _____ _____    ______ ____
ROOT
ATOM      1  C   UNL     1       2.013   7.202  19.589  0.00  0.00    +0.000 A 
ATOM      2  C   UNL     1       2.638   7.809  18.480  0.00  0.00    +0.000 A 
ATOM      3  C   UNL     1       2.081   8.933  17.864  0.00  0.00    +0.000 A 
ATOM      4  C   UNL     1       0.963   9.526  18.402  0.00  0.00    +0.000 A 
ATOM      5  C   UNL     1       0.729   9.248  19.754  0.00  0.00    +0.000 A 
ATOM      6  C   UNL     1       1.094   8.013  20.282  0.00  0.00    +0.000 A 
ATOM      7  C   UNL     1       0.126  10.362  20.522  0.00  0.00    +0.000 C 
ATOM      8  C   UNL     1      -0.933  10.902  19.894  0.00  0.00    +0.000 C 
ATOM      9  C   UNL     1      -1.141  10.772  18.395  0.00  0.00    +0.000 C 
ATOM     10  C   UNL     1      -1.583  12.101  17.756  0.00  0.00    +0.000 C 
ATOM     11  C   UNL     1      -2.247   9.737  18.154  0.00  0.00    +0.000 C 
ATOM     12  N   UNL     1       0.157  10.436  17.726  0.00  0.00    +0.000 N 
ATOM     13  H   UNL     1       0.719  11.281  17.610  0.00  0.00    +0.000 HD
ENDROOT
BRANCH   1  19
ATOM     14  C   UNL     1       3.545   5.125  19.701  0.00  0.00    +0.000 A 
ATOM     15  C   UNL     1       3.729   3.786  20.101  0.00  0.00    +0.000 A 
ATOM     16  C   UNL     1       2.699   3.062  20.702  0.00  0.00    +0.000 A 
ATOM     17  C   UNL     1       1.479   3.673  20.935  0.00  0.00    +0.000 A 
ATOM     18  C   UNL     1       1.298   5.004  20.562  0.00  0.00    +0.000 A 
ATOM     19  C   UNL     1       2.309   5.769  19.922  0.00  0.00    +0.000 A 
BRANCH  14  21
ATOM     20  C   UNL     1       5.842   5.262  19.073  0.00  0.00    +0.000 C 
ATOM     21  O   UNL     1       4.562   5.869  19.166  0.00  0.00    +0.000 OA
ENDBRANCH  14  21
ENDBRANCH   1  19
BRANCH   7  22
ATOM     22  C   UNL     1       1.209  11.207  21.216  0.00  0.00    +0.000 C 
BRANCH  22  23
ATOM     23  S   UNL     1       0.836  13.016  21.323  0.00  0.00    +0.000 S 
BRANCH  23  24
ATOM     24  C   UNL     1       1.974  13.856  20.160  0.00  0.00    +0.000 C 
ATOM     25  C   UNL     1       2.403  13.004  18.978  0.00  0.00    +0.000 C 
ATOM     26  C   UNL     1       3.157  13.975  18.085  0.00  0.00    +0.000 C 
ATOM     27  C   UNL     1       2.471  15.323  18.287  0.00  0.00    +0.000 C 
ATOM     28  C   UNL     1       1.582  15.190  19.534  0.00  0.00    +0.000 C 
ENDBRANCH  23  24
ENDBRANCH  22  23
ENDBRANCH   7  22
TORSDOF 5
ENDMDL
MODEL 9
REMARK VINA RESULT:      -7.0      2.166      4.677
REMARK  Name = 
REMARK  8 active torsions:
REMARK  status: ('A' for Active; 'I' for Inactive)
REMARK    1  A    between atoms: C_1  and  O_2
REMARK    2  A    between atoms: O_2  and  C_3
REMARK    3  A    between atoms: C_8  and  C_9
REMARK    4  A    between atoms: C_15  and  C_16
REMARK    5  A    between atoms: C_16  and  S_17
REMARK    6  A    between atoms: S_17  and  C_18
REMARK    7  A    between atoms: C_24  and  C_25
REMARK    8  A    between atoms: C_24  and  C_26
REMARK                            x       y       z     vdW  Elec       q    Type
REMARK                         _______ _______ _______ _____ _____    ______ ____
ROOT
ATOM      1  C   UNL     1       1.576   8.299  19.831  0.00  0.00    +0.000 A 
ATOM      2  C   UNL     1       1.664   7.511  20.998  0.00  0.00    +0.000 A 
ATOM      3  C   UNL     1       1.932   6.142  20.924  0.00  0.00    +0.000 A 
ATOM      4  C   UNL     1       2.218   5.563  19.709  0.00  0.00    +0.000 A 
ATOM      5  C   UNL     1       2.660   6.444  18.715  0.00  0.00    +0.000 A 
ATOM      6  C   UNL     1       2.186   7.753  18.687  0.00  0.00    +0.000 A 
ATOM      7  C   UNL     1       3.661   5.877  17.782  0.00  0.00    +0.000 C 
ATOM      8  C   UNL     1       3.293   4.674  17.308  0.00  0.00    +0.000 C 
ATOM      9  C   UNL     1       2.293   3.788  18.030  0.00  0.00    +0.000 C 
ATOM     10  C   UNL     1       2.746   2.316  18.064  0.00  0.00    +0.000 C 
ATOM     11  C   UNL     1       0.959   3.858  17.276  0.00  0.00    +0.000 C 
ATOM     12  N   UNL     1       2.197   4.193  19.470  0.00  0.00    +0.000 N 
ATOM     13  H   UNL     1       2.979   3.801  19.996  0.00  0.00    +0.000 HD
ENDROOT
BRANCH   1  19
ATOM     14  C   UNL     1       0.525  10.334  21.027  0.00  0.00    +0.000 A 
ATOM     15  C   UNL     1      -0.147  11.569  20.935  0.00  0.00    +0.000 A 
ATOM     16  C   UNL     1      -0.550  12.083  19.702  0.00  0.00    +0.000 A 
ATOM     17  C   UNL     1      -0.264  11.382  18.542  0.00  0.00    +0.000 A 
ATOM     18  C   UNL     1       0.419  10.170  18.627  0.00  0.00    +0.000 A 
ATOM     19  C   UNL     1       0.822   9.597  19.862  0.00  0.00    +0.000 A 
BRANCH  14  21
ATOM     20  C   UNL     1       0.024   9.605  23.243  0.00  0.00    +0.000 C 
ATOM     21  O   UNL     1       0.980   9.844  22.223  0.00  0.00    +0.000 OA
ENDBRANCH  14  21
ENDBRANCH   1  19
BRANCH   7  22
ATOM     22  C   UNL     1       5.094   6.191  18.246  0.00  0.00    +0.000 C 
BRANCH  22  23
ATOM     23  S   UNL     1       6.239   4.739  18.279  0.00  0.00    +0.000 S 
BRANCH  23  24
ATOM     24  C   UNL     1       6.766   4.446  16.550  0.00  0.00    +0.000 C 
ATOM     25  C   UNL     1       5.768   3.662  15.715  0.00  0.00    +0.000 C 
ATOM     26  C   UNL     1       6.336   3.733  14.308  0.00  0.00    +0.000 C 
ATOM     27  C   UNL     1       7.027   5.091  14.221  0.00  0.00    +0.000 C 
ATOM     28  C   UNL     1       7.155   5.620  15.659  0.00  0.00    +0.000 C 
ENDBRANCH  23  24
ENDBRANCH  22  23
ENDBRANCH   7  22
TORSDOF 5
ENDMDL
