MODEL 1
REMARK VINA RESULT:      -6.6      0.000      0.000
REMARK  Name = 
REMARK  11 active torsions:
REMARK  status: ('A' for Active; 'I' for Inactive)
REMARK    1  A    between atoms: C_1  and  N_2
REMARK    2  A    between atoms: N_2  and  C_3
REMARK    3  A    between atoms: C_3  and  C_4
REMARK    4  A    between atoms: C_3  and  C_5
REMARK    5  A    between atoms: N_7  and  C_8
REMARK    6  A    between atoms: C_12  and  C_13
REMARK    7  A    between atoms: N_18  and  C_19
REMARK    8  A    between atoms: C_19  and  C_20
REMARK    9  A    between atoms: C_21  and  O_22
REMARK   10  A    between atoms: O_22  and  C_23
REMARK   11  A    between atoms: C_28  and  C_29
REMARK                            x       y       z     vdW  Elec       q    Type
REMARK                         _______ _______ _______ _____ _____    ______ ____
ROOT
ATOM      1  C   UNL     1       5.845  16.954  21.173  0.00  0.00    +0.000 C 
ATOM      2  C   UNL     1       5.773  15.920  22.306  0.00  0.00    +0.000 C 
ATOM      3  O   UNL     1       5.903  14.550  21.878  0.00  0.00    +0.000 OA
ATOM      4  C   UNL     1       7.212  14.130  21.787  0.00  0.00    +0.000 A 
ATOM      5  C   UNL     1       7.612  12.965  22.484  0.00  0.00    +0.000 A 
ATOM      6  C   UNL     1       6.693  12.149  23.344  0.00  0.00    +0.000 C 
ATOM      7  C   UNL     1       8.937  12.510  22.362  0.00  0.00    +0.000 A 
ATOM      8  C   UNL     1       9.855  13.191  21.571  0.00  0.00    +0.000 A 
ATOM      9  C   UNL     1       9.442  14.302  20.848  0.00  0.00    +0.000 A 
ATOM     10  C   UNL     1       8.118  14.745  20.903  0.00  0.00    +0.000 A 
ATOM     11  N   UNL     1       7.744  15.808  20.041  0.00  0.00    +0.000 N 
ATOM     12  C   UNL     1       7.279  16.953  20.645  0.00  0.00    +0.000 C 
ATOM     13  O   UNL     1       8.077  17.844  20.993  0.00  0.00    +0.000 OA
ENDROOT
BRANCH   1  16
ATOM     14  C   UNL     1       3.583  17.438  20.318  0.00  0.00    +0.000 C 
ATOM     15  O   UNL     1       3.334  18.139  21.299  0.00  0.00    +0.000 OA
ATOM     16  N   UNL     1       4.810  16.823  20.143  0.00  0.00    +0.000 N 
ATOM     17  H   UNL     1       4.894  16.130  19.405  0.00  0.00    +0.000 HD
BRANCH  14  18
ATOM     18  C   UNL     1       2.509  17.195  19.230  0.00  0.00    +0.000 C 
ATOM     19  C   UNL     1       1.863  15.820  19.414  0.00  0.00    +0.000 C 
BRANCH  18  21
ATOM     20  C   UNL     1       3.156  16.074  17.175  0.00  0.00    +0.000 C 
ATOM     21  N   UNL     1       3.088  17.358  17.872  0.00  0.00    +0.000 NA
ATOM     22  H   UNL     1       2.453  17.957  17.340  0.00  0.00    +0.000 HD
ENDBRANCH  18  21
ENDBRANCH  14  18
ENDBRANCH   1  16
BRANCH  11  23
ATOM     23  C   UNL     1       7.541  15.517  18.597  0.00  0.00    +0.000 C 
BRANCH  23  24
ATOM     24  C   UNL     1       8.823  15.096  17.858  0.00  0.00    +0.000 A 
ATOM     25  C   UNL     1       9.848  16.032  17.649  0.00  0.00    +0.000 A 
ATOM     26  C   UNL     1      11.165  15.592  17.467  0.00  0.00    +0.000 A 
ATOM     27  C   UNL     1      11.471  14.236  17.582  0.00  0.00    +0.000 A 
ATOM     28  C   UNL     1      10.446  13.291  17.728  0.00  0.00    +0.000 A 
ATOM     29  C   UNL     1      10.692  11.962  18.098  0.00  0.00    +0.000 A 
ATOM     30  C   UNL     1       9.611  11.095  18.270  0.00  0.00    +0.000 A 
ATOM     31  C   UNL     1       9.564  10.177  19.462  0.00  0.00    +0.000 C 
ATOM     32  C   UNL     1       8.386  11.411  17.698  0.00  0.00    +0.000 A 
ATOM     33  C   UNL     1       8.110  12.748  17.480  0.00  0.00    +0.000 A 
ATOM     34  C   UNL     1       9.100  13.722  17.658  0.00  0.00    +0.000 A 
BRANCH  25  35
ATOM     35  O   UNL     1       9.472  17.345  17.703  0.00  0.00    +0.000 OA
ATOM     36  C   UNL     1      10.378  18.227  18.356  0.00  0.00    +0.000 C 
ENDBRANCH  25  35
ENDBRANCH  23  24
ENDBRANCH  11  23
TORSDOF 6
ENDMDL
MODEL 2
REMARK VINA RESULT:      -6.5      6.617     11.137
REMARK  Name = 
REMARK  11 active torsions:
REMARK  status: ('A' for Active; 'I' for Inactive)
REMARK    1  A    between atoms: C_1  and  N_2
REMARK    2  A    between atoms: N_2  and  C_3
REMARK    3  A    between atoms: C_3  and  C_4
REMARK    4  A    between atoms: C_3  and  C_5
REMARK    5  A    between atoms: N_7  and  C_8
REMARK    6  A    between atoms: C_12  and  C_13
REMARK    7  A    between atoms: N_18  and  C_19
REMARK    8  A    between atoms: C_19  and  C_20
REMARK    9  A    between atoms: C_21  and  O_22
REMARK   10  A    between atoms: O_22  and  C_23
REMARK   11  A    between atoms: C_28  and  C_29
REMARK                            x       y       z     vdW  Elec       q    Type
REMARK                         _______ _______ _______ _____ _____    ______ ____
ROOT
ATOM      1  C   UNL     1      -0.240  12.278  19.964  0.00  0.00    +0.000 C 
ATOM      2  C   UNL     1       1.029  12.714  19.216  0.00  0.00    +0.000 C 
ATOM      3  O   UNL     1       0.937  14.001  18.576  0.00  0.00    +0.000 OA
ATOM      4  C   UNL     1       1.257  15.049  19.412  0.00  0.00    +0.000 A 
ATOM      5  C   UNL     1       2.254  15.970  19.011  0.00  0.00    +0.000 A 
ATOM      6  C   UNL     1       3.013  15.872  17.721  0.00  0.00    +0.000 C 
ATOM      7  C   UNL     1       2.555  17.063  19.843  0.00  0.00    +0.000 A 
ATOM      8  C   UNL     1       1.890  17.247  21.049  0.00  0.00    +0.000 A 
ATOM      9  C   UNL     1       0.876  16.370  21.410  0.00  0.00    +0.000 A 
ATOM     10  C   UNL     1       0.513  15.307  20.578  0.00  0.00    +0.000 A 
ATOM     11  N   UNL     1      -0.613  14.531  20.955  0.00  0.00    +0.000 N 
ATOM     12  C   UNL     1      -0.390  13.193  21.179  0.00  0.00    +0.000 C 
ATOM     13  O   UNL     1      -0.048  12.797  22.309  0.00  0.00    +0.000 OA
ENDROOT
BRANCH   1  16
ATOM     14  C   UNL     1      -1.555  11.107  18.238  0.00  0.00    +0.000 C 
ATOM     15  O   UNL     1      -0.695  10.233  18.138  0.00  0.00    +0.000 OA
ATOM     16  N   UNL     1      -1.441  12.157  19.133  0.00  0.00    +0.000 N 
ATOM     17  H   UNL     1      -2.097  12.927  19.049  0.00  0.00    +0.000 HD
BRANCH  14  18
ATOM     18  C   UNL     1      -2.814  11.082  17.337  0.00  0.00    +0.000 C 
ATOM     19  C   UNL     1      -3.547   9.746  17.480  0.00  0.00    +0.000 C 
BRANCH  18  21
ATOM     20  C   UNL     1      -2.965  10.328  15.034  0.00  0.00    +0.000 C 
ATOM     21  N   UNL     1      -2.458  11.371  15.925  0.00  0.00    +0.000 NA
ATOM     22  H   UNL     1      -2.925  12.243  15.666  0.00  0.00    +0.000 HD
ENDBRANCH  18  21
ENDBRANCH  14  18
ENDBRANCH   1  16
BRANCH  11  23
ATOM     23  C   UNL     1      -1.971  15.100  20.748  0.00  0.00    +0.000 C 
BRANCH  23  24
ATOM     24  C   UNL     1      -2.997  14.674  21.811  0.00  0.00    +0.000 A 
ATOM     25  C   UNL     1      -3.745  13.500  21.629  0.00  0.00    +0.000 A 
ATOM     26  C   UNL     1      -4.271  12.830  22.741  0.00  0.00    +0.000 A 
ATOM     27  C   UNL     1      -3.978  13.279  24.029  0.00  0.00    +0.000 A 
ATOM     28  C   UNL     1      -3.286  14.484  24.217  0.00  0.00    +0.000 A 
ATOM     29  C   UNL     1      -2.745  14.858  25.455  0.00  0.00    +0.000 A 
ATOM     30  C   UNL     1      -2.028  16.052  25.547  0.00  0.00    +0.000 A 
ATOM     31  C   UNL     1      -0.724  16.090  26.300  0.00  0.00    +0.000 C 
ATOM     32  C   UNL     1      -2.195  17.026  24.572  0.00  0.00    +0.000 A 
ATOM     33  C   UNL     1      -2.589  16.607  23.314  0.00  0.00    +0.000 A 
ATOM     34  C   UNL     1      -2.978  15.282  23.090  0.00  0.00    +0.000 A 
BRANCH  25  35
ATOM     35  O   UNL     1      -3.851  13.058  20.339  0.00  0.00    +0.000 OA
ATOM     36  C   UNL     1      -5.116  12.525  19.965  0.00  0.00    +0.000 C 
ENDBRANCH  25  35
ENDBRANCH  23  24
ENDBRANCH  11  23
TORSDOF 6
ENDMDL
MODEL 3
REMARK VINA RESULT:      -6.5      8.382     12.661
REMARK  Name = 
REMARK  11 active torsions:
REMARK  status: ('A' for Active; 'I' for Inactive)
REMARK    1  A    between atoms: C_1  and  N_2
REMARK    2  A    between atoms: N_2  and  C_3
REMARK    3  A    between atoms: C_3  and  C_4
REMARK    4  A    between atoms: C_3  and  C_5
REMARK    5  A    between atoms: N_7  and  C_8
REMARK    6  A    between atoms: C_12  and  C_13
REMARK    7  A    between atoms: N_18  and  C_19
REMARK    8  A    between atoms: C_19  and  C_20
REMARK    9  A    between atoms: C_21  and  O_22
REMARK   10  A    between atoms: O_22  and  C_23
REMARK   11  A    between atoms: C_28  and  C_29
REMARK                            x       y       z     vdW  Elec       q    Type
REMARK                         _______ _______ _______ _____ _____    ______ ____
ROOT
ATOM      1  C   UNL     1      -0.768  12.024  19.286  0.00  0.00    +0.000 C 
ATOM      2  C   UNL     1      -1.854  11.718  18.244  0.00  0.00    +0.000 C 
ATOM      3  O   UNL     1      -3.088  11.216  18.792  0.00  0.00    +0.000 OA
ATOM      4  C   UNL     1      -3.958  12.213  19.178  0.00  0.00    +0.000 A 
ATOM      5  C   UNL     1      -5.278  12.212  18.666  0.00  0.00    +0.000 A 
ATOM      6  C   UNL     1      -5.800  11.188  17.702  0.00  0.00    +0.000 C 
ATOM      7  C   UNL     1      -6.181  13.204  19.089  0.00  0.00    +0.000 A 
ATOM      8  C   UNL     1      -5.792  14.183  19.996  0.00  0.00    +0.000 A 
ATOM      9  C   UNL     1      -4.513  14.146  20.533  0.00  0.00    +0.000 A 
ATOM     10  C   UNL     1      -3.611  13.140  20.178  0.00  0.00    +0.000 A 
ATOM     11  N   UNL     1      -2.369  13.097  20.863  0.00  0.00    +0.000 N 
ATOM     12  C   UNL     1      -1.238  13.234  20.093  0.00  0.00    +0.000 C 
ATOM     13  O   UNL     1      -0.784  14.368  19.847  0.00  0.00    +0.000 OA
ENDROOT
BRANCH   1  16
ATOM     14  C   UNL     1       0.768  10.991  20.915  0.00  0.00    +0.000 C 
ATOM     15  O   UNL     1       1.392  12.045  21.035  0.00  0.00    +0.000 OA
ATOM     16  N   UNL     1      -0.338  10.877  20.092  0.00  0.00    +0.000 N 
ATOM     17  H   UNL     1      -0.703   9.947  19.911  0.00  0.00    +0.000 HD
BRANCH  14  18
ATOM     18  C   UNL     1       1.213   9.720  21.679  0.00  0.00    +0.000 C 
ATOM     19  C   UNL     1       0.595   8.472  21.046  0.00  0.00    +0.000 C 
BRANCH  18  21
ATOM     20  C   UNL     1      -0.532   9.558  23.359  0.00  0.00    +0.000 C 
ATOM     21  N   UNL     1       0.886   9.830  23.123  0.00  0.00    +0.000 NA
ATOM     22  H   UNL     1       1.418   9.106  23.612  0.00  0.00    +0.000 HD
ENDBRANCH  18  21
ENDBRANCH  14  18
ENDBRANCH   1  16
BRANCH  11  23
ATOM     23  C   UNL     1      -2.341  12.571  22.254  0.00  0.00    +0.000 C 
BRANCH  23  24
ATOM     24  C   UNL     1      -2.645  13.629  23.328  0.00  0.00    +0.000 A 
ATOM     25  C   UNL     1      -1.707  14.636  23.602  0.00  0.00    +0.000 A 
ATOM     26  C   UNL     1      -2.131  15.852  24.155  0.00  0.00    +0.000 A 
ATOM     27  C   UNL     1      -3.492  16.093  24.349  0.00  0.00    +0.000 A 
ATOM     28  C   UNL     1      -4.427  15.070  24.138  0.00  0.00    +0.000 A 
ATOM     29  C   UNL     1      -5.807  15.312  24.070  0.00  0.00    +0.000 A 
ATOM     30  C   UNL     1      -6.668  14.245  23.807  0.00  0.00    +0.000 A 
ATOM     31  C   UNL     1      -7.788  14.409  22.814  0.00  0.00    +0.000 C 
ATOM     32  C   UNL     1      -6.230  12.945  24.019  0.00  0.00    +0.000 A 
ATOM     33  C   UNL     1      -4.870  12.709  23.934  0.00  0.00    +0.000 A 
ATOM     34  C   UNL     1      -3.965  13.771  23.821  0.00  0.00    +0.000 A 
BRANCH  25  35
ATOM     35  O   UNL     1      -0.418  14.362  23.237  0.00  0.00    +0.000 OA
ATOM     36  C   UNL     1       0.351  15.471  22.786  0.00  0.00    +0.000 C 
ENDBRANCH  25  35
ENDBRANCH  23  24
ENDBRANCH  11  23
TORSDOF 6
ENDMDL
MODEL 4
REMARK VINA RESULT:      -6.5      6.709     11.194
REMARK  Name = 
REMARK  11 active torsions:
REMARK  status: ('A' for Active; 'I' for Inactive)
REMARK    1  A    between atoms: C_1  and  N_2
REMARK    2  A    between atoms: N_2  and  C_3
REMARK    3  A    between atoms: C_3  and  C_4
REMARK    4  A    between atoms: C_3  and  C_5
REMARK    5  A    between atoms: N_7  and  C_8
REMARK    6  A    between atoms: C_12  and  C_13
REMARK    7  A    between atoms: N_18  and  C_19
REMARK    8  A    between atoms: C_19  and  C_20
REMARK    9  A    between atoms: C_21  and  O_22
REMARK   10  A    between atoms: O_22  and  C_23
REMARK   11  A    between atoms: C_28  and  C_29
REMARK                            x       y       z     vdW  Elec       q    Type
REMARK                         _______ _______ _______ _____ _____    ______ ____
ROOT
ATOM      1  C   UNL     1       0.163  12.182  19.547  0.00  0.00    +0.000 C 
ATOM      2  C   UNL     1       1.286  12.926  18.808  0.00  0.00    +0.000 C 
ATOM      3  O   UNL     1       1.008  14.312  18.532  0.00  0.00    +0.000 OA
ATOM      4  C   UNL     1       1.347  15.152  19.571  0.00  0.00    +0.000 A 
ATOM      5  C   UNL     1       2.207  16.247  19.319  0.00  0.00    +0.000 A 
ATOM      6  C   UNL     1       2.799  16.553  17.974  0.00  0.00    +0.000 C 
ATOM      7  C   UNL     1       2.523  17.130  20.367  0.00  0.00    +0.000 A 
ATOM      8  C   UNL     1       2.005  16.938  21.642  0.00  0.00    +0.000 A 
ATOM      9  C   UNL     1       1.121  15.893  21.869  0.00  0.00    +0.000 A 
ATOM     10  C   UNL     1       0.741  15.033  20.836  0.00  0.00    +0.000 A 
ATOM     11  N   UNL     1      -0.261  14.068  21.116  0.00  0.00    +0.000 N 
ATOM     12  C   UNL     1       0.097  12.749  20.964  0.00  0.00    +0.000 C 
ATOM     13  O   UNL     1       0.612  12.129  21.914  0.00  0.00    +0.000 OA
ENDROOT
BRANCH   1  16
ATOM     14  C   UNL     1      -1.419  11.059  18.025  0.00  0.00    +0.000 C 
ATOM     15  O   UNL     1      -0.657  10.102  17.897  0.00  0.00    +0.000 OA
ATOM     16  N   UNL     1      -1.121  12.136  18.842  0.00  0.00    +0.000 N 
ATOM     17  H   UNL     1      -1.709  12.961  18.776  0.00  0.00    +0.000 HD
BRANCH  14  18
ATOM     18  C   UNL     1      -2.759  11.110  17.251  0.00  0.00    +0.000 C 
ATOM     19  C   UNL     1      -3.555   9.823  17.474  0.00  0.00    +0.000 C 
BRANCH  18  21
ATOM     20  C   UNL     1      -2.953  10.238  14.993  0.00  0.00    +0.000 C 
ATOM     21  N   UNL     1      -2.525  11.374  15.809  0.00  0.00    +0.000 NA
ATOM     22  H   UNL     1      -3.108  12.172  15.547  0.00  0.00    +0.000 HD
ENDBRANCH  18  21
ENDBRANCH  14  18
ENDBRANCH   1  16
BRANCH  11  23
ATOM     23  C   UNL     1      -1.676  14.517  21.204  0.00  0.00    +0.000 C 
BRANCH  23  24
ATOM     24  C   UNL     1      -2.537  13.687  22.171  0.00  0.00    +0.000 A 
ATOM     25  C   UNL     1      -2.327  13.788  23.555  0.00  0.00    +0.000 A 
ATOM     26  C   UNL     1      -3.367  13.479  24.441  0.00  0.00    +0.000 A 
ATOM     27  C   UNL     1      -4.632  13.160  23.948  0.00  0.00    +0.000 A 
ATOM     28  C   UNL     1      -4.832  12.996  22.570  0.00  0.00    +0.000 A 
ATOM     29  C   UNL     1      -6.110  12.927  21.996  0.00  0.00    +0.000 A 
ATOM     30  C   UNL     1      -6.224  12.812  20.610  0.00  0.00    +0.000 A 
ATOM     31  C   UNL     1      -7.227  13.652  19.865  0.00  0.00    +0.000 C 
ATOM     32  C   UNL     1      -5.137  12.366  19.870  0.00  0.00    +0.000 A 
ATOM     33  C   UNL     1      -3.876  12.582  20.396  0.00  0.00    +0.000 A 
ATOM     34  C   UNL     1      -3.718  13.063  21.701  0.00  0.00    +0.000 A 
BRANCH  25  35
ATOM     35  O   UNL     1      -1.099  14.253  23.936  0.00  0.00    +0.000 OA
ATOM     36  C   UNL     1      -1.103  15.362  24.829  0.00  0.00    +0.000 C 
ENDBRANCH  25  35
ENDBRANCH  23  24
ENDBRANCH  11  23
TORSDOF 6
ENDMDL
MODEL 5
REMARK VINA RESULT:      -6.5      8.912     12.166
REMARK  Name = 
REMARK  11 active torsions:
REMARK  status: ('A' for Active; 'I' for Inactive)
REMARK    1  A    between atoms: C_1  and  N_2
REMARK    2  A    between atoms: N_2  and  C_3
REMARK    3  A    between atoms: C_3  and  C_4
REMARK    4  A    between atoms: C_3  and  C_5
REMARK    5  A    between atoms: N_7  and  C_8
REMARK    6  A    between atoms: C_12  and  C_13
REMARK    7  A    between atoms: N_18  and  C_19
REMARK    8  A    between atoms: C_19  and  C_20
REMARK    9  A    between atoms: C_21  and  O_22
REMARK   10  A    between atoms: O_22  and  C_23
REMARK   11  A    between atoms: C_28  and  C_29
REMARK                            x       y       z     vdW  Elec       q    Type
REMARK                         _______ _______ _______ _____ _____    ______ ____
ROOT
ATOM      1  C   UNL     1      -6.486  12.746  18.808  0.00  0.00    +0.000 C 
ATOM      2  C   UNL     1      -6.358  12.039  17.450  0.00  0.00    +0.000 C 
ATOM      3  O   UNL     1      -5.110  12.270  16.769  0.00  0.00    +0.000 OA
ATOM      4  C   UNL     1      -4.115  11.394  17.145  0.00  0.00    +0.000 A 
ATOM      5  C   UNL     1      -3.440  10.649  16.148  0.00  0.00    +0.000 A 
ATOM      6  C   UNL     1      -3.752  10.738  14.683  0.00  0.00    +0.000 C 
ATOM      7  C   UNL     1      -2.396   9.784  16.523  0.00  0.00    +0.000 A 
ATOM      8  C   UNL     1      -2.024   9.652  17.856  0.00  0.00    +0.000 A 
ATOM      9  C   UNL     1      -2.654  10.425  18.821  0.00  0.00    +0.000 A 
ATOM     10  C   UNL     1      -3.654  11.336  18.473  0.00  0.00    +0.000 A 
ATOM     11  N   UNL     1      -4.162  12.178  19.496  0.00  0.00    +0.000 N 
ATOM     12  C   UNL     1      -5.506  12.073  19.767  0.00  0.00    +0.000 C 
ATOM     13  O   UNL     1      -5.912  11.236  20.596  0.00  0.00    +0.000 OA
ENDROOT
BRANCH   1  16
ATOM     14  C   UNL     1      -7.136  14.914  17.828  0.00  0.00    +0.000 C 
ATOM     15  O   UNL     1      -7.916  14.360  17.055  0.00  0.00    +0.000 OA
ATOM     16  N   UNL     1      -6.393  14.209  18.759  0.00  0.00    +0.000 N 
ATOM     17  H   UNL     1      -5.652  14.700  19.248  0.00  0.00    +0.000 HD
BRANCH  14  18
ATOM     18  C   UNL     1      -6.932  16.448  17.779  0.00  0.00    +0.000 C 
ATOM     19  C   UNL     1      -6.958  16.945  16.332  0.00  0.00    +0.000 C 
BRANCH  18  21
ATOM     20  C   UNL     1      -5.545  18.292  18.535  0.00  0.00    +0.000 C 
ATOM     21  N   UNL     1      -5.681  16.837  18.476  0.00  0.00    +0.000 NA
ATOM     22  H   UNL     1      -5.752  16.501  19.440  0.00  0.00    +0.000 HD
ENDBRANCH  18  21
ENDBRANCH  14  18
ENDBRANCH   1  16
BRANCH  11  23
ATOM     23  C   UNL     1      -3.333  13.328  19.948  0.00  0.00    +0.000 C 
BRANCH  23  24
ATOM     24  C   UNL     1      -2.322  12.974  21.051  0.00  0.00    +0.000 A 
ATOM     25  C   UNL     1      -2.775  12.697  22.351  0.00  0.00    +0.000 A 
ATOM     26  C   UNL     1      -1.999  11.903  23.205  0.00  0.00    +0.000 A 
ATOM     27  C   UNL     1      -0.823  11.317  22.735  0.00  0.00    +0.000 A 
ATOM     28  C   UNL     1      -0.333  11.640  21.462  0.00  0.00    +0.000 A 
ATOM     29  C   UNL     1       0.687  10.907  20.838  0.00  0.00    +0.000 A 
ATOM     30  C   UNL     1       1.085  11.263  19.549  0.00  0.00    +0.000 A 
ATOM     31  C   UNL     1       1.302  10.198  18.507  0.00  0.00    +0.000 C 
ATOM     32  C   UNL     1       0.787  12.531  19.068  0.00  0.00    +0.000 A 
ATOM     33  C   UNL     1      -0.318  13.171  19.600  0.00  0.00    +0.000 A 
ATOM     34  C   UNL     1      -0.992  12.636  20.704  0.00  0.00    +0.000 A 
BRANCH  25  35
ATOM     35  O   UNL     1      -4.010  13.193  22.667  0.00  0.00    +0.000 OA
ATOM     36  C   UNL     1      -4.587  12.703  23.872  0.00  0.00    +0.000 C 
ENDBRANCH  25  35
ENDBRANCH  23  24
ENDBRANCH  11  23
TORSDOF 6
ENDMDL
MODEL 6
REMARK VINA RESULT:      -6.4      7.577     12.111
REMARK  Name = 
REMARK  11 active torsions:
REMARK  status: ('A' for Active; 'I' for Inactive)
REMARK    1  A    between atoms: C_1  and  N_2
REMARK    2  A    between atoms: N_2  and  C_3
REMARK    3  A    between atoms: C_3  and  C_4
REMARK    4  A    between atoms: C_3  and  C_5
REMARK    5  A    between atoms: N_7  and  C_8
REMARK    6  A    between atoms: C_12  and  C_13
REMARK    7  A    between atoms: N_18  and  C_19
REMARK    8  A    between atoms: C_19  and  C_20
REMARK    9  A    between atoms: C_21  and  O_22
REMARK   10  A    between atoms: O_22  and  C_23
REMARK   11  A    between atoms: C_28  and  C_29
REMARK                            x       y       z     vdW  Elec       q    Type
REMARK                         _______ _______ _______ _____ _____    ______ ____
ROOT
ATOM      1  C   UNL     1      -0.957  11.319  18.210  0.00  0.00    +0.000 C 
ATOM      2  C   UNL     1      -2.317  11.167  17.513  0.00  0.00    +0.000 C 
ATOM      3  O   UNL     1      -3.400  10.792  18.386  0.00  0.00    +0.000 OA
ATOM      4  C   UNL     1      -4.007  11.869  18.994  0.00  0.00    +0.000 A 
ATOM      5  C   UNL     1      -5.408  12.030  18.872  0.00  0.00    +0.000 A 
ATOM      6  C   UNL     1      -6.292  11.099  18.095  0.00  0.00    +0.000 C 
ATOM      7  C   UNL     1      -6.037  13.106  19.525  0.00  0.00    +0.000 A 
ATOM      8  C   UNL     1      -5.301  14.008  20.284  0.00  0.00    +0.000 A 
ATOM      9  C   UNL     1      -3.936  13.813  20.443  0.00  0.00    +0.000 A 
ATOM     10  C   UNL     1      -3.291  12.722  19.855  0.00  0.00    +0.000 A 
ATOM     11  N   UNL     1      -1.921  12.520  20.166  0.00  0.00    +0.000 N 
ATOM     12  C   UNL     1      -1.041  12.551  19.110  0.00  0.00    +0.000 C 
ATOM     13  O   UNL     1      -0.544  13.633  18.743  0.00  0.00    +0.000 OA
ENDROOT
BRANCH   1  16
ATOM     14  C   UNL     1       0.875   9.755  18.736  0.00  0.00    +0.000 C 
ATOM     15  O   UNL     1       1.680  10.447  18.114  0.00  0.00    +0.000 OA
ATOM     16  N   UNL     1      -0.456  10.109  18.869  0.00  0.00    +0.000 N 
ATOM     17  H   UNL     1      -1.097   9.419  19.247  0.00  0.00    +0.000 HD
BRANCH  14  18
ATOM     18  C   UNL     1       1.320   8.425  19.392  0.00  0.00    +0.000 C 
ATOM     19  C   UNL     1       1.464   8.597  20.906  0.00  0.00    +0.000 C 
BRANCH  18  21
ATOM     20  C   UNL     1       2.610   6.461  18.782  0.00  0.00    +0.000 C 
ATOM     21  N   UNL     1       2.571   7.922  18.771  0.00  0.00    +0.000 NA
ATOM     22  H   UNL     1       2.565   8.217  17.792  0.00  0.00    +0.000 HD
ENDBRANCH  18  21
ENDBRANCH  14  18
ENDBRANCH   1  16
BRANCH  11  23
ATOM     23  C   UNL     1      -1.569  11.956  21.496  0.00  0.00    +0.000 C 
BRANCH  23  24
ATOM     24  C   UNL     1      -1.444  13.010  22.609  0.00  0.00    +0.000 A 
ATOM     25  C   UNL     1      -0.374  13.917  22.594  0.00  0.00    +0.000 A 
ATOM     26  C   UNL     1      -0.499  15.153  23.243  0.00  0.00    +0.000 A 
ATOM     27  C   UNL     1      -1.713  15.515  23.826  0.00  0.00    +0.000 A 
ATOM     28  C   UNL     1      -2.764  14.590  23.900  0.00  0.00    +0.000 A 
ATOM     29  C   UNL     1      -4.074  14.962  24.237  0.00  0.00    +0.000 A 
ATOM     30  C   UNL     1      -5.074  13.988  24.241  0.00  0.00    +0.000 A 
ATOM     31  C   UNL     1      -6.412  14.281  23.617  0.00  0.00    +0.000 C 
ATOM     32  C   UNL     1      -4.721  12.647  24.319  0.00  0.00    +0.000 A 
ATOM     33  C   UNL     1      -3.474  12.287  23.841  0.00  0.00    +0.000 A 
ATOM     34  C   UNL     1      -2.543  13.262  23.466  0.00  0.00    +0.000 A 
BRANCH  25  35
ATOM     35  O   UNL     1       0.721  13.533  21.870  0.00  0.00    +0.000 OA
ATOM     36  C   UNL     1       1.629  14.570  21.515  0.00  0.00    +0.000 C 
ENDBRANCH  25  35
ENDBRANCH  23  24
ENDBRANCH  11  23
TORSDOF 6
ENDMDL
MODEL 7
REMARK VINA RESULT:      -6.4      7.561     12.058
REMARK  Name = 
REMARK  11 active torsions:
REMARK  status: ('A' for Active; 'I' for Inactive)
REMARK    1  A    between atoms: C_1  and  N_2
REMARK    2  A    between atoms: N_2  and  C_3
REMARK    3  A    between atoms: C_3  and  C_4
REMARK    4  A    between atoms: C_3  and  C_5
REMARK    5  A    between atoms: N_7  and  C_8
REMARK    6  A    between atoms: C_12  and  C_13
REMARK    7  A    between atoms: N_18  and  C_19
REMARK    8  A    between atoms: C_19  and  C_20
REMARK    9  A    between atoms: C_21  and  O_22
REMARK   10  A    between atoms: O_22  and  C_23
REMARK   11  A    between atoms: C_28  and  C_29
REMARK                            x       y       z     vdW  Elec       q    Type
REMARK                         _______ _______ _______ _____ _____    ______ ____
ROOT
ATOM      1  C   UNL     1      -0.853  11.587  18.217  0.00  0.00    +0.000 C 
ATOM      2  C   UNL     1      -2.197  11.342  17.514  0.00  0.00    +0.000 C 
ATOM      3  O   UNL     1      -3.246  10.859  18.377  0.00  0.00    +0.000 OA
ATOM      4  C   UNL     1      -3.937  11.869  19.010  0.00  0.00    +0.000 A 
ATOM      5  C   UNL     1      -5.347  11.919  18.890  0.00  0.00    +0.000 A 
ATOM      6  C   UNL     1      -6.153  10.938  18.090  0.00  0.00    +0.000 C 
ATOM      7  C   UNL     1      -6.060  12.924  19.568  0.00  0.00    +0.000 A 
ATOM      8  C   UNL     1      -5.399  13.865  20.348  0.00  0.00    +0.000 A 
ATOM      9  C   UNL     1      -4.023  13.777  20.505  0.00  0.00    +0.000 A 
ATOM     10  C   UNL     1      -3.292  12.756  19.892  0.00  0.00    +0.000 A 
ATOM     11  N   UNL     1      -1.910  12.659  20.199  0.00  0.00    +0.000 N 
ATOM     12  C   UNL     1      -1.036  12.786  19.146  0.00  0.00    +0.000 C 
ATOM     13  O   UNL     1      -0.629  13.913  18.805  0.00  0.00    +0.000 OA
ENDROOT
BRANCH   1  16
ATOM     14  C   UNL     1       1.122  10.285  18.915  0.00  0.00    +0.000 C 
ATOM     15  O   UNL     1       1.879  11.162  18.501  0.00  0.00    +0.000 OA
ATOM     16  N   UNL     1      -0.255  10.406  18.847  0.00  0.00    +0.000 N 
ATOM     17  H   UNL     1      -0.816   9.584  19.050  0.00  0.00    +0.000 HD
BRANCH  14  18
ATOM     18  C   UNL     1       1.686   8.978  19.523  0.00  0.00    +0.000 C 
ATOM     19  C   UNL     1       1.886   7.924  18.433  0.00  0.00    +0.000 C 
BRANCH  18  21
ATOM     20  C   UNL     1       1.148   9.132  21.886  0.00  0.00    +0.000 C 
ATOM     21  N   UNL     1       0.813   8.485  20.618  0.00  0.00    +0.000 NA
ATOM     22  H   UNL     1      -0.147   8.753  20.386  0.00  0.00    +0.000 HD
ENDBRANCH  18  21
ENDBRANCH  14  18
ENDBRANCH   1  16
BRANCH  11  23
ATOM     23  C   UNL     1      -1.513  12.093  21.516  0.00  0.00    +0.000 C 
BRANCH  23  24
ATOM     24  C   UNL     1      -1.464  13.129  22.652  0.00  0.00    +0.000 A 
ATOM     25  C   UNL     1      -0.436  14.084  22.682  0.00  0.00    +0.000 A 
ATOM     26  C   UNL     1      -0.634  15.299  23.351  0.00  0.00    +0.000 A 
ATOM     27  C   UNL     1      -1.879  15.594  23.910  0.00  0.00    +0.000 A 
ATOM     28  C   UNL     1      -2.887  14.620  23.939  0.00  0.00    +0.000 A 
ATOM     29  C   UNL     1      -4.220  14.925  24.249  0.00  0.00    +0.000 A 
ATOM     30  C   UNL     1      -5.174  13.906  24.209  0.00  0.00    +0.000 A 
ATOM     31  C   UNL     1      -6.509  14.151  23.557  0.00  0.00    +0.000 C 
ATOM     32  C   UNL     1      -4.762  12.582  24.271  0.00  0.00    +0.000 A 
ATOM     33  C   UNL     1      -3.488  12.289  23.817  0.00  0.00    +0.000 A 
ATOM     34  C   UNL     1      -2.594  13.313  23.485  0.00  0.00    +0.000 A 
BRANCH  25  35
ATOM     35  O   UNL     1       0.692  13.765  21.979  0.00  0.00    +0.000 OA
ATOM     36  C   UNL     1       1.602  14.834  21.742  0.00  0.00    +0.000 C 
ENDBRANCH  25  35
ENDBRANCH  23  24
ENDBRANCH  11  23
TORSDOF 6
ENDMDL
MODEL 8
REMARK VINA RESULT:      -6.3      8.565     12.935
REMARK  Name = 
REMARK  11 active torsions:
REMARK  status: ('A' for Active; 'I' for Inactive)
REMARK    1  A    between atoms: C_1  and  N_2
REMARK    2  A    between atoms: N_2  and  C_3
REMARK    3  A    between atoms: C_3  and  C_4
REMARK    4  A    between atoms: C_3  and  C_5
REMARK    5  A    between atoms: N_7  and  C_8
REMARK    6  A    between atoms: C_12  and  C_13
REMARK    7  A    between atoms: N_18  and  C_19
REMARK    8  A    between atoms: C_19  and  C_20
REMARK    9  A    between atoms: C_21  and  O_22
REMARK   10  A    between atoms: O_22  and  C_23
REMARK   11  A    between atoms: C_28  and  C_29
REMARK                            x       y       z     vdW  Elec       q    Type
REMARK                         _______ _______ _______ _____ _____    ______ ____
ROOT
ATOM      1  C   UNL     1      -1.421  11.554  19.202  0.00  0.00    +0.000 C 
ATOM      2  C   UNL     1      -2.609  11.425  18.237  0.00  0.00    +0.000 C 
ATOM      3  O   UNL     1      -3.877  11.178  18.875  0.00  0.00    +0.000 OA
ATOM      4  C   UNL     1      -4.522  12.331  19.268  0.00  0.00    +0.000 A 
ATOM      5  C   UNL     1      -5.849  12.561  18.834  0.00  0.00    +0.000 A 
ATOM      6  C   UNL     1      -6.612  11.624  17.944  0.00  0.00    +0.000 C 
ATOM      7  C   UNL     1      -6.525  13.716  19.267  0.00  0.00    +0.000 A 
ATOM      8  C   UNL     1      -5.905  14.632  20.109  0.00  0.00    +0.000 A 
ATOM      9  C   UNL     1      -4.623  14.373  20.573  0.00  0.00    +0.000 A 
ATOM     10  C   UNL     1      -3.947  13.206  20.209  0.00  0.00    +0.000 A 
ATOM     11  N   UNL     1      -2.692  12.953  20.822  0.00  0.00    +0.000 N 
ATOM     12  C   UNL     1      -1.608  12.854  19.983  0.00  0.00    +0.000 C 
ATOM     13  O   UNL     1      -0.968  13.875  19.666  0.00  0.00    +0.000 OA
ENDROOT
BRANCH   1  16
ATOM     14  C   UNL     1       0.053  10.245  20.683  0.00  0.00    +0.000 C 
ATOM     15  O   UNL     1       0.919  11.118  20.636  0.00  0.00    +0.000 OA
ATOM     16  N   UNL     1      -1.159  10.371  20.028  0.00  0.00    +0.000 N 
ATOM     17  H   UNL     1      -1.757   9.553  19.970  0.00  0.00    +0.000 HD
BRANCH  14  18
ATOM     18  C   UNL     1       0.294   8.937  21.475  0.00  0.00    +0.000 C 
ATOM     19  C   UNL     1      -0.066   9.130  22.950  0.00  0.00    +0.000 C 
BRANCH  18  21
ATOM     20  C   UNL     1       1.832   7.686  20.074  0.00  0.00    +0.000 C 
ATOM     21  N   UNL     1       1.691   8.465  21.303  0.00  0.00    +0.000 NA
ATOM     22  H   UNL     1       2.282   9.294  21.206  0.00  0.00    +0.000 HD
ENDBRANCH  18  21
ENDBRANCH  14  18
ENDBRANCH   1  16
BRANCH  11  23
ATOM     23  C   UNL     1      -2.673  12.473  22.230  0.00  0.00    +0.000 C 
BRANCH  23  24
ATOM     24  C   UNL     1      -2.850  13.589  23.273  0.00  0.00    +0.000 A 
ATOM     25  C   UNL     1      -1.818  14.515  23.488  0.00  0.00    +0.000 A 
ATOM     26  C   UNL     1      -2.115  15.781  24.008  0.00  0.00    +0.000 A 
ATOM     27  C   UNL     1      -3.442  16.151  24.228  0.00  0.00    +0.000 A 
ATOM     28  C   UNL     1      -4.471  15.211  24.076  0.00  0.00    +0.000 A 
ATOM     29  C   UNL     1      -5.825  15.576  24.034  0.00  0.00    +0.000 A 
ATOM     30  C   UNL     1      -6.786  14.584  23.831  0.00  0.00    +0.000 A 
ATOM     31  C   UNL     1      -7.914  14.816  22.861  0.00  0.00    +0.000 C 
ATOM     32  C   UNL     1      -6.461  13.257  24.078  0.00  0.00    +0.000 A 
ATOM     33  C   UNL     1      -5.131  12.895  23.967  0.00  0.00    +0.000 A 
ATOM     34  C   UNL     1      -4.137  13.866  23.794  0.00  0.00    +0.000 A 
BRANCH  25  35
ATOM     35  O   UNL     1      -0.569  14.112  23.101  0.00  0.00    +0.000 OA
ATOM     36  C   UNL     1       0.278  15.129  22.577  0.00  0.00    +0.000 C 
ENDBRANCH  25  35
ENDBRANCH  23  24
ENDBRANCH  11  23
TORSDOF 6
ENDMDL
MODEL 9
REMARK VINA RESULT:      -6.2      6.813     11.541
REMARK  Name = 
REMARK  11 active torsions:
REMARK  status: ('A' for Active; 'I' for Inactive)
REMARK    1  A    between atoms: C_1  and  N_2
REMARK    2  A    between atoms: N_2  and  C_3
REMARK    3  A    between atoms: C_3  and  C_4
REMARK    4  A    between atoms: C_3  and  C_5
REMARK    5  A    between atoms: N_7  and  C_8
REMARK    6  A    between atoms: C_12  and  C_13
REMARK    7  A    between atoms: N_18  and  C_19
REMARK    8  A    between atoms: C_19  and  C_20
REMARK    9  A    between atoms: C_21  and  O_22
REMARK   10  A    between atoms: O_22  and  C_23
REMARK   11  A    between atoms: C_28  and  C_29
REMARK                            x       y       z     vdW  Elec       q    Type
REMARK                         _______ _______ _______ _____ _____    ______ ____
ROOT
ATOM      1  C   UNL     1      -1.078  11.151  19.615  0.00  0.00    +0.000 C 
ATOM      2  C   UNL     1       0.272  11.570  19.012  0.00  0.00    +0.000 C 
ATOM      3  O   UNL     1       0.359  12.960  18.643  0.00  0.00    +0.000 OA
ATOM      4  C   UNL     1       0.746  13.776  19.684  0.00  0.00    +0.000 A 
ATOM      5  C   UNL     1       1.861  14.631  19.511  0.00  0.00    +0.000 A 
ATOM      6  C   UNL     1       2.675  14.699  18.252  0.00  0.00    +0.000 C 
ATOM      7  C   UNL     1       2.235  15.495  20.556  0.00  0.00    +0.000 A 
ATOM      8  C   UNL     1       1.527  15.516  21.752  0.00  0.00    +0.000 A 
ATOM      9  C   UNL     1       0.404  14.713  21.894  0.00  0.00    +0.000 A 
ATOM     10  C   UNL     1      -0.028  13.887  20.854  0.00  0.00    +0.000 A 
ATOM     11  N   UNL     1      -1.253  13.193  21.029  0.00  0.00    +0.000 N 
ATOM     12  C   UNL     1      -1.193  11.820  20.984  0.00  0.00    +0.000 C 
ATOM     13  O   UNL     1      -0.961  11.171  22.022  0.00  0.00    +0.000 OA
ENDROOT
BRANCH   1  16
ATOM     14  C   UNL     1      -2.396  10.537  17.623  0.00  0.00    +0.000 C 
ATOM     15  O   UNL     1      -1.615   9.625  17.355  0.00  0.00    +0.000 OA
ATOM     16  N   UNL     1      -2.237  11.342  18.738  0.00  0.00    +0.000 N 
ATOM     17  H   UNL     1      -2.814  12.174  18.810  0.00  0.00    +0.000 HD
BRANCH  14  18
ATOM     18  C   UNL     1      -3.599  10.842  16.698  0.00  0.00    +0.000 C 
ATOM     19  C   UNL     1      -3.168  10.808  15.230  0.00  0.00    +0.000 C 
BRANCH  18  21
ATOM     20  C   UNL     1      -5.653  11.962  17.349  0.00  0.00    +0.000 C 
ATOM     21  N   UNL     1      -4.229  12.136  17.061  0.00  0.00    +0.000 NA
ATOM     22  H   UNL     1      -3.784  12.461  17.923  0.00  0.00    +0.000 HD
ENDBRANCH  18  21
ENDBRANCH  14  18
ENDBRANCH   1  16
BRANCH  11  23
ATOM     23  C   UNL     1      -2.526  13.951  20.897  0.00  0.00    +0.000 C 
BRANCH  23  24
ATOM     24  C   UNL     1      -3.349  14.022  22.194  0.00  0.00    +0.000 A 
ATOM     25  C   UNL     1      -4.185  12.953  22.550  0.00  0.00    +0.000 A 
ATOM     26  C   UNL     1      -4.524  12.752  23.895  0.00  0.00    +0.000 A 
ATOM     27  C   UNL     1      -3.960  13.557  24.885  0.00  0.00    +0.000 A 
ATOM     28  C   UNL     1      -3.175  14.664  24.532  0.00  0.00    +0.000 A 
ATOM     29  C   UNL     1      -2.382  15.353  25.461  0.00  0.00    +0.000 A 
ATOM     30  C   UNL     1      -1.592  16.415  25.020  0.00  0.00    +0.000 A 
ATOM     31  C   UNL     1      -0.167  16.539  25.490  0.00  0.00    +0.000 C 
ATOM     32  C   UNL     1      -1.888  17.030  23.811  0.00  0.00    +0.000 A 
ATOM     33  C   UNL     1      -2.542  16.275  22.855  0.00  0.00    +0.000 A 
ATOM     34  C   UNL     1      -3.045  15.007  23.166  0.00  0.00    +0.000 A 
BRANCH  25  35
ATOM     35  O   UNL     1      -4.566  12.131  21.526  0.00  0.00    +0.000 OA
ATOM     36  C   UNL     1      -5.907  12.279  21.074  0.00  0.00    +0.000 C 
ENDBRANCH  25  35
ENDBRANCH  23  24
ENDBRANCH  11  23
TORSDOF 6
ENDMDL
