MODEL 1
REMARK VINA RESULT:      -7.3      0.000      0.000
REMARK  Name = 
REMARK  5 active torsions:
REMARK  status: ('A' for Active; 'I' for Inactive)
REMARK    1  A    between atoms: C_3  and  O_4
REMARK    2  A    between atoms: O_4  and  C_5
REMARK    3  A    between atoms: C_5  and  C_6
REMARK    4  A    between atoms: C_6  and  O_7
REMARK    5  A    between atoms: C_8  and  C_9
REMARK                            x       y       z     vdW  Elec       q    Type
REMARK                         _______ _______ _______ _____ _____    ______ ____
ROOT
ATOM      1  O   UNL     1       1.593   6.016  20.924  0.00  0.00    +0.000 OA
ATOM      2  C   UNL     1       2.252   6.427  19.972  0.00  0.00    +0.000 A 
ATOM      3  C   UNL     1       3.383   5.667  19.348  0.00  0.00    +0.000 A 
ATOM      4  C   UNL     1       4.007   6.256  18.308  0.00  0.00    +0.000 A 
ATOM      5  O   UNL     1       3.729   7.509  17.794  0.00  0.00    +0.000 OA
ATOM      6  C   UNL     1       2.692   8.219  18.338  0.00  0.00    +0.000 A 
ATOM      7  C   UNL     1       2.411   9.472  17.790  0.00  0.00    +0.000 A 
ATOM      8  C   UNL     1       1.347  10.230  18.288  0.00  0.00    +0.000 A 
ATOM      9  C   UNL     1       0.564   9.737  19.331  0.00  0.00    +0.000 A 
ATOM     10  C   UNL     1       0.851   8.490  19.886  0.00  0.00    +0.000 A 
ATOM     11  C   UNL     1       1.922   7.737  19.388  0.00  0.00    +0.000 A 
ENDROOT
BRANCH   4  12
ATOM     12  C   UNL     1       5.075   5.560  17.571  0.00  0.00    +0.000 A 
ATOM     13  C   UNL     1       4.877   5.122  16.255  0.00  0.00    +0.000 A 
ATOM     14  C   UNL     1       5.922   4.499  15.567  0.00  0.00    +0.000 A 
ATOM     15 BR   UNL     1       5.653   3.916  13.787  0.00  0.00    +0.000 Br
ATOM     16  C   UNL     1       7.164   4.304  16.172  0.00  0.00    +0.000 A 
ATOM     17  C   UNL     1       7.362   4.728  17.486  0.00  0.00    +0.000 A 
ATOM     18  C   UNL     1       6.321   5.349  18.173  0.00  0.00    +0.000 A 
ATOM     19  F   UNL     1       6.538   5.748  19.436  0.00  0.00    +0.000 F 
ENDBRANCH   4  12
BRANCH   3  20
ATOM     20  O   UNL     1       3.795   4.405  19.773  0.00  0.00    +0.000 OA
BRANCH  20  21
ATOM     21  C   UNL     1       2.976   3.280  19.430  0.00  0.00    +0.000 C 
BRANCH  21  22
ATOM     22  C   UNL     1       3.890   2.094  19.137  0.00  0.00    +0.000 C 
BRANCH  22  23
ATOM     23  O   UNL     1       5.192   2.311  19.677  0.00  0.00    +0.000 OA
ATOM     24  H   UNL     1       5.794   2.377  18.913  0.00  0.00    +0.000 HD
ENDBRANCH  22  23
ENDBRANCH  21  22
ENDBRANCH  20  21
ENDBRANCH   3  20
TORSDOF 5
ENDMDL
MODEL 2
REMARK VINA RESULT:      -7.1      3.107      6.239
REMARK  Name = 
REMARK  5 active torsions:
REMARK  status: ('A' for Active; 'I' for Inactive)
REMARK    1  A    between atoms: C_3  and  O_4
REMARK    2  A    between atoms: O_4  and  C_5
REMARK    3  A    between atoms: C_5  and  C_6
REMARK    4  A    between atoms: C_6  and  O_7
REMARK    5  A    between atoms: C_8  and  C_9
REMARK                            x       y       z     vdW  Elec       q    Type
REMARK                         _______ _______ _______ _____ _____    ______ ____
ROOT
ATOM      1  O   UNL     1       7.985   6.298  15.931  0.00  0.00    +0.000 OA
ATOM      2  C   UNL     1       6.930   5.678  15.828  0.00  0.00    +0.000 A 
ATOM      3  C   UNL     1       5.894   5.605  16.909  0.00  0.00    +0.000 A 
ATOM      4  C   UNL     1       4.787   4.882  16.639  0.00  0.00    +0.000 A 
ATOM      5  O   UNL     1       4.541   4.171  15.479  0.00  0.00    +0.000 OA
ATOM      6  C   UNL     1       5.465   4.233  14.471  0.00  0.00    +0.000 A 
ATOM      7  C   UNL     1       5.188   3.528  13.298  0.00  0.00    +0.000 A 
ATOM      8  C   UNL     1       6.084   3.575  12.225  0.00  0.00    +0.000 A 
ATOM      9  C   UNL     1       7.255   4.327  12.324  0.00  0.00    +0.000 A 
ATOM     10  C   UNL     1       7.537   5.022  13.499  0.00  0.00    +0.000 A 
ATOM     11  C   UNL     1       6.640   4.966  14.573  0.00  0.00    +0.000 A 
ENDROOT
BRANCH   4  12
ATOM     12  C   UNL     1       3.674   4.813  17.599  0.00  0.00    +0.000 A 
ATOM     13  C   UNL     1       3.326   3.603  18.215  0.00  0.00    +0.000 A 
ATOM     14  C   UNL     1       2.289   3.573  19.152  0.00  0.00    +0.000 A 
ATOM     15 BR   UNL     1       1.828   1.940  19.986  0.00  0.00    +0.000 Br
ATOM     16  C   UNL     1       1.591   4.735  19.485  0.00  0.00    +0.000 A 
ATOM     17  C   UNL     1       1.927   5.940  18.867  0.00  0.00    +0.000 A 
ATOM     18  C   UNL     1       2.960   5.969  17.933  0.00  0.00    +0.000 A 
ATOM     19  F   UNL     1       3.263   7.141  17.352  0.00  0.00    +0.000 F 
ENDBRANCH   4  12
BRANCH   3  20
ATOM     20  O   UNL     1       6.013   6.247  18.140  0.00  0.00    +0.000 OA
BRANCH  20  21
ATOM     21  C   UNL     1       6.433   5.467  19.266  0.00  0.00    +0.000 C 
BRANCH  21  22
ATOM     22  C   UNL     1       7.930   5.688  19.471  0.00  0.00    +0.000 C 
BRANCH  22  23
ATOM     23  O   UNL     1       8.320   5.324  20.794  0.00  0.00    +0.000 OA
ATOM     24  H   UNL     1       7.793   4.537  21.024  0.00  0.00    +0.000 HD
ENDBRANCH  22  23
ENDBRANCH  21  22
ENDBRANCH  20  21
ENDBRANCH   3  20
TORSDOF 5
ENDMDL
MODEL 3
REMARK VINA RESULT:      -6.9      2.057      2.536
REMARK  Name = 
REMARK  5 active torsions:
REMARK  status: ('A' for Active; 'I' for Inactive)
REMARK    1  A    between atoms: C_3  and  O_4
REMARK    2  A    between atoms: O_4  and  C_5
REMARK    3  A    between atoms: C_5  and  C_6
REMARK    4  A    between atoms: C_6  and  O_7
REMARK    5  A    between atoms: C_8  and  C_9
REMARK                            x       y       z     vdW  Elec       q    Type
REMARK                         _______ _______ _______ _____ _____    ______ ____
ROOT
ATOM      1  O   UNL     1       0.852   7.678  21.885  0.00  0.00    +0.000 OA
ATOM      2  C   UNL     1       1.367   7.725  20.771  0.00  0.00    +0.000 A 
ATOM      3  C   UNL     1       2.179   6.614  20.178  0.00  0.00    +0.000 A 
ATOM      4  C   UNL     1       2.677   6.821  18.941  0.00  0.00    +0.000 A 
ATOM      5  O   UNL     1       2.544   7.975  18.192  0.00  0.00    +0.000 OA
ATOM      6  C   UNL     1       1.796   9.000  18.705  0.00  0.00    +0.000 A 
ATOM      7  C   UNL     1       1.652  10.148  17.924  0.00  0.00    +0.000 A 
ATOM      8  C   UNL     1       0.878  11.217  18.386  0.00  0.00    +0.000 A 
ATOM      9  C   UNL     1       0.247  11.138  19.627  0.00  0.00    +0.000 A 
ATOM     10  C   UNL     1       0.399   9.996  20.413  0.00  0.00    +0.000 A 
ATOM     11  C   UNL     1       1.181   8.931  19.948  0.00  0.00    +0.000 A 
ENDROOT
BRANCH   4  12
ATOM     12  C   UNL     1       3.419   5.763  18.236  0.00  0.00    +0.000 A 
ATOM     13  C   UNL     1       4.820   5.753  18.217  0.00  0.00    +0.000 A 
ATOM     14  C   UNL     1       5.498   4.716  17.572  0.00  0.00    +0.000 A 
ATOM     15 BR   UNL     1       7.390   4.701  17.557  0.00  0.00    +0.000 Br
ATOM     16  C   UNL     1       4.800   3.685  16.942  0.00  0.00    +0.000 A 
ATOM     17  C   UNL     1       3.405   3.696  16.948  0.00  0.00    +0.000 A 
ATOM     18  C   UNL     1       2.728   4.730  17.591  0.00  0.00    +0.000 A 
ATOM     19  F   UNL     1       1.386   4.719  17.581  0.00  0.00    +0.000 F 
ENDBRANCH   4  12
BRANCH   3  20
ATOM     20  O   UNL     1       2.421   5.402  20.823  0.00  0.00    +0.000 OA
BRANCH  20  21
ATOM     21  C   UNL     1       1.378   4.421  20.822  0.00  0.00    +0.000 C 
BRANCH  21  22
ATOM     22  C   UNL     1       1.963   3.099  21.313  0.00  0.00    +0.000 C 
BRANCH  22  23
ATOM     23  O   UNL     1       3.135   2.758  20.575  0.00  0.00    +0.000 OA
ATOM     24  H   UNL     1       3.683   3.564  20.552  0.00  0.00    +0.000 HD
ENDBRANCH  22  23
ENDBRANCH  21  22
ENDBRANCH  20  21
ENDBRANCH   3  20
TORSDOF 5
ENDMDL
MODEL 4
REMARK VINA RESULT:      -6.9      3.367      6.288
REMARK  Name = 
REMARK  5 active torsions:
REMARK  status: ('A' for Active; 'I' for Inactive)
REMARK    1  A    between atoms: C_3  and  O_4
REMARK    2  A    between atoms: O_4  and  C_5
REMARK    3  A    between atoms: C_5  and  C_6
REMARK    4  A    between atoms: C_6  and  O_7
REMARK    5  A    between atoms: C_8  and  C_9
REMARK                            x       y       z     vdW  Elec       q    Type
REMARK                         _______ _______ _______ _____ _____    ______ ____
ROOT
ATOM      1  O   UNL     1       7.825   6.299  15.972  0.00  0.00    +0.000 OA
ATOM      2  C   UNL     1       6.823   5.593  15.897  0.00  0.00    +0.000 A 
ATOM      3  C   UNL     1       5.848   5.405  17.020  0.00  0.00    +0.000 A 
ATOM      4  C   UNL     1       4.795   4.596  16.779  0.00  0.00    +0.000 A 
ATOM      5  O   UNL     1       4.557   3.895  15.610  0.00  0.00    +0.000 OA
ATOM      6  C   UNL     1       5.425   4.061  14.565  0.00  0.00    +0.000 A 
ATOM      7  C   UNL     1       5.154   3.365  13.385  0.00  0.00    +0.000 A 
ATOM      8  C   UNL     1       5.992   3.515  12.276  0.00  0.00    +0.000 A 
ATOM      9  C   UNL     1       7.098   4.362  12.345  0.00  0.00    +0.000 A 
ATOM     10  C   UNL     1       7.375   5.049  13.526  0.00  0.00    +0.000 A 
ATOM     11  C   UNL     1       6.536   4.890  14.637  0.00  0.00    +0.000 A 
ENDROOT
BRANCH   4  12
ATOM     12  C   UNL     1       3.737   4.408  17.784  0.00  0.00    +0.000 A 
ATOM     13  C   UNL     1       3.187   5.501  18.467  0.00  0.00    +0.000 A 
ATOM     14  C   UNL     1       2.157   5.297  19.389  0.00  0.00    +0.000 A 
ATOM     15 BR   UNL     1       1.412   6.777  20.302  0.00  0.00    +0.000 Br
ATOM     16  C   UNL     1       1.666   4.016  19.643  0.00  0.00    +0.000 A 
ATOM     17  C   UNL     1       2.217   2.924  18.974  0.00  0.00    +0.000 A 
ATOM     18  C   UNL     1       3.245   3.126  18.055  0.00  0.00    +0.000 A 
ATOM     19  F   UNL     1       3.759   2.058  17.426  0.00  0.00    +0.000 F 
ENDBRANCH   4  12
BRANCH   3  20
ATOM     20  O   UNL     1       5.969   6.024  18.263  0.00  0.00    +0.000 OA
BRANCH  20  21
ATOM     21  C   UNL     1       6.499   5.253  19.348  0.00  0.00    +0.000 C 
BRANCH  21  22
ATOM     22  C   UNL     1       7.972   5.615  19.519  0.00  0.00    +0.000 C 
BRANCH  22  23
ATOM     23  O   UNL     1       8.441   5.236  20.812  0.00  0.00    +0.000 OA
ATOM     24  H   UNL     1       9.240   5.768  20.976  0.00  0.00    +0.000 HD
ENDBRANCH  22  23
ENDBRANCH  21  22
ENDBRANCH  20  21
ENDBRANCH   3  20
TORSDOF 5
ENDMDL
MODEL 5
REMARK VINA RESULT:      -6.9      3.035      5.857
REMARK  Name = 
REMARK  5 active torsions:
REMARK  status: ('A' for Active; 'I' for Inactive)
REMARK    1  A    between atoms: C_3  and  O_4
REMARK    2  A    between atoms: O_4  and  C_5
REMARK    3  A    between atoms: C_5  and  C_6
REMARK    4  A    between atoms: C_6  and  O_7
REMARK    5  A    between atoms: C_8  and  C_9
REMARK                            x       y       z     vdW  Elec       q    Type
REMARK                         _______ _______ _______ _____ _____    ______ ____
ROOT
ATOM      1  O   UNL     1       4.262   3.447  19.761  0.00  0.00    +0.000 OA
ATOM      2  C   UNL     1       4.160   4.578  19.294  0.00  0.00    +0.000 A 
ATOM      3  C   UNL     1       3.054   5.529  19.640  0.00  0.00    +0.000 A 
ATOM      4  C   UNL     1       3.086   6.737  19.041  0.00  0.00    +0.000 A 
ATOM      5  O   UNL     1       4.015   7.161  18.109  0.00  0.00    +0.000 OA
ATOM      6  C   UNL     1       5.043   6.316  17.786  0.00  0.00    +0.000 A 
ATOM      7  C   UNL     1       5.985   6.771  16.861  0.00  0.00    +0.000 A 
ATOM      8  C   UNL     1       7.070   5.962  16.512  0.00  0.00    +0.000 A 
ATOM      9  C   UNL     1       7.215   4.699  17.087  0.00  0.00    +0.000 A 
ATOM     10  C   UNL     1       6.268   4.240  18.002  0.00  0.00    +0.000 A 
ATOM     11  C   UNL     1       5.179   5.053  18.344  0.00  0.00    +0.000 A 
ENDROOT
BRANCH   4  12
ATOM     12  C   UNL     1       2.094   7.774  19.372  0.00  0.00    +0.000 A 
ATOM     13  C   UNL     1       1.635   7.939  20.685  0.00  0.00    +0.000 A 
ATOM     14  C   UNL     1       0.722   8.956  20.979  0.00  0.00    +0.000 A 
ATOM     15 BR   UNL     1       0.111   9.182  22.755  0.00  0.00    +0.000 Br
ATOM     16  C   UNL     1       0.259   9.814  19.980  0.00  0.00    +0.000 A 
ATOM     17  C   UNL     1       0.706   9.647  18.669  0.00  0.00    +0.000 A 
ATOM     18  C   UNL     1       1.614   8.632  18.376  0.00  0.00    +0.000 A 
ATOM     19  F   UNL     1       2.028   8.492  17.107  0.00  0.00    +0.000 F 
ENDBRANCH   4  12
BRANCH   3  20
ATOM     20  O   UNL     1       2.033   5.234  20.541  0.00  0.00    +0.000 OA
BRANCH  20  21
ATOM     21  C   UNL     1       1.132   4.171  20.212  0.00  0.00    +0.000 C 
BRANCH  21  22
ATOM     22  C   UNL     1       1.138   3.164  21.358  0.00  0.00    +0.000 C 
BRANCH  22  23
ATOM     23  O   UNL     1       2.423   3.107  21.976  0.00  0.00    +0.000 OA
ATOM     24  H   UNL     1       2.334   2.492  22.726  0.00  0.00    +0.000 HD
ENDBRANCH  22  23
ENDBRANCH  21  22
ENDBRANCH  20  21
ENDBRANCH   3  20
TORSDOF 5
ENDMDL
MODEL 6
REMARK VINA RESULT:      -6.9      1.058      1.139
REMARK  Name = 
REMARK  5 active torsions:
REMARK  status: ('A' for Active; 'I' for Inactive)
REMARK    1  A    between atoms: C_3  and  O_4
REMARK    2  A    between atoms: O_4  and  C_5
REMARK    3  A    between atoms: C_5  and  C_6
REMARK    4  A    between atoms: C_6  and  O_7
REMARK    5  A    between atoms: C_8  and  C_9
REMARK                            x       y       z     vdW  Elec       q    Type
REMARK                         _______ _______ _______ _____ _____    ______ ____
ROOT
ATOM      1  O   UNL     1       2.640   5.419  20.780  0.00  0.00    +0.000 OA
ATOM      2  C   UNL     1       3.007   5.958  19.739  0.00  0.00    +0.000 A 
ATOM      3  C   UNL     1       4.050   5.388  18.826  0.00  0.00    +0.000 A 
ATOM      4  C   UNL     1       4.341   6.102  17.719  0.00  0.00    +0.000 A 
ATOM      5  O   UNL     1       3.799   7.327  17.373  0.00  0.00    +0.000 OA
ATOM      6  C   UNL     1       2.835   7.862  18.184  0.00  0.00    +0.000 A 
ATOM      7  C   UNL     1       2.282   9.087  17.805  0.00  0.00    +0.000 A 
ATOM      8  C   UNL     1       1.275   9.670  18.581  0.00  0.00    +0.000 A 
ATOM      9  C   UNL     1       0.819   9.028  19.733  0.00  0.00    +0.000 A 
ATOM     10  C   UNL     1       1.379   7.810  20.117  0.00  0.00    +0.000 A 
ATOM     11  C   UNL     1       2.392   7.234  19.340  0.00  0.00    +0.000 A 
ENDROOT
BRANCH   4  12
ATOM     12  C   UNL     1       5.290   5.593  16.716  0.00  0.00    +0.000 A 
ATOM     13  C   UNL     1       4.838   4.954  15.553  0.00  0.00    +0.000 A 
ATOM     14  C   UNL     1       5.759   4.514  14.599  0.00  0.00    +0.000 A 
ATOM     15 BR   UNL     1       5.144   3.659  13.028  0.00  0.00    +0.000 Br
ATOM     16  C   UNL     1       7.129   4.701  14.786  0.00  0.00    +0.000 A 
ATOM     17  C   UNL     1       7.585   5.328  15.946  0.00  0.00    +0.000 A 
ATOM     18  C   UNL     1       6.667   5.765  16.898  0.00  0.00    +0.000 A 
ATOM     19  F   UNL     1       7.131   6.364  18.006  0.00  0.00    +0.000 F 
ENDBRANCH   4  12
BRANCH   3  20
ATOM     20  O   UNL     1       4.702   4.178  19.055  0.00  0.00    +0.000 OA
BRANCH  20  21
ATOM     21  C   UNL     1       3.946   2.969  18.910  0.00  0.00    +0.000 C 
BRANCH  21  22
ATOM     22  C   UNL     1       4.064   2.172  20.206  0.00  0.00    +0.000 C 
BRANCH  22  23
ATOM     23  O   UNL     1       3.096   2.608  21.159  0.00  0.00    +0.000 OA
ATOM     24  H   UNL     1       3.172   2.001  21.918  0.00  0.00    +0.000 HD
ENDBRANCH  22  23
ENDBRANCH  21  22
ENDBRANCH  20  21
ENDBRANCH   3  20
TORSDOF 5
ENDMDL
MODEL 7
REMARK VINA RESULT:      -6.8      1.280      1.669
REMARK  Name = 
REMARK  5 active torsions:
REMARK  status: ('A' for Active; 'I' for Inactive)
REMARK    1  A    between atoms: C_3  and  O_4
REMARK    2  A    between atoms: O_4  and  C_5
REMARK    3  A    between atoms: C_5  and  C_6
REMARK    4  A    between atoms: C_6  and  O_7
REMARK    5  A    between atoms: C_8  and  C_9
REMARK                            x       y       z     vdW  Elec       q    Type
REMARK                         _______ _______ _______ _____ _____    ______ ____
ROOT
ATOM      1  O   UNL     1       2.880   4.491  20.293  0.00  0.00    +0.000 OA
ATOM      2  C   UNL     1       3.237   5.162  19.328  0.00  0.00    +0.000 A 
ATOM      3  C   UNL     1       4.189   4.676  18.278  0.00  0.00    +0.000 A 
ATOM      4  C   UNL     1       4.480   5.537  17.280  0.00  0.00    +0.000 A 
ATOM      5  O   UNL     1       4.017   6.834  17.162  0.00  0.00    +0.000 OA
ATOM      6  C   UNL     1       3.136   7.298  18.101  0.00  0.00    +0.000 A 
ATOM      7  C   UNL     1       2.660   8.602  17.951  0.00  0.00    +0.000 A 
ATOM      8  C   UNL     1       1.739   9.120  18.866  0.00  0.00    +0.000 A 
ATOM      9  C   UNL     1       1.291   8.335  19.929  0.00  0.00    +0.000 A 
ATOM     10  C   UNL     1       1.774   7.036  20.085  0.00  0.00    +0.000 A 
ATOM     11  C   UNL     1       2.702   6.524  19.169  0.00  0.00    +0.000 A 
ENDROOT
BRANCH   4  12
ATOM     12  C   UNL     1       5.339   5.131  16.155  0.00  0.00    +0.000 A 
ATOM     13  C   UNL     1       4.790   4.568  14.995  0.00  0.00    +0.000 A 
ATOM     14  C   UNL     1       5.625   4.227  13.927  0.00  0.00    +0.000 A 
ATOM     15 BR   UNL     1       4.880   3.475  12.360  0.00  0.00    +0.000 Br
ATOM     16  C   UNL     1       7.002   4.439  13.998  0.00  0.00    +0.000 A 
ATOM     17  C   UNL     1       7.554   4.990  15.155  0.00  0.00    +0.000 A 
ATOM     18  C   UNL     1       6.723   5.329  16.220  0.00  0.00    +0.000 A 
ATOM     19  F   UNL     1       7.279   5.856  17.322  0.00  0.00    +0.000 F 
ENDBRANCH   4  12
BRANCH   3  20
ATOM     20  O   UNL     1       4.757   3.404  18.276  0.00  0.00    +0.000 OA
BRANCH  20  21
ATOM     21  C   UNL     1       3.959   2.312  17.804  0.00  0.00    +0.000 C 
BRANCH  21  22
ATOM     22  C   UNL     1       4.026   1.188  18.835  0.00  0.00    +0.000 C 
BRANCH  22  23
ATOM     23  O   UNL     1       4.851   1.561  19.938  0.00  0.00    +0.000 OA
ATOM     24  H   UNL     1       4.293   1.478  20.732  0.00  0.00    +0.000 HD
ENDBRANCH  22  23
ENDBRANCH  21  22
ENDBRANCH  20  21
ENDBRANCH   3  20
TORSDOF 5
ENDMDL
MODEL 8
REMARK VINA RESULT:      -6.8      2.834      5.665
REMARK  Name = 
REMARK  5 active torsions:
REMARK  status: ('A' for Active; 'I' for Inactive)
REMARK    1  A    between atoms: C_3  and  O_4
REMARK    2  A    between atoms: O_4  and  C_5
REMARK    3  A    between atoms: C_5  and  C_6
REMARK    4  A    between atoms: C_6  and  O_7
REMARK    5  A    between atoms: C_8  and  C_9
REMARK                            x       y       z     vdW  Elec       q    Type
REMARK                         _______ _______ _______ _____ _____    ______ ____
ROOT
ATOM      1  O   UNL     1       3.210   3.137  16.941  0.00  0.00    +0.000 OA
ATOM      2  C   UNL     1       3.498   4.284  17.273  0.00  0.00    +0.000 A 
ATOM      3  C   UNL     1       2.573   5.195  18.022  0.00  0.00    +0.000 A 
ATOM      4  C   UNL     1       3.039   6.427  18.313  0.00  0.00    +0.000 A 
ATOM      5  O   UNL     1       4.271   6.939  17.947  0.00  0.00    +0.000 OA
ATOM      6  C   UNL     1       5.140   6.123  17.274  0.00  0.00    +0.000 A 
ATOM      7  C   UNL     1       6.388   6.649  16.934  0.00  0.00    +0.000 A 
ATOM      8  C   UNL     1       7.325   5.854  16.269  0.00  0.00    +0.000 A 
ATOM      9  C   UNL     1       7.017   4.533  15.944  0.00  0.00    +0.000 A 
ATOM     10  C   UNL     1       5.767   4.010  16.272  0.00  0.00    +0.000 A 
ATOM     11  C   UNL     1       4.829   4.813  16.933  0.00  0.00    +0.000 A 
ENDROOT
BRANCH   4  12
ATOM     12  C   UNL     1       2.244   7.369  19.115  0.00  0.00    +0.000 A 
ATOM     13  C   UNL     1       1.723   8.540  18.548  0.00  0.00    +0.000 A 
ATOM     14  C   UNL     1       0.939   9.398  19.324  0.00  0.00    +0.000 A 
ATOM     15 BR   UNL     1       0.232  10.974  18.552  0.00  0.00    +0.000 Br
ATOM     16  C   UNL     1       0.665   9.107  20.660  0.00  0.00    +0.000 A 
ATOM     17  C   UNL     1       1.189   7.948  21.233  0.00  0.00    +0.000 A 
ATOM     18  C   UNL     1       1.972   7.092  20.460  0.00  0.00    +0.000 A 
ATOM     19  F   UNL     1       2.465   5.984  21.035  0.00  0.00    +0.000 F 
ENDBRANCH   4  12
BRANCH   3  20
ATOM     20  O   UNL     1       1.293   4.829  18.435  0.00  0.00    +0.000 OA
BRANCH  20  21
ATOM     21  C   UNL     1       1.176   3.822  19.447  0.00  0.00    +0.000 C 
BRANCH  21  22
ATOM     22  C   UNL     1       0.549   2.581  18.819  0.00  0.00    +0.000 C 
BRANCH  22  23
ATOM     23  O   UNL     1       1.524   1.556  18.638  0.00  0.00    +0.000 OA
ATOM     24  H   UNL     1       1.913   1.395  19.517  0.00  0.00    +0.000 HD
ENDBRANCH  22  23
ENDBRANCH  21  22
ENDBRANCH  20  21
ENDBRANCH   3  20
TORSDOF 5
ENDMDL
MODEL 9
REMARK VINA RESULT:      -6.6      3.265      6.576
REMARK  Name = 
REMARK  5 active torsions:
REMARK  status: ('A' for Active; 'I' for Inactive)
REMARK    1  A    between atoms: C_3  and  O_4
REMARK    2  A    between atoms: O_4  and  C_5
REMARK    3  A    between atoms: C_5  and  C_6
REMARK    4  A    between atoms: C_6  and  O_7
REMARK    5  A    between atoms: C_8  and  C_9
REMARK                            x       y       z     vdW  Elec       q    Type
REMARK                         _______ _______ _______ _____ _____    ______ ____
ROOT
ATOM      1  O   UNL     1       8.407   5.483  14.605  0.00  0.00    +0.000 OA
ATOM      2  C   UNL     1       7.244   5.112  14.742  0.00  0.00    +0.000 A 
ATOM      3  C   UNL     1       6.435   5.342  15.983  0.00  0.00    +0.000 A 
ATOM      4  C   UNL     1       5.170   4.872  15.976  0.00  0.00    +0.000 A 
ATOM      5  O   UNL     1       4.569   4.165  14.951  0.00  0.00    +0.000 OA
ATOM      6  C   UNL     1       5.282   3.954  13.802  0.00  0.00    +0.000 A 
ATOM      7  C   UNL     1       4.650   3.259  12.769  0.00  0.00    +0.000 A 
ATOM      8  C   UNL     1       5.321   3.036  11.563  0.00  0.00    +0.000 A 
ATOM      9  C   UNL     1       6.621   3.508  11.388  0.00  0.00    +0.000 A 
ATOM     10  C   UNL     1       7.257   4.193  12.423  0.00  0.00    +0.000 A 
ATOM     11  C   UNL     1       6.583   4.408  13.632  0.00  0.00    +0.000 A 
ENDROOT
BRANCH   4  12
ATOM     12  C   UNL     1       4.265   5.116  17.111  0.00  0.00    +0.000 A 
ATOM     13  C   UNL     1       3.706   6.382  17.330  0.00  0.00    +0.000 A 
ATOM     14  C   UNL     1       2.819   6.576  18.392  0.00  0.00    +0.000 A 
ATOM     15 BR   UNL     1       2.061   8.285  18.679  0.00  0.00    +0.000 Br
ATOM     16  C   UNL     1       2.480   5.523  19.244  0.00  0.00    +0.000 A 
ATOM     17  C   UNL     1       3.042   4.263  19.036  0.00  0.00    +0.000 A 
ATOM     18  C   UNL     1       3.926   4.070  17.978  0.00  0.00    +0.000 A 
ATOM     19  F   UNL     1       4.454   2.849  17.801  0.00  0.00    +0.000 F 
ENDBRANCH   4  12
BRANCH   3  20
ATOM     20  O   UNL     1       6.913   6.015  17.106  0.00  0.00    +0.000 OA
BRANCH  20  21
ATOM     21  C   UNL     1       7.631   5.259  18.087  0.00  0.00    +0.000 C 
BRANCH  21  22
ATOM     22  C   UNL     1       7.927   6.171  19.274  0.00  0.00    +0.000 C 
BRANCH  22  23
ATOM     23  O   UNL     1       7.976   5.424  20.488  0.00  0.00    +0.000 OA
ATOM     24  H   UNL     1       7.158   5.641  20.972  0.00  0.00    +0.000 HD
ENDBRANCH  22  23
ENDBRANCH  21  22
ENDBRANCH  20  21
ENDBRANCH   3  20
TORSDOF 5
ENDMDL
