MODEL 1
REMARK VINA RESULT:      -6.4      0.000      0.000
REMARK  Name = 
REMARK  20 active torsions:
REMARK  status: ('A' for Active; 'I' for Inactive)
REMARK    1  A    between atoms: C_1  and  C_2
REMARK    2  A    between atoms: C_2  and  C_3
REMARK    3  A    between atoms: C_4  and  C_5
REMARK    4  A    between atoms: C_5  and  C_6
REMARK    5  A    between atoms: C_7  and  C_8
REMARK    6  A    between atoms: C_8  and  C_9
REMARK    7  A    between atoms: C_10  and  C_11
REMARK    8  A    between atoms: C_11  and  C_12
REMARK    9  A    between atoms: C_13  and  C_14
REMARK   10  A    between atoms: C_14  and  C_15
REMARK   11  A    between atoms: C_16  and  C_17
REMARK   12  A    between atoms: C_18  and  C_19
REMARK   13  A    between atoms: C_19  and  C_20
REMARK   14  A    between atoms: C_19  and  O_26
REMARK   15  A    between atoms: C_20  and  C_21
REMARK   16  A    between atoms: C_21  and  C_22
REMARK   17  A    between atoms: C_22  and  O_24
REMARK   18  A    between atoms: O_24  and  C_25
REMARK   19  A    between atoms: O_26  and  C_27
REMARK   20  A    between atoms: C_27  and  C_28
REMARK                            x       y       z     vdW  Elec       q    Type
REMARK                         _______ _______ _______ _____ _____    ______ ____
ROOT
ATOM      1  C   UNL     1       2.693   8.372  17.933  0.00  0.00    +0.000 C 
ATOM      2  C   UNL     1       1.996   9.514  17.807  0.00  0.00    +0.000 C 
ENDROOT
BRANCH   2   3
ATOM      3  C   UNL     1       0.672   9.706  18.344  0.00  0.00    +0.000 C 
ATOM      4  C   UNL     1       0.080  10.900  18.493  0.00  0.00    +0.000 C 
BRANCH   4   5
ATOM      5  C   UNL     1      -1.246  11.063  19.193  0.00  0.00    +0.000 C 
BRANCH   5   6
ATOM      6  C   UNL     1      -1.040  11.968  20.422  0.00  0.00    +0.000 C 
BRANCH   6   7
ATOM      7  C   UNL     1      -2.335  12.545  20.989  0.00  0.00    +0.000 C 
BRANCH   7   8
ATOM      8  C   UNL     1      -2.630  12.048  22.385  0.00  0.00    +0.000 C 
ATOM      9  O   UNL     1      -1.831  11.476  23.105  0.00  0.00    +0.000 OA
BRANCH   8  10
ATOM     10  O   UNL     1      -3.909  12.373  22.716  0.00  0.00    +0.000 OA
ATOM     11  C   UNL     1      -4.744  12.685  21.600  0.00  0.00    +0.000 C 
ENDBRANCH   8  10
ENDBRANCH   7   8
ENDBRANCH   6   7
ENDBRANCH   5   6
BRANCH   5  12
ATOM     12  O   UNL     1      -2.143  11.702  18.268  0.00  0.00    +0.000 OA
BRANCH  12  13
ATOM     13  C   UNL     1      -2.584  10.948  17.222  0.00  0.00    +0.000 C 
ATOM     14  C   UNL     1      -3.262   9.704  17.718  0.00  0.00    +0.000 C 
ATOM     15  O   UNL     1      -2.477  11.234  16.038  0.00  0.00    +0.000 OA
ENDBRANCH  12  13
ENDBRANCH   5  12
ENDBRANCH   4   5
ENDBRANCH   2   3
BRANCH   1  16
ATOM     16  C   UNL     1       2.172   7.108  18.572  0.00  0.00    +0.000 C 
BRANCH  16  18
ATOM     17  C   UNL     1       1.942   6.234  20.944  0.00  0.00    +0.000 C 
ATOM     18  C   UNL     1       1.889   7.232  20.045  0.00  0.00    +0.000 C 
BRANCH  17  19
ATOM     19  C   UNL     1       2.353   4.835  20.594  0.00  0.00    +0.000 C 
BRANCH  19  21
ATOM     20  C   UNL     1       0.815   3.208  19.508  0.00  0.00    +0.000 C 
ATOM     21  C   UNL     1       1.238   3.834  20.622  0.00  0.00    +0.000 C 
BRANCH  20  22
ATOM     22  C   UNL     1       1.424   3.387  18.144  0.00  0.00    +0.000 C 
BRANCH  22  24
ATOM     23  C   UNL     1       3.803   2.876  17.536  0.00  0.00    +0.000 C 
ATOM     24  C   UNL     1       2.582   2.455  17.903  0.00  0.00    +0.000 C 
BRANCH  23  25
ATOM     25  C   UNL     1       4.198   4.318  17.413  0.00  0.00    +0.000 C 
BRANCH  25  27
ATOM     26  C   UNL     1       6.475   4.738  16.466  0.00  0.00    +0.000 C 
ATOM     27  C   UNL     1       5.151   4.580  16.285  0.00  0.00    +0.000 C 
BRANCH  26  29
ATOM     28  C   UNL     1       7.537   6.046  18.321  0.00  0.00    +0.000 C 
ATOM     29  C   UNL     1       7.168   4.668  17.800  0.00  0.00    +0.000 C 
ENDBRANCH  26  29
ENDBRANCH  25  27
ENDBRANCH  23  25
ENDBRANCH  22  24
ENDBRANCH  20  22
ENDBRANCH  19  21
ENDBRANCH  17  19
ENDBRANCH  16  18
ENDBRANCH   1  16
TORSDOF 17
ENDMDL
MODEL 2
REMARK VINA RESULT:      -6.4      4.187      8.972
REMARK  Name = 
REMARK  20 active torsions:
REMARK  status: ('A' for Active; 'I' for Inactive)
REMARK    1  A    between atoms: C_1  and  C_2
REMARK    2  A    between atoms: C_2  and  C_3
REMARK    3  A    between atoms: C_4  and  C_5
REMARK    4  A    between atoms: C_5  and  C_6
REMARK    5  A    between atoms: C_7  and  C_8
REMARK    6  A    between atoms: C_8  and  C_9
REMARK    7  A    between atoms: C_10  and  C_11
REMARK    8  A    between atoms: C_11  and  C_12
REMARK    9  A    between atoms: C_13  and  C_14
REMARK   10  A    between atoms: C_14  and  C_15
REMARK   11  A    between atoms: C_16  and  C_17
REMARK   12  A    between atoms: C_18  and  C_19
REMARK   13  A    between atoms: C_19  and  C_20
REMARK   14  A    between atoms: C_19  and  O_26
REMARK   15  A    between atoms: C_20  and  C_21
REMARK   16  A    between atoms: C_21  and  C_22
REMARK   17  A    between atoms: C_22  and  O_24
REMARK   18  A    between atoms: O_24  and  C_25
REMARK   19  A    between atoms: O_26  and  C_27
REMARK   20  A    between atoms: C_27  and  C_28
REMARK                            x       y       z     vdW  Elec       q    Type
REMARK                         _______ _______ _______ _____ _____    ______ ____
ROOT
ATOM      1  C   UNL     1       1.093   9.608  18.475  0.00  0.00    +0.000 C 
ATOM      2  C   UNL     1       1.866   8.781  17.752  0.00  0.00    +0.000 C 
ENDROOT
BRANCH   2   3
ATOM      3  C   UNL     1       2.722   7.775  18.330  0.00  0.00    +0.000 C 
ATOM      4  C   UNL     1       3.640   7.076  17.646  0.00  0.00    +0.000 C 
BRANCH   4   5
ATOM      5  C   UNL     1       4.410   5.933  18.261  0.00  0.00    +0.000 C 
BRANCH   5   6
ATOM      6  C   UNL     1       3.910   4.618  17.636  0.00  0.00    +0.000 C 
BRANCH   6   7
ATOM      7  C   UNL     1       3.077   3.760  18.585  0.00  0.00    +0.000 C 
BRANCH   7   8
ATOM      8  C   UNL     1       1.593   3.985  18.422  0.00  0.00    +0.000 C 
ATOM      9  O   UNL     1       1.018   4.100  17.354  0.00  0.00    +0.000 OA
BRANCH   8  10
ATOM     10  O   UNL     1       1.003   4.002  19.648  0.00  0.00    +0.000 OA
ATOM     11  C   UNL     1       1.922   4.043  20.741  0.00  0.00    +0.000 C 
ENDBRANCH   8  10
ENDBRANCH   7   8
ENDBRANCH   6   7
ENDBRANCH   5   6
BRANCH   5  12
ATOM     12  O   UNL     1       5.797   6.127  17.935  0.00  0.00    +0.000 OA
BRANCH  12  13
ATOM     13  C   UNL     1       6.701   5.383  18.632  0.00  0.00    +0.000 C 
ATOM     14  C   UNL     1       7.616   4.650  17.695  0.00  0.00    +0.000 C 
ATOM     15  O   UNL     1       6.791   5.323  19.850  0.00  0.00    +0.000 OA
ENDBRANCH  12  13
ENDBRANCH   5  12
ENDBRANCH   4   5
ENDBRANCH   2   3
BRANCH   1  16
ATOM     16  C   UNL     1       1.066   9.665  19.983  0.00  0.00    +0.000 C 
BRANCH  16  18
ATOM     17  C   UNL     1      -0.369   8.777  21.880  0.00  0.00    +0.000 C 
ATOM     18  C   UNL     1       0.096   8.706  20.620  0.00  0.00    +0.000 C 
BRANCH  17  19
ATOM     19  C   UNL     1      -0.010   9.883  22.827  0.00  0.00    +0.000 C 
BRANCH  19  21
ATOM     20  C   UNL     1      -1.421  11.924  22.642  0.00  0.00    +0.000 C 
ATOM     21  C   UNL     1      -1.163  10.746  23.241  0.00  0.00    +0.000 C 
BRANCH  20  22
ATOM     22  C   UNL     1      -0.643  12.482  21.483  0.00  0.00    +0.000 C 
BRANCH  22  24
ATOM     23  C   UNL     1      -0.906  12.812  19.011  0.00  0.00    +0.000 C 
ATOM     24  C   UNL     1      -1.421  12.446  20.195  0.00  0.00    +0.000 C 
BRANCH  23  25
ATOM     25  C   UNL     1       0.526  13.208  18.799  0.00  0.00    +0.000 C 
BRANCH  25  27
ATOM     26  C   UNL     1       1.932  15.271  18.631  0.00  0.00    +0.000 C 
ATOM     27  C   UNL     1       0.766  14.681  18.955  0.00  0.00    +0.000 C 
BRANCH  26  29
ATOM     28  C   UNL     1       4.427  15.262  18.402  0.00  0.00    +0.000 C 
ATOM     29  C   UNL     1       3.128  14.548  18.074  0.00  0.00    +0.000 C 
ENDBRANCH  26  29
ENDBRANCH  25  27
ENDBRANCH  23  25
ENDBRANCH  22  24
ENDBRANCH  20  22
ENDBRANCH  19  21
ENDBRANCH  17  19
ENDBRANCH  16  18
ENDBRANCH   1  16
TORSDOF 17
ENDMDL
MODEL 3
REMARK VINA RESULT:      -6.4      4.334      9.201
REMARK  Name = 
REMARK  20 active torsions:
REMARK  status: ('A' for Active; 'I' for Inactive)
REMARK    1  A    between atoms: C_1  and  C_2
REMARK    2  A    between atoms: C_2  and  C_3
REMARK    3  A    between atoms: C_4  and  C_5
REMARK    4  A    between atoms: C_5  and  C_6
REMARK    5  A    between atoms: C_7  and  C_8
REMARK    6  A    between atoms: C_8  and  C_9
REMARK    7  A    between atoms: C_10  and  C_11
REMARK    8  A    between atoms: C_11  and  C_12
REMARK    9  A    between atoms: C_13  and  C_14
REMARK   10  A    between atoms: C_14  and  C_15
REMARK   11  A    between atoms: C_16  and  C_17
REMARK   12  A    between atoms: C_18  and  C_19
REMARK   13  A    between atoms: C_19  and  C_20
REMARK   14  A    between atoms: C_19  and  O_26
REMARK   15  A    between atoms: C_20  and  C_21
REMARK   16  A    between atoms: C_21  and  C_22
REMARK   17  A    between atoms: C_22  and  O_24
REMARK   18  A    between atoms: O_24  and  C_25
REMARK   19  A    between atoms: O_26  and  C_27
REMARK   20  A    between atoms: C_27  and  C_28
REMARK                            x       y       z     vdW  Elec       q    Type
REMARK                         _______ _______ _______ _____ _____    ______ ____
ROOT
ATOM      1  C   UNL     1       1.429   8.831  18.335  0.00  0.00    +0.000 C 
ATOM      2  C   UNL     1       2.206   8.094  17.523  0.00  0.00    +0.000 C 
ENDROOT
BRANCH   2   3
ATOM      3  C   UNL     1       3.481   7.549  17.915  0.00  0.00    +0.000 C 
ATOM      4  C   UNL     1       3.939   6.345  17.539  0.00  0.00    +0.000 C 
BRANCH   4   5
ATOM      5  C   UNL     1       5.214   5.756  18.090  0.00  0.00    +0.000 C 
BRANCH   5   6
ATOM      6  C   UNL     1       5.042   4.229  18.187  0.00  0.00    +0.000 C 
BRANCH   6   7
ATOM      7  C   UNL     1       3.613   3.751  17.943  0.00  0.00    +0.000 C 
BRANCH   7   8
ATOM      8  C   UNL     1       3.136   2.780  18.998  0.00  0.00    +0.000 C 
ATOM      9  O   UNL     1       3.578   2.709  20.131  0.00  0.00    +0.000 OA
BRANCH   8  10
ATOM     10  O   UNL     1       2.119   2.032  18.493  0.00  0.00    +0.000 OA
ATOM     11  C   UNL     1       0.816   2.537  18.787  0.00  0.00    +0.000 C 
ENDBRANCH   8  10
ENDBRANCH   7   8
ENDBRANCH   6   7
ENDBRANCH   5   6
BRANCH   5  12
ATOM     12  O   UNL     1       6.266   6.067  17.161  0.00  0.00    +0.000 OA
BRANCH  12  13
ATOM     13  C   UNL     1       7.250   6.899  17.603  0.00  0.00    +0.000 C 
ATOM     14  C   UNL     1       7.895   6.343  18.840  0.00  0.00    +0.000 C 
ATOM     15  O   UNL     1       7.595   7.945  17.073  0.00  0.00    +0.000 OA
ENDBRANCH  12  13
ENDBRANCH   5  12
ENDBRANCH   4   5
ENDBRANCH   2   3
BRANCH   1  16
ATOM     16  C   UNL     1       1.805   9.263  19.732  0.00  0.00    +0.000 C 
BRANCH  16  18
ATOM     17  C   UNL     1       0.452   8.227  21.613  0.00  0.00    +0.000 C 
ATOM     18  C   UNL     1       1.518   8.236  20.794  0.00  0.00    +0.000 C 
BRANCH  17  19
ATOM     19  C   UNL     1      -0.649   9.242  21.539  0.00  0.00    +0.000 C 
BRANCH  19  21
ATOM     20  C   UNL     1      -0.485  11.568  22.408  0.00  0.00    +0.000 C 
ATOM     21  C   UNL     1      -0.640  10.252  22.646  0.00  0.00    +0.000 C 
BRANCH  20  22
ATOM     22  C   UNL     1      -0.359  12.180  21.039  0.00  0.00    +0.000 C 
BRANCH  22  24
ATOM     23  C   UNL     1      -2.134  12.257  19.270  0.00  0.00    +0.000 C 
ATOM     24  C   UNL     1      -1.685  12.622  20.481  0.00  0.00    +0.000 C 
BRANCH  23  25
ATOM     25  C   UNL     1      -1.428  11.293  18.362  0.00  0.00    +0.000 C 
BRANCH  25  27
ATOM     26  C   UNL     1      -3.052   9.681  17.351  0.00  0.00    +0.000 C 
ATOM     27  C   UNL     1      -2.105   9.959  18.267  0.00  0.00    +0.000 C 
BRANCH  26  29
ATOM     28  C   UNL     1      -2.923  10.396  14.953  0.00  0.00    +0.000 C 
ATOM     29  C   UNL     1      -3.545  10.653  16.314  0.00  0.00    +0.000 C 
ENDBRANCH  26  29
ENDBRANCH  25  27
ENDBRANCH  23  25
ENDBRANCH  22  24
ENDBRANCH  20  22
ENDBRANCH  19  21
ENDBRANCH  17  19
ENDBRANCH  16  18
ENDBRANCH   1  16
TORSDOF 17
ENDMDL
MODEL 4
REMARK VINA RESULT:      -6.3      1.918      3.645
REMARK  Name = 
REMARK  20 active torsions:
REMARK  status: ('A' for Active; 'I' for Inactive)
REMARK    1  A    between atoms: C_1  and  C_2
REMARK    2  A    between atoms: C_2  and  C_3
REMARK    3  A    between atoms: C_4  and  C_5
REMARK    4  A    between atoms: C_5  and  C_6
REMARK    5  A    between atoms: C_7  and  C_8
REMARK    6  A    between atoms: C_8  and  C_9
REMARK    7  A    between atoms: C_10  and  C_11
REMARK    8  A    between atoms: C_11  and  C_12
REMARK    9  A    between atoms: C_13  and  C_14
REMARK   10  A    between atoms: C_14  and  C_15
REMARK   11  A    between atoms: C_16  and  C_17
REMARK   12  A    between atoms: C_18  and  C_19
REMARK   13  A    between atoms: C_19  and  C_20
REMARK   14  A    between atoms: C_19  and  O_26
REMARK   15  A    between atoms: C_20  and  C_21
REMARK   16  A    between atoms: C_21  and  C_22
REMARK   17  A    between atoms: C_22  and  O_24
REMARK   18  A    between atoms: O_24  and  C_25
REMARK   19  A    between atoms: O_26  and  C_27
REMARK   20  A    between atoms: C_27  and  C_28
REMARK                            x       y       z     vdW  Elec       q    Type
REMARK                         _______ _______ _______ _____ _____    ______ ____
ROOT
ATOM      1  C   UNL     1       2.555   6.626  18.470  0.00  0.00    +0.000 C 
ATOM      2  C   UNL     1       2.336   7.737  17.747  0.00  0.00    +0.000 C 
ENDROOT
BRANCH   2   3
ATOM      3  C   UNL     1       1.950   9.002  18.321  0.00  0.00    +0.000 C 
ATOM      4  C   UNL     1       0.700   9.486  18.315  0.00  0.00    +0.000 C 
BRANCH   4   5
ATOM      5  C   UNL     1       0.369  10.878  18.798  0.00  0.00    +0.000 C 
BRANCH   5   6
ATOM      6  C   UNL     1      -1.161  11.002  18.914  0.00  0.00    +0.000 C 
BRANCH   6   7
ATOM      7  C   UNL     1      -1.881  11.048  17.568  0.00  0.00    +0.000 C 
BRANCH   7   8
ATOM      8  C   UNL     1      -3.362  11.310  17.710  0.00  0.00    +0.000 C 
ATOM      9  O   UNL     1      -3.915  11.651  18.741  0.00  0.00    +0.000 OA
BRANCH   8  10
ATOM     10  O   UNL     1      -3.966  11.142  16.502  0.00  0.00    +0.000 OA
ATOM     11  C   UNL     1      -3.068  10.842  15.433  0.00  0.00    +0.000 C 
ENDBRANCH   8  10
ENDBRANCH   7   8
ENDBRANCH   6   7
ENDBRANCH   5   6
BRANCH   5  12
ATOM     12  O   UNL     1       0.967  11.034  20.097  0.00  0.00    +0.000 OA
BRANCH  12  13
ATOM     13  C   UNL     1       1.230  12.308  20.502  0.00  0.00    +0.000 C 
ATOM     14  C   UNL     1       2.037  13.035  19.465  0.00  0.00    +0.000 C 
ATOM     15  O   UNL     1       0.853  12.820  21.546  0.00  0.00    +0.000 OA
ENDBRANCH  12  13
ENDBRANCH   5  12
ENDBRANCH   4   5
ENDBRANCH   2   3
BRANCH   1  16
ATOM     16  C   UNL     1       2.351   6.512  19.961  0.00  0.00    +0.000 C 
BRANCH  16  18
ATOM     17  C   UNL     1       1.282   4.297  20.590  0.00  0.00    +0.000 C 
ATOM     18  C   UNL     1       1.207   5.620  20.361  0.00  0.00    +0.000 C 
BRANCH  17  19
ATOM     19  C   UNL     1       2.566   3.525  20.524  0.00  0.00    +0.000 C 
BRANCH  19  21
ATOM     20  C   UNL     1       3.110   2.280  18.439  0.00  0.00    +0.000 C 
ATOM     21  C   UNL     1       2.517   2.311  19.647  0.00  0.00    +0.000 C 
BRANCH  20  22
ATOM     22  C   UNL     1       3.918   3.406  17.856  0.00  0.00    +0.000 C 
BRANCH  22  24
ATOM     23  C   UNL     1       5.877   4.847  18.467  0.00  0.00    +0.000 C 
ATOM     24  C   UNL     1       5.043   3.837  18.759  0.00  0.00    +0.000 C 
BRANCH  23  25
ATOM     25  C   UNL     1       5.742   5.734  17.264  0.00  0.00    +0.000 C 
BRANCH  25  27
ATOM     26  C   UNL     1       7.203   4.879  15.422  0.00  0.00    +0.000 C 
ATOM     27  C   UNL     1       6.973   5.767  16.407  0.00  0.00    +0.000 C 
BRANCH  26  29
ATOM     28  C   UNL     1       5.494   4.063  13.782  0.00  0.00    +0.000 C 
ATOM     29  C   UNL     1       6.271   3.758  15.050  0.00  0.00    +0.000 C 
ENDBRANCH  26  29
ENDBRANCH  25  27
ENDBRANCH  23  25
ENDBRANCH  22  24
ENDBRANCH  20  22
ENDBRANCH  19  21
ENDBRANCH  17  19
ENDBRANCH  16  18
ENDBRANCH   1  16
TORSDOF 17
ENDMDL
MODEL 5
REMARK VINA RESULT:      -6.2      2.362      3.611
REMARK  Name = 
REMARK  20 active torsions:
REMARK  status: ('A' for Active; 'I' for Inactive)
REMARK    1  A    between atoms: C_1  and  C_2
REMARK    2  A    between atoms: C_2  and  C_3
REMARK    3  A    between atoms: C_4  and  C_5
REMARK    4  A    between atoms: C_5  and  C_6
REMARK    5  A    between atoms: C_7  and  C_8
REMARK    6  A    between atoms: C_8  and  C_9
REMARK    7  A    between atoms: C_10  and  C_11
REMARK    8  A    between atoms: C_11  and  C_12
REMARK    9  A    between atoms: C_13  and  C_14
REMARK   10  A    between atoms: C_14  and  C_15
REMARK   11  A    between atoms: C_16  and  C_17
REMARK   12  A    between atoms: C_18  and  C_19
REMARK   13  A    between atoms: C_19  and  C_20
REMARK   14  A    between atoms: C_19  and  O_26
REMARK   15  A    between atoms: C_20  and  C_21
REMARK   16  A    between atoms: C_21  and  C_22
REMARK   17  A    between atoms: C_22  and  O_24
REMARK   18  A    between atoms: O_24  and  C_25
REMARK   19  A    between atoms: O_26  and  C_27
REMARK   20  A    between atoms: C_27  and  C_28
REMARK                            x       y       z     vdW  Elec       q    Type
REMARK                         _______ _______ _______ _____ _____    ______ ____
ROOT
ATOM      1  C   UNL     1       2.270   7.513  18.136  0.00  0.00    +0.000 C 
ATOM      2  C   UNL     1       1.712   8.670  17.740  0.00  0.00    +0.000 C 
ENDROOT
BRANCH   2   3
ATOM      3  C   UNL     1       1.506   9.798  18.613  0.00  0.00    +0.000 C 
ATOM      4  C   UNL     1       0.306  10.218  19.039  0.00  0.00    +0.000 C 
BRANCH   4   5
ATOM      5  C   UNL     1       0.128  11.489  19.832  0.00  0.00    +0.000 C 
BRANCH   5   6
ATOM      6  C   UNL     1      -0.697  11.165  21.091  0.00  0.00    +0.000 C 
BRANCH   6   7
ATOM      7  C   UNL     1      -1.858  12.126  21.334  0.00  0.00    +0.000 C 
BRANCH   7   8
ATOM      8  C   UNL     1      -2.000  12.512  22.787  0.00  0.00    +0.000 C 
ATOM      9  O   UNL     1      -1.097  12.934  23.488  0.00  0.00    +0.000 OA
BRANCH   8  10
ATOM     10  O   UNL     1      -3.295  12.349  23.172  0.00  0.00    +0.000 OA
ATOM     11  C   UNL     1      -3.671  13.124  24.310  0.00  0.00    +0.000 C 
ENDBRANCH   8  10
ENDBRANCH   7   8
ENDBRANCH   6   7
ENDBRANCH   5   6
BRANCH   5  12
ATOM     12  O   UNL     1       1.438  11.941  20.215  0.00  0.00    +0.000 OA
BRANCH  12  13
ATOM     13  C   UNL     1       1.580  13.275  20.459  0.00  0.00    +0.000 C 
ATOM     14  C   UNL     1       1.421  14.062  19.191  0.00  0.00    +0.000 C 
ATOM     15  O   UNL     1       1.783  13.785  21.551  0.00  0.00    +0.000 OA
ENDBRANCH  12  13
ENDBRANCH   5  12
ENDBRANCH   4   5
ENDBRANCH   2   3
BRANCH   1  16
ATOM     16  C   UNL     1       2.683   7.193  19.552  0.00  0.00    +0.000 C 
BRANCH  16  18
ATOM     17  C   UNL     1       1.629   5.054  20.420  0.00  0.00    +0.000 C 
ATOM     18  C   UNL     1       1.668   6.394  20.325  0.00  0.00    +0.000 C 
BRANCH  17  19
ATOM     19  C   UNL     1       2.652   4.155  19.791  0.00  0.00    +0.000 C 
BRANCH  19  21
ATOM     20  C   UNL     1       3.320   3.996  17.399  0.00  0.00    +0.000 C 
ATOM     21  C   UNL     1       2.387   3.822  18.354  0.00  0.00    +0.000 C 
BRANCH  20  22
ATOM     22  C   UNL     1       4.721   4.482  17.652  0.00  0.00    +0.000 C 
BRANCH  22  24
ATOM     23  C   UNL     1       5.437   5.657  15.556  0.00  0.00    +0.000 C 
ATOM     24  C   UNL     1       5.062   5.705  16.844  0.00  0.00    +0.000 C 
BRANCH  23  25
ATOM     25  C   UNL     1       5.472   4.404  14.732  0.00  0.00    +0.000 C 
BRANCH  25  27
ATOM     26  C   UNL     1       6.591   3.774  12.585  0.00  0.00    +0.000 C 
ATOM     27  C   UNL     1       6.652   4.330  13.810  0.00  0.00    +0.000 C 
BRANCH  26  29
ATOM     28  C   UNL     1       5.622   1.802  11.382  0.00  0.00    +0.000 C 
ATOM     29  C   UNL     1       5.352   3.170  11.984  0.00  0.00    +0.000 C 
ENDBRANCH  26  29
ENDBRANCH  25  27
ENDBRANCH  23  25
ENDBRANCH  22  24
ENDBRANCH  20  22
ENDBRANCH  19  21
ENDBRANCH  17  19
ENDBRANCH  16  18
ENDBRANCH   1  16
TORSDOF 17
ENDMDL
MODEL 6
REMARK VINA RESULT:      -6.2      1.301      1.584
REMARK  Name = 
REMARK  20 active torsions:
REMARK  status: ('A' for Active; 'I' for Inactive)
REMARK    1  A    between atoms: C_1  and  C_2
REMARK    2  A    between atoms: C_2  and  C_3
REMARK    3  A    between atoms: C_4  and  C_5
REMARK    4  A    between atoms: C_5  and  C_6
REMARK    5  A    between atoms: C_7  and  C_8
REMARK    6  A    between atoms: C_8  and  C_9
REMARK    7  A    between atoms: C_10  and  C_11
REMARK    8  A    between atoms: C_11  and  C_12
REMARK    9  A    between atoms: C_13  and  C_14
REMARK   10  A    between atoms: C_14  and  C_15
REMARK   11  A    between atoms: C_16  and  C_17
REMARK   12  A    between atoms: C_18  and  C_19
REMARK   13  A    between atoms: C_19  and  C_20
REMARK   14  A    between atoms: C_19  and  O_26
REMARK   15  A    between atoms: C_20  and  C_21
REMARK   16  A    between atoms: C_21  and  C_22
REMARK   17  A    between atoms: C_22  and  O_24
REMARK   18  A    between atoms: O_24  and  C_25
REMARK   19  A    between atoms: O_26  and  C_27
REMARK   20  A    between atoms: C_27  and  C_28
REMARK                            x       y       z     vdW  Elec       q    Type
REMARK                         _______ _______ _______ _____ _____    ______ ____
ROOT
ATOM      1  C   UNL     1       2.489   7.664  18.096  0.00  0.00    +0.000 C 
ATOM      2  C   UNL     1       1.686   8.586  17.538  0.00  0.00    +0.000 C 
ENDROOT
BRANCH   2   3
ATOM      3  C   UNL     1       0.965   9.580  18.293  0.00  0.00    +0.000 C 
ATOM      4  C   UNL     1      -0.372   9.638  18.388  0.00  0.00    +0.000 C 
BRANCH   4   5
ATOM      5  C   UNL     1      -1.085  10.781  19.068  0.00  0.00    +0.000 C 
BRANCH   5   6
ATOM      6  C   UNL     1      -0.120  11.425  20.079  0.00  0.00    +0.000 C 
BRANCH   6   7
ATOM      7  C   UNL     1       0.287  10.499  21.222  0.00  0.00    +0.000 C 
BRANCH   7   8
ATOM      8  C   UNL     1      -0.364  10.873  22.533  0.00  0.00    +0.000 C 
ATOM      9  O   UNL     1      -0.232  10.258  23.577  0.00  0.00    +0.000 OA
BRANCH   8  10
ATOM     10  O   UNL     1      -1.083  12.015  22.369  0.00  0.00    +0.000 OA
ATOM     11  C   UNL     1      -2.303  12.053  23.110  0.00  0.00    +0.000 C 
ENDBRANCH   8  10
ENDBRANCH   7   8
ENDBRANCH   6   7
ENDBRANCH   5   6
BRANCH   5  12
ATOM     12  O   UNL     1      -1.429  11.738  18.050  0.00  0.00    +0.000 OA
BRANCH  12  13
ATOM     13  C   UNL     1      -2.454  11.404  17.216  0.00  0.00    +0.000 C 
ATOM     14  C   UNL     1      -3.764  11.450  17.946  0.00  0.00    +0.000 C 
ATOM     15  O   UNL     1      -2.350  11.127  16.030  0.00  0.00    +0.000 OA
ENDBRANCH  12  13
ENDBRANCH   5  12
ENDBRANCH   4   5
ENDBRANCH   2   3
BRANCH   1  16
ATOM     16  C   UNL     1       2.690   7.478  19.580  0.00  0.00    +0.000 C 
BRANCH  16  18
ATOM     17  C   UNL     1       1.247   5.830  20.863  0.00  0.00    +0.000 C 
ATOM     18  C   UNL     1       1.454   7.043  20.321  0.00  0.00    +0.000 C 
BRANCH  17  19
ATOM     19  C   UNL     1       2.273   4.737  20.845  0.00  0.00    +0.000 C 
BRANCH  19  21
ATOM     20  C   UNL     1       1.374   2.540  20.099  0.00  0.00    +0.000 C 
ATOM     21  C   UNL     1       1.726   3.366  21.102  0.00  0.00    +0.000 C 
BRANCH  20  22
ATOM     22  C   UNL     1       1.530   2.857  18.637  0.00  0.00    +0.000 C 
BRANCH  22  24
ATOM     23  C   UNL     1       3.760   2.569  17.529  0.00  0.00    +0.000 C 
ATOM     24  C   UNL     1       2.612   2.042  17.982  0.00  0.00    +0.000 C 
BRANCH  23  25
ATOM     25  C   UNL     1       4.156   4.006  17.699  0.00  0.00    +0.000 C 
BRANCH  25  27
ATOM     26  C   UNL     1       5.903   5.312  18.925  0.00  0.00    +0.000 C 
ATOM     27  C   UNL     1       5.103   4.232  18.840  0.00  0.00    +0.000 C 
BRANCH  26  29
ATOM     28  C   UNL     1       7.230   6.390  17.094  0.00  0.00    +0.000 C 
ATOM     29  C   UNL     1       5.949   6.421  17.909  0.00  0.00    +0.000 C 
ENDBRANCH  26  29
ENDBRANCH  25  27
ENDBRANCH  23  25
ENDBRANCH  22  24
ENDBRANCH  20  22
ENDBRANCH  19  21
ENDBRANCH  17  19
ENDBRANCH  16  18
ENDBRANCH   1  16
TORSDOF 17
ENDMDL
MODEL 7
REMARK VINA RESULT:      -6.2      1.895      2.730
REMARK  Name = 
REMARK  20 active torsions:
REMARK  status: ('A' for Active; 'I' for Inactive)
REMARK    1  A    between atoms: C_1  and  C_2
REMARK    2  A    between atoms: C_2  and  C_3
REMARK    3  A    between atoms: C_4  and  C_5
REMARK    4  A    between atoms: C_5  and  C_6
REMARK    5  A    between atoms: C_7  and  C_8
REMARK    6  A    between atoms: C_8  and  C_9
REMARK    7  A    between atoms: C_10  and  C_11
REMARK    8  A    between atoms: C_11  and  C_12
REMARK    9  A    between atoms: C_13  and  C_14
REMARK   10  A    between atoms: C_14  and  C_15
REMARK   11  A    between atoms: C_16  and  C_17
REMARK   12  A    between atoms: C_18  and  C_19
REMARK   13  A    between atoms: C_19  and  C_20
REMARK   14  A    between atoms: C_19  and  O_26
REMARK   15  A    between atoms: C_20  and  C_21
REMARK   16  A    between atoms: C_21  and  C_22
REMARK   17  A    between atoms: C_22  and  O_24
REMARK   18  A    between atoms: O_24  and  C_25
REMARK   19  A    between atoms: O_26  and  C_27
REMARK   20  A    between atoms: C_27  and  C_28
REMARK                            x       y       z     vdW  Elec       q    Type
REMARK                         _______ _______ _______ _____ _____    ______ ____
ROOT
ATOM      1  C   UNL     1       2.865   6.927  18.305  0.00  0.00    +0.000 C 
ATOM      2  C   UNL     1       2.733   8.247  18.088  0.00  0.00    +0.000 C 
ENDROOT
BRANCH   2   3
ATOM      3  C   UNL     1       1.597   9.019  18.526  0.00  0.00    +0.000 C 
ATOM      4  C   UNL     1       1.343  10.279  18.142  0.00  0.00    +0.000 C 
BRANCH   4   5
ATOM      5  C   UNL     1       0.224  11.097  18.738  0.00  0.00    +0.000 C 
BRANCH   5   6
ATOM      6  C   UNL     1       0.308  10.991  20.271  0.00  0.00    +0.000 C 
BRANCH   6   7
ATOM      7  C   UNL     1      -1.016  11.263  20.982  0.00  0.00    +0.000 C 
BRANCH   7   8
ATOM      8  C   UNL     1      -0.847  11.459  22.471  0.00  0.00    +0.000 C 
ATOM      9  O   UNL     1      -0.547  12.512  23.006  0.00  0.00    +0.000 OA
BRANCH   8  10
ATOM     10  O   UNL     1      -1.117  10.290  23.112  0.00  0.00    +0.000 OA
ATOM     11  C   UNL     1       0.032   9.481  23.367  0.00  0.00    +0.000 C 
ENDBRANCH   8  10
ENDBRANCH   7   8
ENDBRANCH   6   7
ENDBRANCH   5   6
BRANCH   5  12
ATOM     12  O   UNL     1       0.430  12.462  18.335  0.00  0.00    +0.000 OA
BRANCH  12  13
ATOM     13  C   UNL     1       1.533  13.089  18.833  0.00  0.00    +0.000 C 
ATOM     14  C   UNL     1       1.134  14.191  19.771  0.00  0.00    +0.000 C 
ATOM     15  O   UNL     1       2.694  12.798  18.587  0.00  0.00    +0.000 OA
ENDBRANCH  12  13
ENDBRANCH   5  12
ENDBRANCH   4   5
ENDBRANCH   2   3
BRANCH   1  16
ATOM     16  C   UNL     1       1.823   6.050  18.955  0.00  0.00    +0.000 C 
BRANCH  16  18
ATOM     17  C   UNL     1       2.062   4.858  21.183  0.00  0.00    +0.000 C 
ATOM     18  C   UNL     1       1.923   5.980  20.455  0.00  0.00    +0.000 C 
BRANCH  17  19
ATOM     19  C   UNL     1       2.188   3.494  20.573  0.00  0.00    +0.000 C 
BRANCH  19  21
ATOM     20  C   UNL     1       1.028   2.432  18.645  0.00  0.00    +0.000 C 
ATOM     21  C   UNL     1       0.962   3.018  19.855  0.00  0.00    +0.000 C 
BRANCH  20  22
ATOM     22  C   UNL     1       2.305   2.140  17.906  0.00  0.00    +0.000 C 
BRANCH  22  24
ATOM     23  C   UNL     1       3.905   3.887  17.083  0.00  0.00    +0.000 C 
ATOM     24  C   UNL     1       2.717   3.269  16.999  0.00  0.00    +0.000 C 
BRANCH  23  25
ATOM     25  C   UNL     1       5.006   3.477  18.017  0.00  0.00    +0.000 C 
BRANCH  25  27
ATOM     26  C   UNL     1       6.215   5.391  19.082  0.00  0.00    +0.000 C 
ATOM     27  C   UNL     1       5.244   4.460  19.125  0.00  0.00    +0.000 C 
BRANCH  26  29
ATOM     28  C   UNL     1       7.414   7.039  17.624  0.00  0.00    +0.000 C 
ATOM     29  C   UNL     1       7.172   5.573  17.935  0.00  0.00    +0.000 C 
ENDBRANCH  26  29
ENDBRANCH  25  27
ENDBRANCH  23  25
ENDBRANCH  22  24
ENDBRANCH  20  22
ENDBRANCH  19  21
ENDBRANCH  17  19
ENDBRANCH  16  18
ENDBRANCH   1  16
TORSDOF 17
ENDMDL
MODEL 8
REMARK VINA RESULT:      -6.2      2.766      4.715
REMARK  Name = 
REMARK  20 active torsions:
REMARK  status: ('A' for Active; 'I' for Inactive)
REMARK    1  A    between atoms: C_1  and  C_2
REMARK    2  A    between atoms: C_2  and  C_3
REMARK    3  A    between atoms: C_4  and  C_5
REMARK    4  A    between atoms: C_5  and  C_6
REMARK    5  A    between atoms: C_7  and  C_8
REMARK    6  A    between atoms: C_8  and  C_9
REMARK    7  A    between atoms: C_10  and  C_11
REMARK    8  A    between atoms: C_11  and  C_12
REMARK    9  A    between atoms: C_13  and  C_14
REMARK   10  A    between atoms: C_14  and  C_15
REMARK   11  A    between atoms: C_16  and  C_17
REMARK   12  A    between atoms: C_18  and  C_19
REMARK   13  A    between atoms: C_19  and  C_20
REMARK   14  A    between atoms: C_19  and  O_26
REMARK   15  A    between atoms: C_20  and  C_21
REMARK   16  A    between atoms: C_21  and  C_22
REMARK   17  A    between atoms: C_22  and  O_24
REMARK   18  A    between atoms: O_24  and  C_25
REMARK   19  A    between atoms: O_26  and  C_27
REMARK   20  A    between atoms: C_27  and  C_28
REMARK                            x       y       z     vdW  Elec       q    Type
REMARK                         _______ _______ _______ _____ _____    ______ ____
ROOT
ATOM      1  C   UNL     1       3.244   7.687  18.028  0.00  0.00    +0.000 C 
ATOM      2  C   UNL     1       2.532   8.804  17.802  0.00  0.00    +0.000 C 
ENDROOT
BRANCH   2   3
ATOM      3  C   UNL     1       1.125   8.928  18.089  0.00  0.00    +0.000 C 
ATOM      4  C   UNL     1       0.405  10.041  17.886  0.00  0.00    +0.000 C 
BRANCH   4   5
ATOM      5  C   UNL     1      -1.029  10.170  18.337  0.00  0.00    +0.000 C 
BRANCH   5   6
ATOM      6  C   UNL     1      -1.111  11.298  19.382  0.00  0.00    +0.000 C 
BRANCH   6   7
ATOM      7  C   UNL     1      -0.878  10.829  20.816  0.00  0.00    +0.000 C 
BRANCH   7   8
ATOM      8  C   UNL     1       0.178  11.640  21.529  0.00  0.00    +0.000 C 
ATOM      9  O   UNL     1       1.233  12.000  21.035  0.00  0.00    +0.000 OA
BRANCH   8  10
ATOM     10  O   UNL     1      -0.251  11.932  22.786  0.00  0.00    +0.000 OA
ATOM     11  C   UNL     1      -1.476  11.296  23.151  0.00  0.00    +0.000 C 
ENDBRANCH   8  10
ENDBRANCH   7   8
ENDBRANCH   6   7
ENDBRANCH   5   6
BRANCH   5  12
ATOM     12  O   UNL     1      -1.811  10.524  17.183  0.00  0.00    +0.000 OA
BRANCH  12  13
ATOM     13  C   UNL     1      -3.141  10.230  17.229  0.00  0.00    +0.000 C 
ATOM     14  C   UNL     1      -3.935  11.260  16.479  0.00  0.00    +0.000 C 
ATOM     15  O   UNL     1      -3.641   9.258  17.777  0.00  0.00    +0.000 OA
ENDBRANCH  12  13
ENDBRANCH   5  12
ENDBRANCH   4   5
ENDBRANCH   2   3
BRANCH   1  16
ATOM     16  C   UNL     1       2.670   6.384  18.531  0.00  0.00    +0.000 C 
BRANCH  16  18
ATOM     17  C   UNL     1       4.074   4.504  17.565  0.00  0.00    +0.000 C 
ATOM     18  C   UNL     1       2.930   5.207  17.631  0.00  0.00    +0.000 C 
BRANCH  17  19
ATOM     19  C   UNL     1       5.258   4.779  18.442  0.00  0.00    +0.000 C 
BRANCH  19  21
ATOM     20  C   UNL     1       7.679   4.996  17.910  0.00  0.00    +0.000 C 
ATOM     21  C   UNL     1       6.558   4.251  17.916  0.00  0.00    +0.000 C 
BRANCH  20  22
ATOM     22  C   UNL     1       7.781   6.391  18.463  0.00  0.00    +0.000 C 
BRANCH  22  24
ATOM     23  C   UNL     1       7.918   8.730  17.570  0.00  0.00    +0.000 C 
ATOM     24  C   UNL     1       7.564   7.446  17.411  0.00  0.00    +0.000 C 
BRANCH  23  25
ATOM     25  C   UNL     1       8.656   9.261  18.764  0.00  0.00    +0.000 C 
BRANCH  25  27
ATOM     26  C   UNL     1       9.658  11.432  19.501  0.00  0.00    +0.000 C 
ATOM     27  C   UNL     1       9.324  10.581  18.513  0.00  0.00    +0.000 C 
BRANCH  26  29
ATOM     28  C   UNL     1       9.257  12.468  21.746  0.00  0.00    +0.000 C 
ATOM     29  C   UNL     1       9.417  11.177  20.964  0.00  0.00    +0.000 C 
ENDBRANCH  26  29
ENDBRANCH  25  27
ENDBRANCH  23  25
ENDBRANCH  22  24
ENDBRANCH  20  22
ENDBRANCH  19  21
ENDBRANCH  17  19
ENDBRANCH  16  18
ENDBRANCH   1  16
TORSDOF 17
ENDMDL
MODEL 9
REMARK VINA RESULT:      -6.1      1.478      3.551
REMARK  Name = 
REMARK  20 active torsions:
REMARK  status: ('A' for Active; 'I' for Inactive)
REMARK    1  A    between atoms: C_1  and  C_2
REMARK    2  A    between atoms: C_2  and  C_3
REMARK    3  A    between atoms: C_4  and  C_5
REMARK    4  A    between atoms: C_5  and  C_6
REMARK    5  A    between atoms: C_7  and  C_8
REMARK    6  A    between atoms: C_8  and  C_9
REMARK    7  A    between atoms: C_10  and  C_11
REMARK    8  A    between atoms: C_11  and  C_12
REMARK    9  A    between atoms: C_13  and  C_14
REMARK   10  A    between atoms: C_14  and  C_15
REMARK   11  A    between atoms: C_16  and  C_17
REMARK   12  A    between atoms: C_18  and  C_19
REMARK   13  A    between atoms: C_19  and  C_20
REMARK   14  A    between atoms: C_19  and  O_26
REMARK   15  A    between atoms: C_20  and  C_21
REMARK   16  A    between atoms: C_21  and  C_22
REMARK   17  A    between atoms: C_22  and  O_24
REMARK   18  A    between atoms: O_24  and  C_25
REMARK   19  A    between atoms: O_26  and  C_27
REMARK   20  A    between atoms: C_27  and  C_28
REMARK                            x       y       z     vdW  Elec       q    Type
REMARK                         _______ _______ _______ _____ _____    ______ ____
ROOT
ATOM      1  C   UNL     1       2.353   7.956  18.096  0.00  0.00    +0.000 C 
ATOM      2  C   UNL     1       1.951   9.162  17.662  0.00  0.00    +0.000 C 
ENDROOT
BRANCH   2   3
ATOM      3  C   UNL     1       1.286  10.132  18.496  0.00  0.00    +0.000 C 
ATOM      4  C   UNL     1      -0.002  10.060  18.863  0.00  0.00    +0.000 C 
BRANCH   4   5
ATOM      5  C   UNL     1      -0.692  11.171  19.615  0.00  0.00    +0.000 C 
BRANCH   5   6
ATOM      6  C   UNL     1      -2.084  11.388  18.994  0.00  0.00    +0.000 C 
BRANCH   6   7
ATOM      7  C   UNL     1      -2.052  11.702  17.500  0.00  0.00    +0.000 C 
BRANCH   7   8
ATOM      8  C   UNL     1      -3.243  11.139  16.762  0.00  0.00    +0.000 C 
ATOM      9  O   UNL     1      -4.246  10.695  17.292  0.00  0.00    +0.000 OA
BRANCH   8  10
ATOM     10  O   UNL     1      -3.033  11.244  15.422  0.00  0.00    +0.000 OA
ATOM     11  C   UNL     1      -3.235  10.029  14.699  0.00  0.00    +0.000 C 
ENDBRANCH   8  10
ENDBRANCH   7   8
ENDBRANCH   6   7
ENDBRANCH   5   6
BRANCH   5  12
ATOM     12  O   UNL     1      -0.834  10.741  20.980  0.00  0.00    +0.000 OA
BRANCH  12  13
ATOM     13  C   UNL     1      -1.151  11.700  21.896  0.00  0.00    +0.000 C 
ATOM     14  C   UNL     1      -0.145  12.813  21.863  0.00  0.00    +0.000 C 
ATOM     15  O   UNL     1      -2.125  11.689  22.635  0.00  0.00    +0.000 OA
ENDBRANCH  12  13
ENDBRANCH   5  12
ENDBRANCH   4   5
ENDBRANCH   2   3
BRANCH   1  16
ATOM     16  C   UNL     1       2.098   7.407  19.479  0.00  0.00    +0.000 C 
BRANCH  16  18
ATOM     17  C   UNL     1       2.755   5.126  20.379  0.00  0.00    +0.000 C 
ATOM     18  C   UNL     1       3.074   6.346  19.911  0.00  0.00    +0.000 C 
BRANCH  17  19
ATOM     19  C   UNL     1       1.344   4.631  20.486  0.00  0.00    +0.000 C 
BRANCH  19  21
ATOM     20  C   UNL     1       1.808   2.189  20.594  0.00  0.00    +0.000 C 
ATOM     21  C   UNL     1       1.206   3.276  21.111  0.00  0.00    +0.000 C 
BRANCH  20  22
ATOM     22  C   UNL     1       2.712   2.203  19.392  0.00  0.00    +0.000 C 
BRANCH  22  24
ATOM     23  C   UNL     1       2.574   3.222  17.105  0.00  0.00    +0.000 C 
ATOM     24  C   UNL     1       1.987   2.584  18.129  0.00  0.00    +0.000 C 
BRANCH  23  25
ATOM     25  C   UNL     1       4.037   3.550  17.041  0.00  0.00    +0.000 C 
BRANCH  25  27
ATOM     26  C   UNL     1       5.430   5.467  16.238  0.00  0.00    +0.000 C 
ATOM     27  C   UNL     1       4.312   5.010  16.832  0.00  0.00    +0.000 C 
BRANCH  26  29
ATOM     28  C   UNL     1       6.348   4.278  14.233  0.00  0.00    +0.000 C 
ATOM     29  C   UNL     1       6.532   4.591  15.707  0.00  0.00    +0.000 C 
ENDBRANCH  26  29
ENDBRANCH  25  27
ENDBRANCH  23  25
ENDBRANCH  22  24
ENDBRANCH  20  22
ENDBRANCH  19  21
ENDBRANCH  17  19
ENDBRANCH  16  18
ENDBRANCH   1  16
TORSDOF 17
ENDMDL
