MODEL 1
REMARK VINA RESULT:      -8.7      0.000      0.000
REMARK  Name = 
REMARK  6 active torsions:
REMARK  status: ('A' for Active; 'I' for Inactive)
REMARK    1  A    between atoms: C_1  and  C_2
REMARK    2  A    between atoms: C_9  and  C_10
REMARK    3  A    between atoms: N_11  and  N_12
REMARK    4  A    between atoms: C_13  and  C_15
REMARK    5  A    between atoms: C_16  and  O_17
REMARK    6  A    between atoms: N_27  and  C_28
REMARK                            x       y       z     vdW  Elec       q    Type
REMARK                         _______ _______ _______ _____ _____    ______ ____
ROOT
ATOM      1  N   UNL     1       1.692  10.729  18.139  0.00  0.00    +0.000 N 
ATOM      2  C   UNL     1       0.367  11.031  18.256  0.00  0.00    +0.000 C 
ATOM      3  O   UNL     1      -0.468  10.191  17.891  0.00  0.00    +0.000 OA
ATOM      4  H   UNL     1       2.385  11.340  18.541  0.00  0.00    +0.000 HD
ENDROOT
BRANCH   2   5
ATOM      5  C   UNL     1      -0.140  12.510  18.786  0.00  0.00    +0.000 C 
ATOM      6  C   UNL     1      -0.581  13.725  19.312  0.00  0.00    +0.000 C 
ATOM      7  C   UNL     1      -1.038  13.977  20.824  0.00  0.00    +0.000 A 
ATOM      8  C   UNL     1      -1.834  15.021  21.308  0.00  0.00    +0.000 A 
ATOM      9  C   UNL     1      -2.324  14.996  22.648  0.00  0.00    +0.000 A 
ATOM     10  C   UNL     1      -1.959  13.999  23.561  0.00  0.00    +0.000 A 
ATOM     11  C   UNL     1      -1.110  13.003  23.146  0.00  0.00    +0.000 A 
ATOM     12  C   UNL     1      -0.746  12.997  21.801  0.00  0.00    +0.000 A 
ATOM     13  S   UNL     1      -0.228  11.488  21.128  0.00  0.00    +0.000 S 
ATOM     14  O   UNL     1      -0.848  10.402  21.845  0.00  0.00    +0.000 OA
ATOM     15  O   UNL     1       1.207  11.686  21.012  0.00  0.00    +0.000 OA
ATOM     16  N   UNL     1      -1.065  11.802  19.673  0.00  0.00    +0.000 N 
ATOM     17  C   UNL     1      -2.237  11.125  19.081  0.00  0.00    +0.000 C 
BRANCH   6  18
ATOM     18  O   UNL     1      -0.587  14.915  18.596  0.00  0.00    +0.000 OA
ATOM     19  H   UNL     1      -1.496  15.150  18.354  0.00  0.00    +0.000 HD
ENDBRANCH   6  18
ENDBRANCH   2   5
BRANCH   1  21
ATOM     20  C   UNL     1       2.210   8.477  18.683  0.00  0.00    +0.000 C 
ATOM     21  N   UNL     1       2.170   9.446  17.813  0.00  0.00    +0.000 NA
BRANCH  20  30
ATOM     22  C   UNL     1       6.676   4.783  14.169  0.00  0.00    +0.000 C 
ATOM     23  C   UNL     1       5.808   4.764  15.391  0.00  0.00    +0.000 A 
ATOM     24  C   UNL     1       5.478   3.584  16.058  0.00  0.00    +0.000 A 
ATOM     25  C   UNL     1       4.633   3.620  17.179  0.00  0.00    +0.000 A 
ATOM     26  C   UNL     1       4.089   4.812  17.651  0.00  0.00    +0.000 A 
ATOM     27  N   UNL     1       3.247   4.820  18.703  0.00  0.00    +0.000 NA
ATOM     28  C   UNL     1       2.672   6.001  19.059  0.00  0.00    +0.000 A 
ATOM     29 CL   UNL     1       1.649   5.843  20.433  0.00  0.00    +0.000 Cl
ATOM     30  C   UNL     1       2.925   7.205  18.428  0.00  0.00    +0.000 A 
ATOM     31  C   UNL     1       3.864   7.203  17.395  0.00  0.00    +0.000 A 
ATOM     32  C   UNL     1       4.433   5.998  16.973  0.00  0.00    +0.000 A 
ATOM     33  C   UNL     1       5.291   5.969  15.865  0.00  0.00    +0.000 A 
ENDBRANCH  20  30
ENDBRANCH   1  21
TORSDOF 4
ENDMDL
MODEL 2
REMARK VINA RESULT:      -8.7      7.305      8.788
REMARK  Name = 
REMARK  6 active torsions:
REMARK  status: ('A' for Active; 'I' for Inactive)
REMARK    1  A    between atoms: C_1  and  C_2
REMARK    2  A    between atoms: C_9  and  C_10
REMARK    3  A    between atoms: N_11  and  N_12
REMARK    4  A    between atoms: C_13  and  C_15
REMARK    5  A    between atoms: C_16  and  O_17
REMARK    6  A    between atoms: N_27  and  C_28
REMARK                            x       y       z     vdW  Elec       q    Type
REMARK                         _______ _______ _______ _____ _____    ______ ____
ROOT
ATOM      1  N   UNL     1       8.596   9.962  17.706  0.00  0.00    +0.000 N 
ATOM      2  C   UNL     1       9.533  10.709  18.358  0.00  0.00    +0.000 C 
ATOM      3  O   UNL     1       9.770  10.457  19.548  0.00  0.00    +0.000 OA
ATOM      4  H   UNL     1       8.476  10.064  16.711  0.00  0.00    +0.000 HD
ENDROOT
BRANCH   2   5
ATOM      5  C   UNL     1      10.285  11.985  17.628  0.00  0.00    +0.000 C 
ATOM      6  C   UNL     1      10.884  13.114  17.068  0.00  0.00    +0.000 C 
ATOM      7  C   UNL     1      10.725  14.614  17.599  0.00  0.00    +0.000 A 
ATOM      8  C   UNL     1      10.962  15.796  16.888  0.00  0.00    +0.000 A 
ATOM      9  C   UNL     1      10.579  17.058  17.435  0.00  0.00    +0.000 A 
ATOM     10  C   UNL     1      10.051  17.187  18.726  0.00  0.00    +0.000 A 
ATOM     11  C   UNL     1       9.883  16.056  19.486  0.00  0.00    +0.000 A 
ATOM     12  C   UNL     1      10.160  14.833  18.877  0.00  0.00    +0.000 A 
ATOM     13  S   UNL     1       9.396  13.428  19.541  0.00  0.00    +0.000 S 
ATOM     14  O   UNL     1       8.153  13.804  20.166  0.00  0.00    +0.000 OA
ATOM     15  O   UNL     1      10.501  12.781  20.229  0.00  0.00    +0.000 OA
ATOM     16  N   UNL     1       9.116  12.792  17.982  0.00  0.00    +0.000 N 
ATOM     17  C   UNL     1       7.849  12.560  17.259  0.00  0.00    +0.000 C 
BRANCH   6  18
ATOM     18  O   UNL     1      11.789  13.063  16.016  0.00  0.00    +0.000 OA
ATOM     19  H   UNL     1      12.474  13.739  16.137  0.00  0.00    +0.000 HD
ENDBRANCH   6  18
ENDBRANCH   2   5
BRANCH   1  21
ATOM     20  C   UNL     1       7.766   7.747  17.512  0.00  0.00    +0.000 C 
ATOM     21  N   UNL     1       8.024   8.795  18.242  0.00  0.00    +0.000 NA
BRANCH  20  30
ATOM     22  C   UNL     1       1.185   4.480  17.463  0.00  0.00    +0.000 C 
ATOM     23  C   UNL     1       2.577   4.522  18.017  0.00  0.00    +0.000 A 
ATOM     24  C   UNL     1       2.975   3.743  19.105  0.00  0.00    +0.000 A 
ATOM     25  C   UNL     1       4.283   3.848  19.606  0.00  0.00    +0.000 A 
ATOM     26  C   UNL     1       5.213   4.726  19.056  0.00  0.00    +0.000 A 
ATOM     27  N   UNL     1       6.450   4.840  19.578  0.00  0.00    +0.000 NA
ATOM     28  C   UNL     1       7.284   5.782  19.059  0.00  0.00    +0.000 A 
ATOM     29 CL   UNL     1       8.828   5.779  19.816  0.00  0.00    +0.000 Cl
ATOM     30  C   UNL     1       6.951   6.611  18.004  0.00  0.00    +0.000 A 
ATOM     31  C   UNL     1       5.699   6.428  17.413  0.00  0.00    +0.000 A 
ATOM     32  C   UNL     1       4.803   5.503  17.955  0.00  0.00    +0.000 A 
ATOM     33  C   UNL     1       3.504   5.390  17.440  0.00  0.00    +0.000 A 
ENDBRANCH  20  30
ENDBRANCH   1  21
TORSDOF 4
ENDMDL
MODEL 3
REMARK VINA RESULT:      -8.6      7.208      8.961
REMARK  Name = 
REMARK  6 active torsions:
REMARK  status: ('A' for Active; 'I' for Inactive)
REMARK    1  A    between atoms: C_1  and  C_2
REMARK    2  A    between atoms: C_9  and  C_10
REMARK    3  A    between atoms: N_11  and  N_12
REMARK    4  A    between atoms: C_13  and  C_15
REMARK    5  A    between atoms: C_16  and  O_17
REMARK    6  A    between atoms: N_27  and  C_28
REMARK                            x       y       z     vdW  Elec       q    Type
REMARK                         _______ _______ _______ _____ _____    ______ ____
ROOT
ATOM      1  N   UNL     1       8.380   9.602  17.500  0.00  0.00    +0.000 N 
ATOM      2  C   UNL     1       9.125  10.148  18.504  0.00  0.00    +0.000 C 
ATOM      3  O   UNL     1       8.852   9.852  19.676  0.00  0.00    +0.000 OA
ATOM      4  H   UNL     1       8.659   9.727  16.540  0.00  0.00    +0.000 HD
ENDROOT
BRANCH   2   5
ATOM      5  C   UNL     1      10.315  11.252  18.196  0.00  0.00    +0.000 C 
ATOM      6  C   UNL     1      11.286  12.233  17.998  0.00  0.00    +0.000 C 
ATOM      7  C   UNL     1      11.428  13.588  18.836  0.00  0.00    +0.000 A 
ATOM      8  C   UNL     1      12.101  14.755  18.457  0.00  0.00    +0.000 A 
ATOM      9  C   UNL     1      11.966  15.951  19.224  0.00  0.00    +0.000 A 
ATOM     10  C   UNL     1      11.249  15.992  20.427  0.00  0.00    +0.000 A 
ATOM     11  C   UNL     1      10.645  14.844  20.875  0.00  0.00    +0.000 A 
ATOM     12  C   UNL     1      10.703  13.728  20.043  0.00  0.00    +0.000 A 
ATOM     13  S   UNL     1       9.482  12.519  20.255  0.00  0.00    +0.000 S 
ATOM     14  O   UNL     1       8.285  13.127  20.778  0.00  0.00    +0.000 OA
ATOM     15  O   UNL     1      10.222  11.456  20.915  0.00  0.00    +0.000 OA
ATOM     16  N   UNL     1       9.353  12.292  18.567  0.00  0.00    +0.000 N 
ATOM     17  C   UNL     1       8.236  12.587  17.647  0.00  0.00    +0.000 C 
BRANCH   6  18
ATOM     18  O   UNL     1      12.333  12.108  17.094  0.00  0.00    +0.000 OA
ATOM     19  H   UNL     1      12.658  12.986  16.843  0.00  0.00    +0.000 HD
ENDBRANCH   6  18
ENDBRANCH   2   5
BRANCH   1  21
ATOM     20  C   UNL     1       7.425   7.496  16.962  0.00  0.00    +0.000 C 
ATOM     21  N   UNL     1       7.447   8.569  17.701  0.00  0.00    +0.000 NA
BRANCH  20  30
ATOM     22  C   UNL     1       1.512   5.132  20.627  0.00  0.00    +0.000 C 
ATOM     23  C   UNL     1       2.462   4.931  19.484  0.00  0.00    +0.000 A 
ATOM     24  C   UNL     1       2.466   3.771  18.707  0.00  0.00    +0.000 A 
ATOM     25  C   UNL     1       3.400   3.621  17.671  0.00  0.00    +0.000 A 
ATOM     26  C   UNL     1       4.352   4.598  17.391  0.00  0.00    +0.000 A 
ATOM     27  N   UNL     1       5.266   4.415  16.418  0.00  0.00    +0.000 NA
ATOM     28  C   UNL     1       6.231   5.361  16.254  0.00  0.00    +0.000 A 
ATOM     29 CL   UNL     1       7.298   4.991  14.957  0.00  0.00    +0.000 Cl
ATOM     30  C   UNL     1       6.312   6.520  17.003  0.00  0.00    +0.000 A 
ATOM     31  C   UNL     1       5.310   6.743  17.951  0.00  0.00    +0.000 A 
ATOM     32  C   UNL     1       4.336   5.766  18.178  0.00  0.00    +0.000 A 
ATOM     33  C   UNL     1       3.394   5.930  19.202  0.00  0.00    +0.000 A 
ENDBRANCH  20  30
ENDBRANCH   1  21
TORSDOF 4
ENDMDL
MODEL 4
REMARK VINA RESULT:      -8.6      1.118      1.122
REMARK  Name = 
REMARK  6 active torsions:
REMARK  status: ('A' for Active; 'I' for Inactive)
REMARK    1  A    between atoms: C_1  and  C_2
REMARK    2  A    between atoms: C_9  and  C_10
REMARK    3  A    between atoms: N_11  and  N_12
REMARK    4  A    between atoms: C_13  and  C_15
REMARK    5  A    between atoms: C_16  and  O_17
REMARK    6  A    between atoms: N_27  and  C_28
REMARK                            x       y       z     vdW  Elec       q    Type
REMARK                         _______ _______ _______ _____ _____    ______ ____
ROOT
ATOM      1  N   UNL     1       1.155   9.761  19.072  0.00  0.00    +0.000 N 
ATOM      2  C   UNL     1       1.304  11.050  18.652  0.00  0.00    +0.000 C 
ATOM      3  O   UNL     1       2.261  11.327  17.914  0.00  0.00    +0.000 OA
ATOM      4  H   UNL     1       0.321   9.486  19.566  0.00  0.00    +0.000 HD
ENDROOT
BRANCH   2   5
ATOM      5  C   UNL     1       0.298  12.252  19.173  0.00  0.00    +0.000 C 
ATOM      6  C   UNL     1      -0.573  13.216  19.678  0.00  0.00    +0.000 C 
ATOM      7  C   UNL     1      -1.450  13.077  21.009  0.00  0.00    +0.000 A 
ATOM      8  C   UNL     1      -2.595  13.805  21.352  0.00  0.00    +0.000 A 
ATOM      9  C   UNL     1      -3.383  13.424  22.479  0.00  0.00    +0.000 A 
ATOM     10  C   UNL     1      -3.005  12.388  23.343  0.00  0.00    +0.000 A 
ATOM     11  C   UNL     1      -1.842  11.705  23.085  0.00  0.00    +0.000 A 
ATOM     12  C   UNL     1      -1.161  12.028  21.913  0.00  0.00    +0.000 A 
ATOM     13  S   UNL     1      -0.101  10.827  21.257  0.00  0.00    +0.000 S 
ATOM     14  O   UNL     1      -0.564   9.516  21.637  0.00  0.00    +0.000 OA
ATOM     15  O   UNL     1       1.207  11.366  21.588  0.00  0.00    +0.000 OA
ATOM     16  N   UNL     1      -0.594  11.200  19.665  0.00  0.00    +0.000 N 
ATOM     17  C   UNL     1      -1.348  10.393  18.686  0.00  0.00    +0.000 C 
BRANCH   6  18
ATOM     18  O   UNL     1      -0.720  14.484  19.129  0.00  0.00    +0.000 OA
ATOM     19  H   UNL     1      -0.772  15.145  19.836  0.00  0.00    +0.000 HD
ENDBRANCH   6  18
ENDBRANCH   2   5
BRANCH   1  21
ATOM     20  C   UNL     1       2.021   7.554  19.193  0.00  0.00    +0.000 C 
ATOM     21  N   UNL     1       1.905   8.686  18.560  0.00  0.00    +0.000 NA
BRANCH  20  30
ATOM     22  C   UNL     1       6.632   5.187  13.986  0.00  0.00    +0.000 C 
ATOM     23  C   UNL     1       5.966   4.929  15.304  0.00  0.00    +0.000 A 
ATOM     24  C   UNL     1       6.033   3.694  15.949  0.00  0.00    +0.000 A 
ATOM     25  C   UNL     1       5.360   3.497  17.166  0.00  0.00    +0.000 A 
ATOM     26  C   UNL     1       4.603   4.504  17.759  0.00  0.00    +0.000 A 
ATOM     27  N   UNL     1       3.933   4.280  18.906  0.00  0.00    +0.000 NA
ATOM     28  C   UNL     1       3.133   5.270  19.389  0.00  0.00    +0.000 A 
ATOM     29 CL   UNL     1       2.373   4.837  20.869  0.00  0.00    +0.000 Cl
ATOM     30  C   UNL     1       2.991   6.509  18.790  0.00  0.00    +0.000 A 
ATOM     31  C   UNL     1       3.756   6.763  17.649  0.00  0.00    +0.000 A 
ATOM     32  C   UNL     1       4.547   5.749  17.103  0.00  0.00    +0.000 A 
ATOM     33  C   UNL     1       5.231   5.956  15.897  0.00  0.00    +0.000 A 
ENDBRANCH  20  30
ENDBRANCH   1  21
TORSDOF 4
ENDMDL
MODEL 5
REMARK VINA RESULT:      -8.4      2.738      4.313
REMARK  Name = 
REMARK  6 active torsions:
REMARK  status: ('A' for Active; 'I' for Inactive)
REMARK    1  A    between atoms: C_1  and  C_2
REMARK    2  A    between atoms: C_9  and  C_10
REMARK    3  A    between atoms: N_11  and  N_12
REMARK    4  A    between atoms: C_13  and  C_15
REMARK    5  A    between atoms: C_16  and  O_17
REMARK    6  A    between atoms: N_27  and  C_28
REMARK                            x       y       z     vdW  Elec       q    Type
REMARK                         _______ _______ _______ _____ _____    ______ ____
ROOT
ATOM      1  N   UNL     1      -0.586  11.017  22.520  0.00  0.00    +0.000 N 
ATOM      2  C   UNL     1      -0.550  12.332  22.161  0.00  0.00    +0.000 C 
ATOM      3  O   UNL     1      -0.044  12.638  21.071  0.00  0.00    +0.000 OA
ATOM      4  H   UNL     1      -1.101  10.732  23.338  0.00  0.00    +0.000 HD
ENDROOT
BRANCH   2   5
ATOM      5  C   UNL     1      -1.080  13.522  23.177  0.00  0.00    +0.000 C 
ATOM      6  C   UNL     1      -1.608  14.510  24.008  0.00  0.00    +0.000 C 
ATOM      7  C   UNL     1      -3.156  14.890  24.140  0.00  0.00    +0.000 A 
ATOM      8  C   UNL     1      -3.699  16.082  24.631  0.00  0.00    +0.000 A 
ATOM      9  C   UNL     1      -5.094  16.352  24.495  0.00  0.00    +0.000 A 
ATOM     10  C   UNL     1      -5.991  15.415  23.966  0.00  0.00    +0.000 A 
ATOM     11  C   UNL     1      -5.506  14.200  23.550  0.00  0.00    +0.000 A 
ATOM     12  C   UNL     1      -4.126  14.017  23.592  0.00  0.00    +0.000 A 
ATOM     13  S   UNL     1      -3.454  12.816  22.541  0.00  0.00    +0.000 S 
ATOM     14  O   UNL     1      -4.296  12.664  21.382  0.00  0.00    +0.000 OA
ATOM     15  O   UNL     1      -3.132  11.747  23.472  0.00  0.00    +0.000 OA
ATOM     16  N   UNL     1      -2.116  13.816  22.185  0.00  0.00    +0.000 N 
ATOM     17  C   UNL     1      -1.721  14.467  20.920  0.00  0.00    +0.000 C 
BRANCH   6  18
ATOM     18  O   UNL     1      -0.849  15.238  24.915  0.00  0.00    +0.000 OA
ATOM     19  H   UNL     1      -1.161  15.069  25.817  0.00  0.00    +0.000 HD
ENDBRANCH   6  18
ENDBRANCH   2   5
BRANCH   1  21
ATOM     20  C   UNL     1       0.896   9.373  21.661  0.00  0.00    +0.000 C 
ATOM     21  N   UNL     1      -0.265   9.965  21.643  0.00  0.00    +0.000 NA
BRANCH  20  30
ATOM     22  C   UNL     1       3.369   2.633  20.101  0.00  0.00    +0.000 C 
ATOM     23  C   UNL     1       3.039   4.010  19.608  0.00  0.00    +0.000 A 
ATOM     24  C   UNL     1       3.383   4.451  18.329  0.00  0.00    +0.000 A 
ATOM     25  C   UNL     1       3.080   5.763  17.931  0.00  0.00    +0.000 A 
ATOM     26  C   UNL     1       2.448   6.663  18.785  0.00  0.00    +0.000 A 
ATOM     27  N   UNL     1       2.203   7.930  18.396  0.00  0.00    +0.000 NA
ATOM     28  C   UNL     1       1.671   8.791  19.305  0.00  0.00    +0.000 A 
ATOM     29 CL   UNL     1       1.396  10.355  18.645  0.00  0.00    +0.000 Cl
ATOM     30  C   UNL     1       1.332   8.438  20.599  0.00  0.00    +0.000 A 
ATOM     31  C   UNL     1       1.508   7.102  20.966  0.00  0.00    +0.000 A 
ATOM     32  C   UNL     1       2.100   6.206  20.071  0.00  0.00    +0.000 A 
ATOM     33  C   UNL     1       2.384   4.892  20.467  0.00  0.00    +0.000 A 
ENDBRANCH  20  30
ENDBRANCH   1  21
TORSDOF 4
ENDMDL
MODEL 6
REMARK VINA RESULT:      -8.3      6.751     10.302
REMARK  Name = 
REMARK  6 active torsions:
REMARK  status: ('A' for Active; 'I' for Inactive)
REMARK    1  A    between atoms: C_1  and  C_2
REMARK    2  A    between atoms: C_9  and  C_10
REMARK    3  A    between atoms: N_11  and  N_12
REMARK    4  A    between atoms: C_13  and  C_15
REMARK    5  A    between atoms: C_16  and  O_17
REMARK    6  A    between atoms: N_27  and  C_28
REMARK                            x       y       z     vdW  Elec       q    Type
REMARK                         _______ _______ _______ _____ _____    ______ ____
ROOT
ATOM      1  N   UNL     1       7.348   8.133  17.241  0.00  0.00    +0.000 N 
ATOM      2  C   UNL     1       7.432   6.915  17.848  0.00  0.00    +0.000 C 
ATOM      3  O   UNL     1       8.128   6.805  18.868  0.00  0.00    +0.000 OA
ATOM      4  H   UNL     1       6.694   8.277  16.489  0.00  0.00    +0.000 HD
ENDROOT
BRANCH   2   5
ATOM      5  C   UNL     1       6.705   5.577  17.207  0.00  0.00    +0.000 C 
ATOM      6  C   UNL     1       6.019   4.471  16.706  0.00  0.00    +0.000 C 
ATOM      7  C   UNL     1       4.481   4.127  16.975  0.00  0.00    +0.000 A 
ATOM      8  C   UNL     1       3.852   2.883  16.841  0.00  0.00    +0.000 A 
ATOM      9  C   UNL     1       2.519   2.691  17.314  0.00  0.00    +0.000 A 
ATOM     10  C   UNL     1       1.750   3.741  17.834  0.00  0.00    +0.000 A 
ATOM     11  C   UNL     1       2.305   4.994  17.902  0.00  0.00    +0.000 A 
ATOM     12  C   UNL     1       3.644   5.118  17.539  0.00  0.00    +0.000 A 
ATOM     13  S   UNL     1       4.516   6.469  18.181  0.00  0.00    +0.000 S 
ATOM     14  O   UNL     1       3.938   6.862  19.442  0.00  0.00    +0.000 OA
ATOM     15  O   UNL     1       4.628   7.336  17.020  0.00  0.00    +0.000 OA
ATOM     16  N   UNL     1       5.905   5.507  18.432  0.00  0.00    +0.000 N 
ATOM     17  C   UNL     1       6.563   5.088  19.686  0.00  0.00    +0.000 C 
BRANCH   6  18
ATOM     18  O   UNL     1       6.573   3.562  15.814  0.00  0.00    +0.000 OA
ATOM     19  H   UNL     1       5.960   3.406  15.079  0.00  0.00    +0.000 HD
ENDBRANCH   6  18
ENDBRANCH   2   5
BRANCH   1  21
ATOM     20  C   UNL     1       8.957   9.358  18.486  0.00  0.00    +0.000 C 
ATOM     21  N   UNL     1       7.842   9.320  17.813  0.00  0.00    +0.000 NA
BRANCH  20  30
ATOM     22  C   UNL     1       7.874  13.217  24.643  0.00  0.00    +0.000 C 
ATOM     23  C   UNL     1       8.574  13.104  23.322  0.00  0.00    +0.000 A 
ATOM     24  C   UNL     1       9.318  14.151  22.776  0.00  0.00    +0.000 A 
ATOM     25  C   UNL     1       9.925  14.004  21.518  0.00  0.00    +0.000 A 
ATOM     26  C   UNL     1       9.798  12.834  20.774  0.00  0.00    +0.000 A 
ATOM     27  N   UNL     1      10.354  12.729  19.551  0.00  0.00    +0.000 NA
ATOM     28  C   UNL     1      10.117  11.599  18.830  0.00  0.00    +0.000 A 
ATOM     29 CL   UNL     1      10.918  11.612  17.308  0.00  0.00    +0.000 Cl
ATOM     30  C   UNL     1       9.365  10.533  19.290  0.00  0.00    +0.000 A 
ATOM     31  C   UNL     1       8.865  10.614  20.591  0.00  0.00    +0.000 A 
ATOM     32  C   UNL     1       9.049  11.782  21.336  0.00  0.00    +0.000 A 
ATOM     33  C   UNL     1       8.457  11.917  22.599  0.00  0.00    +0.000 A 
ENDBRANCH  20  30
ENDBRANCH   1  21
TORSDOF 4
ENDMDL
MODEL 7
REMARK VINA RESULT:      -8.1      1.440      1.902
REMARK  Name = 
REMARK  6 active torsions:
REMARK  status: ('A' for Active; 'I' for Inactive)
REMARK    1  A    between atoms: C_1  and  C_2
REMARK    2  A    between atoms: C_9  and  C_10
REMARK    3  A    between atoms: N_11  and  N_12
REMARK    4  A    between atoms: C_13  and  C_15
REMARK    5  A    between atoms: C_16  and  O_17
REMARK    6  A    between atoms: N_27  and  C_28
REMARK                            x       y       z     vdW  Elec       q    Type
REMARK                         _______ _______ _______ _____ _____    ______ ____
ROOT
ATOM      1  N   UNL     1       0.663  10.606  18.606  0.00  0.00    +0.000 N 
ATOM      2  C   UNL     1      -0.222  10.612  19.644  0.00  0.00    +0.000 C 
ATOM      3  O   UNL     1      -0.184   9.681  20.461  0.00  0.00    +0.000 OA
ATOM      4  H   UNL     1       0.737  11.410  18.002  0.00  0.00    +0.000 HD
ENDROOT
BRANCH   2   5
ATOM      5  C   UNL     1      -1.386  11.775  19.782  0.00  0.00    +0.000 C 
ATOM      6  C   UNL     1      -2.311  12.808  19.934  0.00  0.00    +0.000 C 
ATOM      7  C   UNL     1      -2.004  14.251  20.552  0.00  0.00    +0.000 A 
ATOM      8  C   UNL     1      -2.926  15.162  21.081  0.00  0.00    +0.000 A 
ATOM      9  C   UNL     1      -2.477  16.322  21.781  0.00  0.00    +0.000 A 
ATOM     10  C   UNL     1      -1.120  16.656  21.886  0.00  0.00    +0.000 A 
ATOM     11  C   UNL     1      -0.191  15.829  21.306  0.00  0.00    +0.000 A 
ATOM     12  C   UNL     1      -0.659  14.649  20.732  0.00  0.00    +0.000 A 
ATOM     13  S   UNL     1       0.471  13.347  20.568  0.00  0.00    +0.000 S 
ATOM     14  O   UNL     1       1.480  13.452  21.591  0.00  0.00    +0.000 OA
ATOM     15  O   UNL     1       0.740  13.359  19.140  0.00  0.00    +0.000 OA
ATOM     16  N   UNL     1      -0.718  12.204  21.012  0.00  0.00    +0.000 N 
ATOM     17  C   UNL     1      -0.816  11.344  22.209  0.00  0.00    +0.000 C 
BRANCH   6  18
ATOM     18  O   UNL     1      -3.618  12.745  19.469  0.00  0.00    +0.000 OA
ATOM     19  H   UNL     1      -3.932  13.635  19.246  0.00  0.00    +0.000 HD
ENDBRANCH   6  18
ENDBRANCH   2   5
BRANCH   1  21
ATOM     20  C   UNL     1       1.631   8.530  17.984  0.00  0.00    +0.000 C 
ATOM     21  N   UNL     1       1.747   9.714  18.515  0.00  0.00    +0.000 NA
BRANCH  20  30
ATOM     22  C   UNL     1       7.014   4.906  14.538  0.00  0.00    +0.000 C 
ATOM     23  C   UNL     1       6.180   5.066  15.774  0.00  0.00    +0.000 A 
ATOM     24  C   UNL     1       6.203   4.142  16.819  0.00  0.00    +0.000 A 
ATOM     25  C   UNL     1       5.375   4.323  17.939  0.00  0.00    +0.000 A 
ATOM     26  C   UNL     1       4.504   5.404  18.042  0.00  0.00    +0.000 A 
ATOM     27  N   UNL     1       3.689   5.537  19.106  0.00  0.00    +0.000 NA
ATOM     28  C   UNL     1       2.792   6.560  19.108  0.00  0.00    +0.000 A 
ATOM     29 CL   UNL     1       1.849   6.605  20.545  0.00  0.00    +0.000 Cl
ATOM     30  C   UNL     1       2.688   7.497  18.096  0.00  0.00    +0.000 A 
ATOM     31  C   UNL     1       3.594   7.403  17.037  0.00  0.00    +0.000 A 
ATOM     32  C   UNL     1       4.493   6.334  16.984  0.00  0.00    +0.000 A 
ATOM     33  C   UNL     1       5.330   6.168  15.872  0.00  0.00    +0.000 A 
ENDBRANCH  20  30
ENDBRANCH   1  21
TORSDOF 4
ENDMDL
MODEL 8
REMARK VINA RESULT:      -7.9      1.356      1.605
REMARK  Name = 
REMARK  6 active torsions:
REMARK  status: ('A' for Active; 'I' for Inactive)
REMARK    1  A    between atoms: C_1  and  C_2
REMARK    2  A    between atoms: C_9  and  C_10
REMARK    3  A    between atoms: N_11  and  N_12
REMARK    4  A    between atoms: C_13  and  C_15
REMARK    5  A    between atoms: C_16  and  O_17
REMARK    6  A    between atoms: N_27  and  C_28
REMARK                            x       y       z     vdW  Elec       q    Type
REMARK                         _______ _______ _______ _____ _____    ______ ____
ROOT
ATOM      1  N   UNL     1       0.993  10.333  18.927  0.00  0.00    +0.000 N 
ATOM      2  C   UNL     1      -0.292  10.597  18.553  0.00  0.00    +0.000 C 
ATOM      3  O   UNL     1      -0.800   9.917  17.650  0.00  0.00    +0.000 OA
ATOM      4  H   UNL     1       1.384  10.785  19.738  0.00  0.00    +0.000 HD
ENDROOT
BRANCH   2   5
ATOM      5  C   UNL     1      -1.145  11.850  19.211  0.00  0.00    +0.000 C 
ATOM      6  C   UNL     1      -1.793  12.932  19.806  0.00  0.00    +0.000 C 
ATOM      7  C   UNL     1      -1.112  14.012  20.769  0.00  0.00    +0.000 A 
ATOM      8  C   UNL     1      -1.752  14.859  21.682  0.00  0.00    +0.000 A 
ATOM      9  C   UNL     1      -0.990  15.623  22.616  0.00  0.00    +0.000 A 
ATOM     10  C   UNL     1       0.410  15.645  22.601  0.00  0.00    +0.000 A 
ATOM     11  C   UNL     1       1.072  14.892  21.664  0.00  0.00    +0.000 A 
ATOM     12  C   UNL     1       0.299  14.071  20.846  0.00  0.00    +0.000 A 
ATOM     13  S   UNL     1       1.083  12.705  20.128  0.00  0.00    +0.000 S 
ATOM     14  O   UNL     1       2.178  12.282  20.964  0.00  0.00    +0.000 OA
ATOM     15  O   UNL     1       1.220  13.128  18.744  0.00  0.00    +0.000 OA
ATOM     16  N   UNL     1      -0.289  11.724  20.393  0.00  0.00    +0.000 N 
ATOM     17  C   UNL     1      -0.472  10.557  21.280  0.00  0.00    +0.000 C 
BRANCH   6  18
ATOM     18  O   UNL     1      -3.117  13.269  19.555  0.00  0.00    +0.000 OA
ATOM     19  H   UNL     1      -3.682  12.488  19.663  0.00  0.00    +0.000 HD
ENDBRANCH   6  18
ENDBRANCH   2   5
BRANCH   1  21
ATOM     20  C   UNL     1       1.707   8.079  19.143  0.00  0.00    +0.000 C 
ATOM     21  N   UNL     1       1.712   9.206  18.489  0.00  0.00    +0.000 NA
BRANCH  20  30
ATOM     22  C   UNL     1       6.535   5.334  14.334  0.00  0.00    +0.000 C 
ATOM     23  C   UNL     1       5.759   5.144  15.603  0.00  0.00    +0.000 A 
ATOM     24  C   UNL     1       5.703   3.920  16.271  0.00  0.00    +0.000 A 
ATOM     25  C   UNL     1       4.932   3.789  17.437  0.00  0.00    +0.000 A 
ATOM     26  C   UNL     1       4.197   4.851  17.956  0.00  0.00    +0.000 A 
ATOM     27  N   UNL     1       3.431   4.692  19.053  0.00  0.00    +0.000 NA
ATOM     28  C   UNL     1       2.660   5.738  19.458  0.00  0.00    +0.000 A 
ATOM     29 CL   UNL     1       1.768   5.382  20.885  0.00  0.00    +0.000 Cl
ATOM     30  C   UNL     1       2.638   6.970  18.831  0.00  0.00    +0.000 A 
ATOM     31  C   UNL     1       3.499   7.154  17.746  0.00  0.00    +0.000 A 
ATOM     32  C   UNL     1       4.265   6.084  17.277  0.00  0.00    +0.000 A 
ATOM     33  C   UNL     1       5.047   6.225  16.122  0.00  0.00    +0.000 A 
ENDBRANCH  20  30
ENDBRANCH   1  21
TORSDOF 4
ENDMDL
MODEL 9
REMARK VINA RESULT:      -7.9      2.088      3.209
REMARK  Name = 
REMARK  6 active torsions:
REMARK  status: ('A' for Active; 'I' for Inactive)
REMARK    1  A    between atoms: C_1  and  C_2
REMARK    2  A    between atoms: C_9  and  C_10
REMARK    3  A    between atoms: N_11  and  N_12
REMARK    4  A    between atoms: C_13  and  C_15
REMARK    5  A    between atoms: C_16  and  O_17
REMARK    6  A    between atoms: N_27  and  C_28
REMARK                            x       y       z     vdW  Elec       q    Type
REMARK                         _______ _______ _______ _____ _____    ______ ____
ROOT
ATOM      1  N   UNL     1       0.378  11.232  19.596  0.00  0.00    +0.000 N 
ATOM      2  C   UNL     1       0.290  12.117  20.630  0.00  0.00    +0.000 C 
ATOM      3  O   UNL     1       1.017  11.950  21.619  0.00  0.00    +0.000 OA
ATOM      4  H   UNL     1      -0.109  11.416  18.733  0.00  0.00    +0.000 HD
ENDROOT
BRANCH   2   5
ATOM      5  C   UNL     1      -0.818  13.343  20.628  0.00  0.00    +0.000 C 
ATOM      6  C   UNL     1      -1.699  14.422  20.577  0.00  0.00    +0.000 C 
ATOM      7  C   UNL     1      -1.455  15.789  19.782  0.00  0.00    +0.000 A 
ATOM      8  C   UNL     1      -2.085  17.021  19.997  0.00  0.00    +0.000 A 
ATOM      9  C   UNL     1      -1.614  18.198  19.341  0.00  0.00    +0.000 A 
ATOM     10  C   UNL     1      -0.584  18.166  18.392  0.00  0.00    +0.000 A 
ATOM     11  C   UNL     1       0.001  16.961  18.093  0.00  0.00    +0.000 A 
ATOM     12  C   UNL     1      -0.406  15.854  18.835  0.00  0.00    +0.000 A 
ATOM     13  S   UNL     1       0.693  14.520  18.934  0.00  0.00    +0.000 S 
ATOM     14  O   UNL     1       2.045  14.997  18.793  0.00  0.00    +0.000 OA
ATOM     15  O   UNL     1       0.066  13.547  18.055  0.00  0.00    +0.000 OA
ATOM     16  N   UNL     1       0.312  14.273  20.581  0.00  0.00    +0.000 N 
ATOM     17  C   UNL     1       1.145  14.440  21.789  0.00  0.00    +0.000 C 
BRANCH   6  18
ATOM     18  O   UNL     1      -2.967  14.408  21.144  0.00  0.00    +0.000 OA
ATOM     19  H   UNL     1      -2.911  14.124  22.069  0.00  0.00    +0.000 HD
ENDBRANCH   6  18
ENDBRANCH   2   5
BRANCH   1  21
ATOM     20  C   UNL     1       1.306   9.258  18.660  0.00  0.00    +0.000 C 
ATOM     21  N   UNL     1       1.384  10.254  19.496  0.00  0.00    +0.000 NA
BRANCH  20  30
ATOM     22  C   UNL     1       6.189   5.184  14.979  0.00  0.00    +0.000 C 
ATOM     23  C   UNL     1       5.387   5.382  16.230  0.00  0.00    +0.000 A 
ATOM     24  C   UNL     1       5.302   4.410  17.229  0.00  0.00    +0.000 A 
ATOM     25  C   UNL     1       4.509   4.634  18.365  0.00  0.00    +0.000 A 
ATOM     26  C   UNL     1       3.777   5.807  18.531  0.00  0.00    +0.000 A 
ATOM     27  N   UNL     1       2.989   5.984  19.610  0.00  0.00    +0.000 NA
ATOM     28  C   UNL     1       2.224   7.108  19.672  0.00  0.00    +0.000 A 
ATOM     29 CL   UNL     1       1.301   7.194  21.120  0.00  0.00    +0.000 Cl
ATOM     30  C   UNL     1       2.230   8.100  18.709  0.00  0.00    +0.000 A 
ATOM     31  C   UNL     1       3.112   7.950  17.637  0.00  0.00    +0.000 A 
ATOM     32  C   UNL     1       3.873   6.784  17.520  0.00  0.00    +0.000 A 
ATOM     33  C   UNL     1       4.678   6.573  16.392  0.00  0.00    +0.000 A 
ENDBRANCH  20  30
ENDBRANCH   1  21
TORSDOF 4
ENDMDL
