MODEL 1
REMARK VINA RESULT:      -8.4      0.000      0.000
REMARK  Name = 
REMARK  9 active torsions:
REMARK  status: ('A' for Active; 'I' for Inactive)
REMARK    1  A    between atoms: C_1  and  O_2
REMARK    2  A    between atoms: O_2  and  C_3
REMARK    3  A    between atoms: C_8  and  O_9
REMARK    4  A    between atoms: O_9  and  C_10
REMARK    5  A    between atoms: C_13  and  C_14
REMARK    6  A    between atoms: C_14  and  C_15
REMARK    7  A    between atoms: N_18  and  C_19
REMARK    8  A    between atoms: C_19  and  C_20
REMARK    9  A    between atoms: C_23  and  N_24
REMARK                            x       y       z     vdW  Elec       q    Type
REMARK                         _______ _______ _______ _____ _____    ______ ____
ROOT
ATOM      1  C   UNL     1       1.644   3.919  21.200  0.00  0.00    +0.000 C 
ATOM      2  C   UNL     1       2.634   2.755  21.366  0.00  0.00    +0.000 C 
ATOM      3  C   UNL     1       3.505   2.602  20.115  0.00  0.00    +0.000 C 
ATOM      4  N   UNL     1       2.704   2.440  18.873  0.00  0.00    +0.000 NA
ATOM      5  C   UNL     1       1.624   3.445  18.711  0.00  0.00    +0.000 C 
ATOM      6  C   UNL     1       0.769   3.577  19.977  0.00  0.00    +0.000 C 
ENDROOT
BRANCH   1   7
ATOM      7  C   UNL     1       2.286   5.332  21.039  0.00  0.00    +0.000 C 
BRANCH   7  16
ATOM      8  C   UNL     1       0.599  11.179  20.284  0.00  0.00    +0.000 A 
ATOM      9  C   UNL     1       0.397  10.069  21.154  0.00  0.00    +0.000 A 
ATOM     10  C   UNL     1       0.894   8.815  20.785  0.00  0.00    +0.000 A 
ATOM     11  C   UNL     1       1.598   8.671  19.622  0.00  0.00    +0.000 A 
ATOM     12  C   UNL     1       1.805   9.720  18.740  0.00  0.00    +0.000 A 
ATOM     13  C   UNL     1       1.295  10.996  19.060  0.00  0.00    +0.000 A 
ATOM     14  C   UNL     1       2.053   7.313  19.503  0.00  0.00    +0.000 C 
ATOM     15  O   UNL     1       2.750   6.897  18.589  0.00  0.00    +0.000 OA
ATOM     16  C   UNL     1       1.371   6.465  20.529  0.00  0.00    +0.000 C 
ATOM     17  C   UNL     1       0.844   7.517  21.553  0.00  0.00    +0.000 C 
BRANCH   8  19
ATOM     18  C   UNL     1      -0.188  12.863  21.861  0.00  0.00    +0.000 C 
ATOM     19  O   UNL     1       0.154  12.426  20.596  0.00  0.00    +0.000 OA
ENDBRANCH   8  19
BRANCH  13  20
ATOM     20  O   UNL     1       1.476  12.057  18.226  0.00  0.00    +0.000 OA
ATOM     21  C   UNL     1       2.624  12.828  18.161  0.00  0.00    +0.000 C 
ENDBRANCH  13  20
ENDBRANCH   7  16
ENDBRANCH   1   7
BRANCH   4  22
ATOM     22  C   UNL     1       3.574   2.394  17.667  0.00  0.00    +0.000 C 
BRANCH  22  23
ATOM     23  C   UNL     1       4.640   3.483  17.643  0.00  0.00    +0.000 A 
ATOM     24  C   UNL     1       5.224   3.930  18.840  0.00  0.00    +0.000 A 
ATOM     25  C   UNL     1       6.161   4.969  18.833  0.00  0.00    +0.000 A 
ATOM     26  C   UNL     1       6.544   5.578  17.626  0.00  0.00    +0.000 A 
ATOM     27  C   UNL     1       5.974   5.116  16.424  0.00  0.00    +0.000 A 
ATOM     28  C   UNL     1       5.035   4.079  16.435  0.00  0.00    +0.000 A 
BRANCH  26  29
ATOM     29  N   UNL     1       7.493   6.653  17.614  0.00  0.00    +0.000 N 
ATOM     30  O   UNL     1       7.736   7.230  16.596  0.00  0.00    +0.000 OA
ATOM     31  O   UNL     1       8.111   7.004  18.717  0.00  0.00    +0.000 OA
ENDBRANCH  26  29
ENDBRANCH  22  23
ENDBRANCH   4  22
TORSDOF 7
ENDMDL
MODEL 2
REMARK VINA RESULT:      -8.3      0.650      1.088
REMARK  Name = 
REMARK  9 active torsions:
REMARK  status: ('A' for Active; 'I' for Inactive)
REMARK    1  A    between atoms: C_1  and  O_2
REMARK    2  A    between atoms: O_2  and  C_3
REMARK    3  A    between atoms: C_8  and  O_9
REMARK    4  A    between atoms: O_9  and  C_10
REMARK    5  A    between atoms: C_13  and  C_14
REMARK    6  A    between atoms: C_14  and  C_15
REMARK    7  A    between atoms: N_18  and  C_19
REMARK    8  A    between atoms: C_19  and  C_20
REMARK    9  A    between atoms: C_23  and  N_24
REMARK                            x       y       z     vdW  Elec       q    Type
REMARK                         _______ _______ _______ _____ _____    ______ ____
ROOT
ATOM      1  C   UNL     1       1.425   4.201  21.145  0.00  0.00    +0.000 C 
ATOM      2  C   UNL     1       2.332   3.044  21.593  0.00  0.00    +0.000 C 
ATOM      3  C   UNL     1       3.283   2.633  20.464  0.00  0.00    +0.000 C 
ATOM      4  N   UNL     1       2.568   2.288  19.207  0.00  0.00    +0.000 NA
ATOM      5  C   UNL     1       1.562   3.293  18.783  0.00  0.00    +0.000 C 
ATOM      6  C   UNL     1       0.625   3.686  19.931  0.00  0.00    +0.000 C 
ENDROOT
BRANCH   1   7
ATOM      7  C   UNL     1       2.157   5.535  20.794  0.00  0.00    +0.000 C 
BRANCH   7  16
ATOM      8  C   UNL     1       0.649  11.441  20.136  0.00  0.00    +0.000 A 
ATOM      9  C   UNL     1       0.397  10.319  20.975  0.00  0.00    +0.000 A 
ATOM     10  C   UNL     1       0.868   9.060  20.589  0.00  0.00    +0.000 A 
ATOM     11  C   UNL     1       1.593   8.921  19.438  0.00  0.00    +0.000 A 
ATOM     12  C   UNL     1       1.848   9.983  18.585  0.00  0.00    +0.000 A 
ATOM     13  C   UNL     1       1.366  11.265  18.923  0.00  0.00    +0.000 A 
ATOM     14  C   UNL     1       2.013   7.554  19.298  0.00  0.00    +0.000 C 
ATOM     15  O   UNL     1       2.718   7.139  18.390  0.00  0.00    +0.000 OA
ATOM     16  C   UNL     1       1.285   6.703  20.290  0.00  0.00    +0.000 C 
ATOM     17  C   UNL     1       0.765   7.748  21.327  0.00  0.00    +0.000 C 
BRANCH   8  19
ATOM     18  C   UNL     1       0.845  13.529  21.379  0.00  0.00    +0.000 C 
ATOM     19  O   UNL     1       0.231  12.694  20.466  0.00  0.00    +0.000 OA
ENDBRANCH   8  19
BRANCH  13  20
ATOM     20  O   UNL     1       1.595  12.339  18.116  0.00  0.00    +0.000 OA
ATOM     21  C   UNL     1       2.743  13.111  18.131  0.00  0.00    +0.000 C 
ENDBRANCH  13  20
ENDBRANCH   7  16
ENDBRANCH   1   7
BRANCH   4  22
ATOM     22  C   UNL     1       3.521   1.990  18.103  0.00  0.00    +0.000 C 
BRANCH  22  23
ATOM     23  C   UNL     1       4.393   3.178  17.715  0.00  0.00    +0.000 A 
ATOM     24  C   UNL     1       4.431   3.627  16.385  0.00  0.00    +0.000 A 
ATOM     25  C   UNL     1       5.272   4.680  16.009  0.00  0.00    +0.000 A 
ATOM     26  C   UNL     1       6.086   5.318  16.960  0.00  0.00    +0.000 A 
ATOM     27  C   UNL     1       6.033   4.883  18.298  0.00  0.00    +0.000 A 
ATOM     28  C   UNL     1       5.193   3.827  18.670  0.00  0.00    +0.000 A 
BRANCH  26  29
ATOM     29  N   UNL     1       6.961   6.388  16.579  0.00  0.00    +0.000 N 
ATOM     30  O   UNL     1       7.764   6.228  15.709  0.00  0.00    +0.000 OA
ATOM     31  O   UNL     1       6.894   7.549  17.189  0.00  0.00    +0.000 OA
ENDBRANCH  26  29
ENDBRANCH  22  23
ENDBRANCH   4  22
TORSDOF 7
ENDMDL
MODEL 3
REMARK VINA RESULT:      -8.2      1.178      1.471
REMARK  Name = 
REMARK  9 active torsions:
REMARK  status: ('A' for Active; 'I' for Inactive)
REMARK    1  A    between atoms: C_1  and  O_2
REMARK    2  A    between atoms: O_2  and  C_3
REMARK    3  A    between atoms: C_8  and  O_9
REMARK    4  A    between atoms: O_9  and  C_10
REMARK    5  A    between atoms: C_13  and  C_14
REMARK    6  A    between atoms: C_14  and  C_15
REMARK    7  A    between atoms: N_18  and  C_19
REMARK    8  A    between atoms: C_19  and  C_20
REMARK    9  A    between atoms: C_23  and  N_24
REMARK                            x       y       z     vdW  Elec       q    Type
REMARK                         _______ _______ _______ _____ _____    ______ ____
ROOT
ATOM      1  C   UNL     1       1.983   4.264  20.214  0.00  0.00    +0.000 C 
ATOM      2  C   UNL     1       3.072   3.193  20.379  0.00  0.00    +0.000 C 
ATOM      3  C   UNL     1       4.102   3.289  19.249  0.00  0.00    +0.000 C 
ATOM      4  N   UNL     1       3.484   3.210  17.899  0.00  0.00    +0.000 NA
ATOM      5  C   UNL     1       2.324   4.115  17.707  0.00  0.00    +0.000 C 
ATOM      6  C   UNL     1       1.310   3.997  18.852  0.00  0.00    +0.000 C 
ENDROOT
BRANCH   1   7
ATOM      7  C   UNL     1       2.472   5.743  20.305  0.00  0.00    +0.000 C 
BRANCH   7  16
ATOM      8  C   UNL     1       0.288  11.419  21.083  0.00  0.00    +0.000 A 
ATOM      9  C   UNL     1       0.359  10.158  21.740  0.00  0.00    +0.000 A 
ATOM     10  C   UNL     1       0.840   9.049  21.037  0.00  0.00    +0.000 A 
ATOM     11  C   UNL     1       1.270   9.188  19.746  0.00  0.00    +0.000 A 
ATOM     12  C   UNL     1       1.204  10.393  19.064  0.00  0.00    +0.000 A 
ATOM     13  C   UNL     1       0.699  11.530  19.728  0.00  0.00    +0.000 A 
ATOM     14  C   UNL     1       1.772   7.928  19.270  0.00  0.00    +0.000 C 
ATOM     15  O   UNL     1       2.269   7.757  18.167  0.00  0.00    +0.000 OA
ATOM     16  C   UNL     1       1.395   6.845  20.231  0.00  0.00    +0.000 C 
ATOM     17  C   UNL     1       1.048   7.638  21.529  0.00  0.00    +0.000 C 
BRANCH   8  19
ATOM     18  C   UNL     1      -1.088  12.566  22.736  0.00  0.00    +0.000 C 
ATOM     19  O   UNL     1      -0.154  12.538  21.719  0.00  0.00    +0.000 OA
ENDBRANCH   8  19
BRANCH  13  20
ATOM     20  O   UNL     1       0.619  12.736  19.099  0.00  0.00    +0.000 OA
ATOM     21  C   UNL     1      -0.406  13.122  18.252  0.00  0.00    +0.000 C 
ENDBRANCH  13  20
ENDBRANCH   7  16
ENDBRANCH   1   7
BRANCH   4  22
ATOM     22  C   UNL     1       4.496   3.406  16.825  0.00  0.00    +0.000 C 
BRANCH  22  23
ATOM     23  C   UNL     1       5.416   4.597  17.066  0.00  0.00    +0.000 A 
ATOM     24  C   UNL     1       6.721   4.400  17.546  0.00  0.00    +0.000 A 
ATOM     25  C   UNL     1       7.552   5.490  17.825  0.00  0.00    +0.000 A 
ATOM     26  C   UNL     1       7.100   6.805  17.619  0.00  0.00    +0.000 A 
ATOM     27  C   UNL     1       5.799   7.002  17.118  0.00  0.00    +0.000 A 
ATOM     28  C   UNL     1       4.969   5.909  16.843  0.00  0.00    +0.000 A 
BRANCH  26  29
ATOM     29  N   UNL     1       7.942   7.926  17.916  0.00  0.00    +0.000 N 
ATOM     30  O   UNL     1       8.621   7.925  18.899  0.00  0.00    +0.000 OA
ATOM     31  O   UNL     1       7.966   8.968  17.118  0.00  0.00    +0.000 OA
ENDBRANCH  26  29
ENDBRANCH  22  23
ENDBRANCH   4  22
TORSDOF 7
ENDMDL
MODEL 4
REMARK VINA RESULT:      -8.1      4.340     10.368
REMARK  Name = 
REMARK  9 active torsions:
REMARK  status: ('A' for Active; 'I' for Inactive)
REMARK    1  A    between atoms: C_1  and  O_2
REMARK    2  A    between atoms: O_2  and  C_3
REMARK    3  A    between atoms: C_8  and  O_9
REMARK    4  A    between atoms: O_9  and  C_10
REMARK    5  A    between atoms: C_13  and  C_14
REMARK    6  A    between atoms: C_14  and  C_15
REMARK    7  A    between atoms: N_18  and  C_19
REMARK    8  A    between atoms: C_19  and  C_20
REMARK    9  A    between atoms: C_23  and  N_24
REMARK                            x       y       z     vdW  Elec       q    Type
REMARK                         _______ _______ _______ _____ _____    ______ ____
ROOT
ATOM      1  C   UNL     1       0.688  10.721  18.568  0.00  0.00    +0.000 C 
ATOM      2  C   UNL     1       1.275  12.136  18.684  0.00  0.00    +0.000 C 
ATOM      3  C   UNL     1       1.089  12.685  20.103  0.00  0.00    +0.000 C 
ATOM      4  N   UNL     1      -0.329  12.664  20.546  0.00  0.00    +0.000 NA
ATOM      5  C   UNL     1      -1.015  11.366  20.330  0.00  0.00    +0.000 C 
ATOM      6  C   UNL     1      -0.813  10.841  18.903  0.00  0.00    +0.000 C 
ENDROOT
BRANCH   1   7
ATOM      7  C   UNL     1       1.365   9.634  19.460  0.00  0.00    +0.000 C 
BRANCH   7  16
ATOM      8  C   UNL     1       5.021   5.021  17.744  0.00  0.00    +0.000 A 
ATOM      9  C   UNL     1       4.482   6.247  17.262  0.00  0.00    +0.000 A 
ATOM     10  C   UNL     1       3.494   6.897  18.007  0.00  0.00    +0.000 A 
ATOM     11  C   UNL     1       3.081   6.376  19.202  0.00  0.00    +0.000 A 
ATOM     12  C   UNL     1       3.568   5.178  19.701  0.00  0.00    +0.000 A 
ATOM     13  C   UNL     1       4.546   4.476  18.966  0.00  0.00    +0.000 A 
ATOM     14  C   UNL     1       2.114   7.255  19.800  0.00  0.00    +0.000 C 
ATOM     15  O   UNL     1       1.603   7.075  20.896  0.00  0.00    +0.000 OA
ATOM     16  C   UNL     1       1.680   8.277  18.798  0.00  0.00    +0.000 C 
ATOM     17  C   UNL     1       2.813   8.215  17.727  0.00  0.00    +0.000 C 
BRANCH   8  19
ATOM     18  C   UNL     1       6.128   4.291  15.699  0.00  0.00    +0.000 C 
ATOM     19  O   UNL     1       5.997   4.351  17.072  0.00  0.00    +0.000 OA
ENDBRANCH   8  19
BRANCH  13  20
ATOM     20  O   UNL     1       5.055   3.296  19.418  0.00  0.00    +0.000 OA
ATOM     21  C   UNL     1       4.300   2.212  19.831  0.00  0.00    +0.000 C 
ENDBRANCH  13  20
ENDBRANCH   7  16
ENDBRANCH   1   7
BRANCH   4  22
ATOM     22  C   UNL     1      -0.464  13.108  21.960  0.00  0.00    +0.000 C 
BRANCH  22  23
ATOM     23  C   UNL     1      -1.908  13.151  22.449  0.00  0.00    +0.000 A 
ATOM     24  C   UNL     1      -2.333  12.297  23.480  0.00  0.00    +0.000 A 
ATOM     25  C   UNL     1      -3.669  12.289  23.895  0.00  0.00    +0.000 A 
ATOM     26  C   UNL     1      -4.609  13.145  23.295  0.00  0.00    +0.000 A 
ATOM     27  C   UNL     1      -4.178  14.016  22.277  0.00  0.00    +0.000 A 
ATOM     28  C   UNL     1      -2.841  14.019  21.862  0.00  0.00    +0.000 A 
BRANCH  26  29
ATOM     29  N   UNL     1      -5.982  13.131  23.706  0.00  0.00    +0.000 N 
ATOM     30  O   UNL     1      -6.591  14.154  23.808  0.00  0.00    +0.000 OA
ATOM     31  O   UNL     1      -6.580  11.996  23.985  0.00  0.00    +0.000 OA
ENDBRANCH  26  29
ENDBRANCH  22  23
ENDBRANCH   4  22
TORSDOF 7
ENDMDL
MODEL 5
REMARK VINA RESULT:      -7.9      4.782     10.754
REMARK  Name = 
REMARK  9 active torsions:
REMARK  status: ('A' for Active; 'I' for Inactive)
REMARK    1  A    between atoms: C_1  and  O_2
REMARK    2  A    between atoms: O_2  and  C_3
REMARK    3  A    between atoms: C_8  and  O_9
REMARK    4  A    between atoms: O_9  and  C_10
REMARK    5  A    between atoms: C_13  and  C_14
REMARK    6  A    between atoms: C_14  and  C_15
REMARK    7  A    between atoms: N_18  and  C_19
REMARK    8  A    between atoms: C_19  and  C_20
REMARK    9  A    between atoms: C_23  and  N_24
REMARK                            x       y       z     vdW  Elec       q    Type
REMARK                         _______ _______ _______ _____ _____    ______ ____
ROOT
ATOM      1  C   UNL     1       0.036  12.087  18.603  0.00  0.00    +0.000 C 
ATOM      2  C   UNL     1       0.253  13.586  18.860  0.00  0.00    +0.000 C 
ATOM      3  C   UNL     1      -0.009  13.927  20.331  0.00  0.00    +0.000 C 
ATOM      4  N   UNL     1      -1.358  13.502  20.788  0.00  0.00    +0.000 NA
ATOM      5  C   UNL     1      -1.704  12.101  20.444  0.00  0.00    +0.000 C 
ATOM      6  C   UNL     1      -1.432  11.788  18.968  0.00  0.00    +0.000 C 
ENDROOT
BRANCH   1   7
ATOM      7  C   UNL     1       0.999  11.125  19.367  0.00  0.00    +0.000 C 
BRANCH   7  16
ATOM      8  C   UNL     1       3.624   5.648  18.528  0.00  0.00    +0.000 A 
ATOM      9  C   UNL     1       3.401   6.885  17.859  0.00  0.00    +0.000 A 
ATOM     10  C   UNL     1       2.542   7.826  18.435  0.00  0.00    +0.000 A 
ATOM     11  C   UNL     1       1.957   7.571  19.645  0.00  0.00    +0.000 A 
ATOM     12  C   UNL     1       2.135   6.375  20.322  0.00  0.00    +0.000 A 
ATOM     13  C   UNL     1       2.971   5.387  19.761  0.00  0.00    +0.000 A 
ATOM     14  C   UNL     1       1.178   8.709  20.050  0.00  0.00    +0.000 C 
ATOM     15  O   UNL     1       0.579   8.792  21.112  0.00  0.00    +0.000 OA
ATOM     16  C   UNL     1       1.041   9.655  18.899  0.00  0.00    +0.000 C 
ATOM     17  C   UNL     1       2.190   9.208  17.943  0.00  0.00    +0.000 C 
BRANCH   8  19
ATOM     18  C   UNL     1       4.513   4.292  16.707  0.00  0.00    +0.000 C 
ATOM     19  O   UNL     1       4.462   4.700  18.025  0.00  0.00    +0.000 OA
ENDBRANCH   8  19
BRANCH  13  20
ATOM     20  O   UNL     1       3.178   4.198  20.392  0.00  0.00    +0.000 OA
ATOM     21  C   UNL     1       2.481   3.031  20.134  0.00  0.00    +0.000 C 
ENDBRANCH  13  20
ENDBRANCH   7  16
ENDBRANCH   1   7
BRANCH   4  22
ATOM     22  C   UNL     1      -1.546  13.756  22.242  0.00  0.00    +0.000 C 
BRANCH  22  23
ATOM     23  C   UNL     1      -2.973  13.520  22.722  0.00  0.00    +0.000 A 
ATOM     24  C   UNL     1      -3.220  12.723  23.851  0.00  0.00    +0.000 A 
ATOM     25  C   UNL     1      -4.529  12.455  24.264  0.00  0.00    +0.000 A 
ATOM     26  C   UNL     1      -5.624  12.989  23.562  0.00  0.00    +0.000 A 
ATOM     27  C   UNL     1      -5.376  13.805  22.442  0.00  0.00    +0.000 A 
ATOM     28  C   UNL     1      -4.065  14.069  22.030  0.00  0.00    +0.000 A 
BRANCH  26  29
ATOM     29  N   UNL     1      -6.968  12.705  23.971  0.00  0.00    +0.000 N 
ATOM     30  O   UNL     1      -7.676  13.585  24.363  0.00  0.00    +0.000 OA
ATOM     31  O   UNL     1      -7.429  11.477  23.930  0.00  0.00    +0.000 OA
ENDBRANCH  26  29
ENDBRANCH  22  23
ENDBRANCH   4  22
TORSDOF 7
ENDMDL
MODEL 6
REMARK VINA RESULT:      -7.9      4.496      8.901
REMARK  Name = 
REMARK  9 active torsions:
REMARK  status: ('A' for Active; 'I' for Inactive)
REMARK    1  A    between atoms: C_1  and  O_2
REMARK    2  A    between atoms: O_2  and  C_3
REMARK    3  A    between atoms: C_8  and  O_9
REMARK    4  A    between atoms: O_9  and  C_10
REMARK    5  A    between atoms: C_13  and  C_14
REMARK    6  A    between atoms: C_14  and  C_15
REMARK    7  A    between atoms: N_18  and  C_19
REMARK    8  A    between atoms: C_19  and  C_20
REMARK    9  A    between atoms: C_23  and  N_24
REMARK                            x       y       z     vdW  Elec       q    Type
REMARK                         _______ _______ _______ _____ _____    ______ ____
ROOT
ATOM      1  C   UNL     1       1.022  11.602  19.528  0.00  0.00    +0.000 C 
ATOM      2  C   UNL     1       0.180  11.455  20.805  0.00  0.00    +0.000 C 
ATOM      3  C   UNL     1      -1.277  11.130  20.460  0.00  0.00    +0.000 C 
ATOM      4  N   UNL     1      -1.885  12.125  19.538  0.00  0.00    +0.000 NA
ATOM      5  C   UNL     1      -1.059  12.434  18.345  0.00  0.00    +0.000 C 
ATOM      6  C   UNL     1       0.393  12.756  18.719  0.00  0.00    +0.000 C 
ENDROOT
BRANCH   1   7
ATOM      7  C   UNL     1       1.144  10.318  18.649  0.00  0.00    +0.000 C 
BRANCH   7  16
ATOM      8  C   UNL     1       2.472   4.525  20.154  0.00  0.00    +0.000 A 
ATOM      9  C   UNL     1       1.975   5.732  20.722  0.00  0.00    +0.000 A 
ATOM     10  C   UNL     1       2.021   6.909  19.968  0.00  0.00    +0.000 A 
ATOM     11  C   UNL     1       2.503   6.887  18.688  0.00  0.00    +0.000 A 
ATOM     12  C   UNL     1       3.009   5.737  18.102  0.00  0.00    +0.000 A 
ATOM     13  C   UNL     1       3.007   4.534  18.839  0.00  0.00    +0.000 A 
ATOM     14  C   UNL     1       2.385   8.197  18.109  0.00  0.00    +0.000 C 
ATOM     15  O   UNL     1       2.690   8.471  16.958  0.00  0.00    +0.000 OA
ATOM     16  C   UNL     1       2.050   9.188  19.177  0.00  0.00    +0.000 C 
ATOM     17  C   UNL     1       1.519   8.285  20.334  0.00  0.00    +0.000 C 
BRANCH   8  19
ATOM     18  C   UNL     1       1.307   2.759  21.365  0.00  0.00    +0.000 C 
ATOM     19  O   UNL     1       2.438   3.345  20.832  0.00  0.00    +0.000 OA
ENDBRANCH   8  19
BRANCH  13  20
ATOM     20  O   UNL     1       3.492   3.379  18.303  0.00  0.00    +0.000 OA
ATOM     21  C   UNL     1       2.804   2.564  17.422  0.00  0.00    +0.000 C 
ENDBRANCH  13  20
ENDBRANCH   7  16
ENDBRANCH   1   7
BRANCH   4  22
ATOM     22  C   UNL     1      -3.264  11.730  19.143  0.00  0.00    +0.000 C 
BRANCH  22  23
ATOM     23  C   UNL     1      -3.359  11.194  17.719  0.00  0.00    +0.000 A 
ATOM     24  C   UNL     1      -2.520  10.151  17.296  0.00  0.00    +0.000 A 
ATOM     25  C   UNL     1      -2.560   9.693  15.975  0.00  0.00    +0.000 A 
ATOM     26  C   UNL     1      -3.451  10.261  15.048  0.00  0.00    +0.000 A 
ATOM     27  C   UNL     1      -4.307  11.293  15.478  0.00  0.00    +0.000 A 
ATOM     28  C   UNL     1      -4.262  11.751  16.799  0.00  0.00    +0.000 A 
BRANCH  26  29
ATOM     29  N   UNL     1      -3.487   9.806  13.689  0.00  0.00    +0.000 N 
ATOM     30  O   UNL     1      -2.471   9.577  13.103  0.00  0.00    +0.000 OA
ATOM     31  O   UNL     1      -4.635   9.646  13.073  0.00  0.00    +0.000 OA
ENDBRANCH  26  29
ENDBRANCH  22  23
ENDBRANCH   4  22
TORSDOF 7
ENDMDL
MODEL 7
REMARK VINA RESULT:      -7.9      2.020      2.944
REMARK  Name = 
REMARK  9 active torsions:
REMARK  status: ('A' for Active; 'I' for Inactive)
REMARK    1  A    between atoms: C_1  and  O_2
REMARK    2  A    between atoms: O_2  and  C_3
REMARK    3  A    between atoms: C_8  and  O_9
REMARK    4  A    between atoms: O_9  and  C_10
REMARK    5  A    between atoms: C_13  and  C_14
REMARK    6  A    between atoms: C_14  and  C_15
REMARK    7  A    between atoms: N_18  and  C_19
REMARK    8  A    between atoms: C_19  and  C_20
REMARK    9  A    between atoms: C_23  and  N_24
REMARK                            x       y       z     vdW  Elec       q    Type
REMARK                         _______ _______ _______ _____ _____    ______ ____
ROOT
ATOM      1  C   UNL     1       2.841   4.951  18.552  0.00  0.00    +0.000 C 
ATOM      2  C   UNL     1       3.787   4.293  19.568  0.00  0.00    +0.000 C 
ATOM      3  C   UNL     1       5.250   4.510  19.167  0.00  0.00    +0.000 C 
ATOM      4  N   UNL     1       5.544   4.038  17.788  0.00  0.00    +0.000 NA
ATOM      5  C   UNL     1       4.583   4.514  16.763  0.00  0.00    +0.000 C 
ATOM      6  C   UNL     1       3.128   4.285  17.191  0.00  0.00    +0.000 C 
ENDROOT
BRANCH   1   7
ATOM      7  C   UNL     1       2.951   6.504  18.436  0.00  0.00    +0.000 C 
BRANCH   7  16
ATOM      8  C   UNL     1       0.215  10.950  21.653  0.00  0.00    +0.000 A 
ATOM      9  C   UNL     1       0.559   9.571  21.737  0.00  0.00    +0.000 A 
ATOM     10  C   UNL     1       1.053   8.921  20.601  0.00  0.00    +0.000 A 
ATOM     11  C   UNL     1       1.237   9.616  19.438  0.00  0.00    +0.000 A 
ATOM     12  C   UNL     1       0.903  10.955  19.309  0.00  0.00    +0.000 A 
ATOM     13  C   UNL     1       0.375  11.641  20.423  0.00  0.00    +0.000 A 
ATOM     14  C   UNL     1       1.810   8.748  18.446  0.00  0.00    +0.000 C 
ATOM     15  O   UNL     1       2.132   9.103  17.323  0.00  0.00    +0.000 OA
ATOM     16  C   UNL     1       1.744   7.332  18.924  0.00  0.00    +0.000 C 
ATOM     17  C   UNL     1       1.521   7.493  20.460  0.00  0.00    +0.000 C 
BRANCH   8  19
ATOM     18  C   UNL     1      -1.566  11.665  23.155  0.00  0.00    +0.000 C 
ATOM     19  O   UNL     1      -0.253  11.641  22.728  0.00  0.00    +0.000 OA
ENDBRANCH   8  19
BRANCH  13  20
ATOM     20  O   UNL     1       0.035  12.957  20.343  0.00  0.00    +0.000 OA
ATOM     21  C   UNL     1       0.934  14.009  20.324  0.00  0.00    +0.000 C 
ENDBRANCH  13  20
ENDBRANCH   7  16
ENDBRANCH   1   7
BRANCH   4  22
ATOM     22  C   UNL     1       6.944   4.352  17.392  0.00  0.00    +0.000 C 
BRANCH  22  23
ATOM     23  C   UNL     1       7.360   5.783  17.713  0.00  0.00    +0.000 A 
ATOM     24  C   UNL     1       7.109   6.818  16.797  0.00  0.00    +0.000 A 
ATOM     25  C   UNL     1       7.538   8.123  17.059  0.00  0.00    +0.000 A 
ATOM     26  C   UNL     1       8.219   8.427  18.250  0.00  0.00    +0.000 A 
ATOM     27  C   UNL     1       8.451   7.394  19.179  0.00  0.00    +0.000 A 
ATOM     28  C   UNL     1       8.023   6.088  18.912  0.00  0.00    +0.000 A 
BRANCH  26  29
ATOM     29  N   UNL     1       8.674   9.760  18.517  0.00  0.00    +0.000 N 
ATOM     30  O   UNL     1       8.304  10.670  17.837  0.00  0.00    +0.000 OA
ATOM     31  O   UNL     1       9.508   9.990  19.504  0.00  0.00    +0.000 OA
ENDBRANCH  26  29
ENDBRANCH  22  23
ENDBRANCH   4  22
TORSDOF 7
ENDMDL
MODEL 8
REMARK VINA RESULT:      -7.9      1.937      2.644
REMARK  Name = 
REMARK  9 active torsions:
REMARK  status: ('A' for Active; 'I' for Inactive)
REMARK    1  A    between atoms: C_1  and  O_2
REMARK    2  A    between atoms: O_2  and  C_3
REMARK    3  A    between atoms: C_8  and  O_9
REMARK    4  A    between atoms: O_9  and  C_10
REMARK    5  A    between atoms: C_13  and  C_14
REMARK    6  A    between atoms: C_14  and  C_15
REMARK    7  A    between atoms: N_18  and  C_19
REMARK    8  A    between atoms: C_19  and  C_20
REMARK    9  A    between atoms: C_23  and  N_24
REMARK                            x       y       z     vdW  Elec       q    Type
REMARK                         _______ _______ _______ _____ _____    ______ ____
ROOT
ATOM      1  C   UNL     1       2.567   5.255  18.998  0.00  0.00    +0.000 C 
ATOM      2  C   UNL     1       3.577   4.581  19.941  0.00  0.00    +0.000 C 
ATOM      3  C   UNL     1       4.992   4.653  19.359  0.00  0.00    +0.000 C 
ATOM      4  N   UNL     1       5.082   4.078  17.991  0.00  0.00    +0.000 NA
ATOM      5  C   UNL     1       4.042   4.571  17.054  0.00  0.00    +0.000 C 
ATOM      6  C   UNL     1       2.637   4.488  17.661  0.00  0.00    +0.000 C 
ENDROOT
BRANCH   1   7
ATOM      7  C   UNL     1       2.778   6.784  18.765  0.00  0.00    +0.000 C 
BRANCH   7  16
ATOM      8  C   UNL     1       0.228  11.721  21.357  0.00  0.00    +0.000 A 
ATOM      9  C   UNL     1       0.511  10.351  21.621  0.00  0.00    +0.000 A 
ATOM     10  C   UNL     1       0.980   9.539  20.583  0.00  0.00    +0.000 A 
ATOM     11  C   UNL     1       1.199  10.070  19.342  0.00  0.00    +0.000 A 
ATOM     12  C   UNL     1       0.924  11.394  19.038  0.00  0.00    +0.000 A 
ATOM     13  C   UNL     1       0.422  12.240  20.049  0.00  0.00    +0.000 A 
ATOM     14  C   UNL     1       1.737   9.057  18.476  0.00  0.00    +0.000 C 
ATOM     15  O   UNL     1       2.078   9.250  17.318  0.00  0.00    +0.000 OA
ATOM     16  C   UNL     1       1.607   7.719  19.131  0.00  0.00    +0.000 C 
ATOM     17  C   UNL     1       1.386   8.087  20.631  0.00  0.00    +0.000 C 
BRANCH   8  19
ATOM     18  C   UNL     1      -1.486  12.573  22.866  0.00  0.00    +0.000 C 
ATOM     19  O   UNL     1      -0.214  12.564  22.329  0.00  0.00    +0.000 OA
ENDBRANCH   8  19
BRANCH  13  20
ATOM     20  O   UNL     1       0.140  13.549  19.797  0.00  0.00    +0.000 OA
ATOM     21  C   UNL     1       0.744  14.316  18.817  0.00  0.00    +0.000 C 
ENDBRANCH  13  20
ENDBRANCH   7  16
ENDBRANCH   1   7
BRANCH   4  22
ATOM     22  C   UNL     1       6.443   4.252  17.415  0.00  0.00    +0.000 C 
BRANCH  22  23
ATOM     23  C   UNL     1       7.036   5.634  17.664  0.00  0.00    +0.000 A 
ATOM     24  C   UNL     1       7.912   5.848  18.741  0.00  0.00    +0.000 A 
ATOM     25  C   UNL     1       8.415   7.125  19.010  0.00  0.00    +0.000 A 
ATOM     26  C   UNL     1       8.063   8.218  18.199  0.00  0.00    +0.000 A 
ATOM     27  C   UNL     1       7.201   8.000  17.108  0.00  0.00    +0.000 A 
ATOM     28  C   UNL     1       6.697   6.721  16.843  0.00  0.00    +0.000 A 
BRANCH  26  29
ATOM     29  N   UNL     1       8.564   9.531  18.479  0.00  0.00    +0.000 N 
ATOM     30  O   UNL     1       9.314   9.708  19.392  0.00  0.00    +0.000 OA
ATOM     31  O   UNL     1       8.195  10.553  17.741  0.00  0.00    +0.000 OA
ENDBRANCH  26  29
ENDBRANCH  22  23
ENDBRANCH   4  22
TORSDOF 7
ENDMDL
MODEL 9
REMARK VINA RESULT:      -7.8      3.440      8.485
REMARK  Name = 
REMARK  9 active torsions:
REMARK  status: ('A' for Active; 'I' for Inactive)
REMARK    1  A    between atoms: C_1  and  O_2
REMARK    2  A    between atoms: O_2  and  C_3
REMARK    3  A    between atoms: C_8  and  O_9
REMARK    4  A    between atoms: O_9  and  C_10
REMARK    5  A    between atoms: C_13  and  C_14
REMARK    6  A    between atoms: C_14  and  C_15
REMARK    7  A    between atoms: N_18  and  C_19
REMARK    8  A    between atoms: C_19  and  C_20
REMARK    9  A    between atoms: C_23  and  N_24
REMARK                            x       y       z     vdW  Elec       q    Type
REMARK                         _______ _______ _______ _____ _____    ______ ____
ROOT
ATOM      1  C   UNL     1      -0.276   9.912  19.997  0.00  0.00    +0.000 C 
ATOM      2  C   UNL     1      -1.298  10.395  18.957  0.00  0.00    +0.000 C 
ATOM      3  C   UNL     1      -0.936  11.795  18.450  0.00  0.00    +0.000 C 
ATOM      4  N   UNL     1      -0.793  12.785  19.550  0.00  0.00    +0.000 NA
ATOM      5  C   UNL     1       0.068  12.330  20.670  0.00  0.00    +0.000 C 
ATOM      6  C   UNL     1      -0.317  10.928  21.157  0.00  0.00    +0.000 C 
ENDROOT
BRANCH   1   7
ATOM      7  C   UNL     1       1.184   9.733  19.476  0.00  0.00    +0.000 C 
BRANCH   7  16
ATOM      8  C   UNL     1       4.962   5.247  17.686  0.00  0.00    +0.000 A 
ATOM      9  C   UNL     1       4.369   6.453  17.214  0.00  0.00    +0.000 A 
ATOM     10  C   UNL     1       3.375   7.069  17.980  0.00  0.00    +0.000 A 
ATOM     11  C   UNL     1       3.008   6.537  19.186  0.00  0.00    +0.000 A 
ATOM     12  C   UNL     1       3.549   5.358  19.676  0.00  0.00    +0.000 A 
ATOM     13  C   UNL     1       4.534   4.689  18.920  0.00  0.00    +0.000 A 
ATOM     14  C   UNL     1       2.024   7.383  19.803  0.00  0.00    +0.000 C 
ATOM     15  O   UNL     1       1.545   7.188  20.910  0.00  0.00    +0.000 OA
ATOM     16  C   UNL     1       1.532   8.386  18.809  0.00  0.00    +0.000 C 
ATOM     17  C   UNL     1       2.642   8.361  17.713  0.00  0.00    +0.000 C 
BRANCH   8  19
ATOM     18  C   UNL     1       6.962   5.229  16.293  0.00  0.00    +0.000 C 
ATOM     19  O   UNL     1       5.945   4.611  16.994  0.00  0.00    +0.000 OA
ENDBRANCH   8  19
BRANCH  13  20
ATOM     20  O   UNL     1       5.095   3.530  19.363  0.00  0.00    +0.000 OA
ATOM     21  C   UNL     1       4.398   2.480  19.935  0.00  0.00    +0.000 C 
ENDBRANCH  13  20
ENDBRANCH   7  16
ENDBRANCH   1   7
BRANCH   4  22
ATOM     22  C   UNL     1      -0.343  14.108  19.036  0.00  0.00    +0.000 C 
BRANCH  22  23
ATOM     23  C   UNL     1       1.170  14.288  19.062  0.00  0.00    +0.000 A 
ATOM     24  C   UNL     1       1.758  15.231  19.920  0.00  0.00    +0.000 A 
ATOM     25  C   UNL     1       3.141  15.443  19.908  0.00  0.00    +0.000 A 
ATOM     26  C   UNL     1       3.970  14.706  19.045  0.00  0.00    +0.000 A 
ATOM     27  C   UNL     1       3.382  13.746  18.200  0.00  0.00    +0.000 A 
ATOM     28  C   UNL     1       1.998  13.538  18.212  0.00  0.00    +0.000 A 
BRANCH  26  29
ATOM     29  N   UNL     1       5.386  14.929  19.018  0.00  0.00    +0.000 N 
ATOM     30  O   UNL     1       6.006  14.742  18.014  0.00  0.00    +0.000 OA
ATOM     31  O   UNL     1       6.015  15.330  20.098  0.00  0.00    +0.000 OA
ENDBRANCH  26  29
ENDBRANCH  22  23
ENDBRANCH   4  22
TORSDOF 7
ENDMDL
