MODEL 1
REMARK VINA RESULT:      -8.3      0.000      0.000
REMARK  Name = 
REMARK  8 active torsions:
REMARK  status: ('A' for Active; 'I' for Inactive)
REMARK    1  A    between atoms: C_1  and  C_2
REMARK    2  A    between atoms: C_9  and  N_10
REMARK    3  A    between atoms: N_10  and  C_11
REMARK    4  A    between atoms: C_11  and  C_12
REMARK    5  A    between atoms: C_12  and  C_13
REMARK    6  A    between atoms: C_13  and  N_14
REMARK    7  A    between atoms: N_14  and  C_15
REMARK    8  A    between atoms: N_14  and  C_16
REMARK                            x       y       z     vdW  Elec       q    Type
REMARK                         _______ _______ _______ _____ _____    ______ ____
ROOT
ATOM      1  C   UNL     1      -0.674  13.138  19.657  0.00  0.00    +0.000 C 
ATOM      2  C   UNL     1      -0.252  11.745  20.044  0.00  0.00    +0.000 A 
ATOM      3  C   UNL     1      -0.833  11.140  21.166  0.00  0.00    +0.000 A 
ATOM      4  C   UNL     1      -0.466   9.854  21.510  0.00  0.00    +0.000 A 
ATOM      5  C   UNL     1       0.453   9.164  20.723  0.00  0.00    +0.000 A 
ATOM      6  O   UNL     1       0.732   7.887  21.135  0.00  0.00    +0.000 OA
ATOM      7  C   UNL     1       1.648   7.164  20.407  0.00  0.00    +0.000 A 
ATOM      8  C   UNL     1       1.889   5.900  20.926  0.00  0.00    +0.000 A 
ATOM      9  C   UNL     1       2.890   5.101  20.401  0.00  0.00    +0.000 A 
ATOM     10  C   UNL     1       3.620   5.628  19.300  0.00  0.00    +0.000 A 
ATOM     11  C   UNL     1       4.820   4.888  18.860  0.00  0.00    +0.000 A 
ATOM     12  O   UNL     1       5.112   3.792  19.329  0.00  0.00    +0.000 OA
ATOM     13  C   UNL     1       5.663   5.454  17.787  0.00  0.00    +0.000 A 
ATOM     14  C   UNL     1       6.709   4.605  17.396  0.00  0.00    +0.000 A 
ATOM     15  C   UNL     1       6.641   4.054  16.144  0.00  0.00    +0.000 A 
ATOM     16  C   UNL     1       5.925   4.739  15.173  0.00  0.00    +0.000 A 
ATOM     17  C   UNL     1       5.217   5.920  15.493  0.00  0.00    +0.000 A 
ATOM     18  C   UNL     1       4.975   6.233  16.861  0.00  0.00    +0.000 A 
ATOM     19  C   UNL     1       3.939   7.155  17.336  0.00  0.00    +0.000 A 
ATOM     20  O   UNL     1       3.599   8.140  16.635  0.00  0.00    +0.000 OA
ATOM     21  C   UNL     1       3.293   6.868  18.663  0.00  0.00    +0.000 A 
ATOM     22  C   UNL     1       2.302   7.657  19.260  0.00  0.00    +0.000 A 
ATOM     23  N   UNL     1       2.001   8.982  18.870  0.00  0.00    +0.000 N 
ATOM     24  C   UNL     1       1.039   9.729  19.578  0.00  0.00    +0.000 A 
ATOM     25  C   UNL     1       0.678  11.038  19.251  0.00  0.00    +0.000 A 
ATOM     26  H   UNL     1       2.326   9.302  17.967  0.00  0.00    +0.000 HD
ENDROOT
BRANCH   9  27
ATOM     27  N   UNL     1       3.189   3.875  21.006  0.00  0.00    +0.000 N 
ATOM     28  H   UNL     1       3.873   3.337  20.455  0.00  0.00    +0.000 HD
BRANCH  27  29
ATOM     29  C   UNL     1       2.101   3.055  21.551  0.00  0.00    +0.000 C 
BRANCH  29  30
ATOM     30  C   UNL     1       1.228   2.504  20.419  0.00  0.00    +0.000 C 
BRANCH  30  31
ATOM     31  C   UNL     1       2.068   1.927  19.270  0.00  0.00    +0.000 C 
BRANCH  31  32
ATOM     32  N   UNL     1       1.701   2.418  17.930  0.00  0.00    +0.000 NA
ATOM     33  C   UNL     1       0.995   3.699  17.982  0.00  0.00    +0.000 C 
ATOM     34  C   UNL     1       2.901   2.549  17.100  0.00  0.00    +0.000 C 
ENDBRANCH  31  32
ENDBRANCH  30  31
ENDBRANCH  29  30
ENDBRANCH  27  29
ENDBRANCH   9  27
TORSDOF 5
ENDMDL
MODEL 2
REMARK VINA RESULT:      -7.7      3.139      9.405
REMARK  Name = 
REMARK  8 active torsions:
REMARK  status: ('A' for Active; 'I' for Inactive)
REMARK    1  A    between atoms: C_1  and  C_2
REMARK    2  A    between atoms: C_9  and  N_10
REMARK    3  A    between atoms: N_10  and  C_11
REMARK    4  A    between atoms: C_11  and  C_12
REMARK    5  A    between atoms: C_12  and  C_13
REMARK    6  A    between atoms: C_13  and  N_14
REMARK    7  A    between atoms: N_14  and  C_15
REMARK    8  A    between atoms: N_14  and  C_16
REMARK                            x       y       z     vdW  Elec       q    Type
REMARK                         _______ _______ _______ _____ _____    ______ ____
ROOT
ATOM      1  C   UNL     1       2.918   3.087  20.642  0.00  0.00    +0.000 C 
ATOM      2  C   UNL     1       2.772   4.476  20.078  0.00  0.00    +0.000 A 
ATOM      3  C   UNL     1       3.339   4.773  18.833  0.00  0.00    +0.000 A 
ATOM      4  C   UNL     1       3.187   6.039  18.302  0.00  0.00    +0.000 A 
ATOM      5  C   UNL     1       2.448   6.994  18.996  0.00  0.00    +0.000 A 
ATOM      6  O   UNL     1       2.337   8.211  18.374  0.00  0.00    +0.000 OA
ATOM      7  C   UNL     1       1.634   9.200  19.022  0.00  0.00    +0.000 A 
ATOM      8  C   UNL     1       1.611  10.402  18.329  0.00  0.00    +0.000 A 
ATOM      9  C   UNL     1       1.075  11.539  18.908  0.00  0.00    +0.000 A 
ATOM     10  C   UNL     1       0.531  11.398  20.215  0.00  0.00    +0.000 A 
ATOM     11  C   UNL     1       0.145  12.631  20.930  0.00  0.00    +0.000 A 
ATOM     12  O   UNL     1       0.163  13.729  20.381  0.00  0.00    +0.000 OA
ATOM     13  C   UNL     1      -0.329  12.537  22.326  0.00  0.00    +0.000 A 
ATOM     14  C   UNL     1      -0.758  13.766  22.850  0.00  0.00    +0.000 A 
ATOM     15  C   UNL     1      -2.096  13.911  23.104  0.00  0.00    +0.000 A 
ATOM     16  C   UNL     1      -2.833  12.766  23.368  0.00  0.00    +0.000 A 
ATOM     17  C   UNL     1      -2.237  11.486  23.290  0.00  0.00    +0.000 A 
ATOM     18  C   UNL     1      -0.979  11.347  22.637  0.00  0.00    +0.000 A 
ATOM     19  C   UNL     1      -0.443  10.086  22.116  0.00  0.00    +0.000 A 
ATOM     20  O   UNL     1      -0.722   9.000  22.681  0.00  0.00    +0.000 OA
ATOM     21  C   UNL     1       0.420  10.139  20.887  0.00  0.00    +0.000 A 
ATOM     22  C   UNL     1       1.017   9.028  20.277  0.00  0.00    +0.000 A 
ATOM     23  N   UNL     1       1.163   7.766  20.897  0.00  0.00    +0.000 N 
ATOM     24  C   UNL     1       1.846   6.726  20.237  0.00  0.00    +0.000 A 
ATOM     25  C   UNL     1       2.024   5.450  20.775  0.00  0.00    +0.000 A 
ATOM     26  H   UNL     1       0.599   7.564  21.712  0.00  0.00    +0.000 HD
ENDROOT
BRANCH   9  27
ATOM     27  N   UNL     1       1.157  12.764  18.237  0.00  0.00    +0.000 N 
ATOM     28  H   UNL     1       0.451  12.837  17.491  0.00  0.00    +0.000 HD
BRANCH  27  29
ATOM     29  C   UNL     1       2.472  13.289  17.851  0.00  0.00    +0.000 C 
BRANCH  29  30
ATOM     30  C   UNL     1       2.622  14.745  18.304  0.00  0.00    +0.000 C 
BRANCH  30  31
ATOM     31  C   UNL     1       3.721  15.482  17.525  0.00  0.00    +0.000 C 
BRANCH  31  32
ATOM     32  N   UNL     1       4.968  15.703  18.277  0.00  0.00    +0.000 NA
ATOM     33  C   UNL     1       4.767  15.617  19.724  0.00  0.00    +0.000 C 
ATOM     34  C   UNL     1       5.983  14.731  17.861  0.00  0.00    +0.000 C 
ENDBRANCH  31  32
ENDBRANCH  30  31
ENDBRANCH  29  30
ENDBRANCH  27  29
ENDBRANCH   9  27
TORSDOF 5
ENDMDL
MODEL 3
REMARK VINA RESULT:      -7.4      2.993      9.482
REMARK  Name = 
REMARK  8 active torsions:
REMARK  status: ('A' for Active; 'I' for Inactive)
REMARK    1  A    between atoms: C_1  and  C_2
REMARK    2  A    between atoms: C_9  and  N_10
REMARK    3  A    between atoms: N_10  and  C_11
REMARK    4  A    between atoms: C_11  and  C_12
REMARK    5  A    between atoms: C_12  and  C_13
REMARK    6  A    between atoms: C_13  and  N_14
REMARK    7  A    between atoms: N_14  and  C_15
REMARK    8  A    between atoms: N_14  and  C_16
REMARK                            x       y       z     vdW  Elec       q    Type
REMARK                         _______ _______ _______ _____ _____    ______ ____
ROOT
ATOM      1  C   UNL     1       2.825   3.167  20.708  0.00  0.00    +0.000 C 
ATOM      2  C   UNL     1       2.675   4.554  20.140  0.00  0.00    +0.000 A 
ATOM      3  C   UNL     1       3.233   4.846  18.889  0.00  0.00    +0.000 A 
ATOM      4  C   UNL     1       3.076   6.110  18.355  0.00  0.00    +0.000 A 
ATOM      5  C   UNL     1       2.343   7.068  19.050  0.00  0.00    +0.000 A 
ATOM      6  O   UNL     1       2.227   8.282  18.425  0.00  0.00    +0.000 OA
ATOM      7  C   UNL     1       1.530   9.274  19.074  0.00  0.00    +0.000 A 
ATOM      8  C   UNL     1       1.502  10.473  18.377  0.00  0.00    +0.000 A 
ATOM      9  C   UNL     1       0.970  11.612  18.956  0.00  0.00    +0.000 A 
ATOM     10  C   UNL     1       0.437  11.477  20.268  0.00  0.00    +0.000 A 
ATOM     11  C   UNL     1       0.057  12.713  20.981  0.00  0.00    +0.000 A 
ATOM     12  O   UNL     1       0.071  13.809  20.428  0.00  0.00    +0.000 OA
ATOM     13  C   UNL     1      -0.405  12.625  22.381  0.00  0.00    +0.000 A 
ATOM     14  C   UNL     1      -0.830  13.855  22.904  0.00  0.00    +0.000 A 
ATOM     15  C   UNL     1      -2.165  14.002  23.169  0.00  0.00    +0.000 A 
ATOM     16  C   UNL     1      -2.900  12.858  23.443  0.00  0.00    +0.000 A 
ATOM     17  C   UNL     1      -2.306  11.578  23.365  0.00  0.00    +0.000 A 
ATOM     18  C   UNL     1      -1.053  11.436  22.702  0.00  0.00    +0.000 A 
ATOM     19  C   UNL     1      -0.522  10.172  22.183  0.00  0.00    +0.000 A 
ATOM     20  O   UNL     1      -0.796   9.088  22.754  0.00  0.00    +0.000 OA
ATOM     21  C   UNL     1       0.331  10.220  20.946  0.00  0.00    +0.000 A 
ATOM     22  C   UNL     1       0.923   9.107  20.336  0.00  0.00    +0.000 A 
ATOM     23  N   UNL     1       1.074   7.848  20.959  0.00  0.00    +0.000 N 
ATOM     24  C   UNL     1       1.751   6.805  20.297  0.00  0.00    +0.000 A 
ATOM     25  C   UNL     1       1.933   5.531  20.839  0.00  0.00    +0.000 A 
ATOM     26  H   UNL     1       0.516   7.649  21.780  0.00  0.00    +0.000 HD
ENDROOT
BRANCH   9  27
ATOM     27  N   UNL     1       1.047  12.835  18.280  0.00  0.00    +0.000 N 
ATOM     28  H   UNL     1       0.351  12.895  17.523  0.00  0.00    +0.000 HD
BRANCH  27  29
ATOM     29  C   UNL     1       2.361  13.373  17.910  0.00  0.00    +0.000 C 
BRANCH  29  30
ATOM     30  C   UNL     1       3.153  13.760  19.163  0.00  0.00    +0.000 C 
BRANCH  30  31
ATOM     31  C   UNL     1       3.719  15.185  19.072  0.00  0.00    +0.000 C 
BRANCH  31  32
ATOM     32  N   UNL     1       3.818  15.894  20.360  0.00  0.00    +0.000 NA
ATOM     33  C   UNL     1       3.194  17.216  20.315  0.00  0.00    +0.000 C 
ATOM     34  C   UNL     1       3.202  15.092  21.421  0.00  0.00    +0.000 C 
ENDBRANCH  31  32
ENDBRANCH  30  31
ENDBRANCH  29  30
ENDBRANCH  27  29
ENDBRANCH   9  27
TORSDOF 5
ENDMDL
MODEL 4
REMARK VINA RESULT:      -7.1      1.939      4.656
REMARK  Name = 
REMARK  8 active torsions:
REMARK  status: ('A' for Active; 'I' for Inactive)
REMARK    1  A    between atoms: C_1  and  C_2
REMARK    2  A    between atoms: C_9  and  N_10
REMARK    3  A    between atoms: N_10  and  C_11
REMARK    4  A    between atoms: C_11  and  C_12
REMARK    5  A    between atoms: C_12  and  C_13
REMARK    6  A    between atoms: C_13  and  N_14
REMARK    7  A    between atoms: N_14  and  C_15
REMARK    8  A    between atoms: N_14  and  C_16
REMARK                            x       y       z     vdW  Elec       q    Type
REMARK                         _______ _______ _______ _____ _____    ______ ____
ROOT
ATOM      1  C   UNL     1      -1.483  13.374  20.826  0.00  0.00    +0.000 C 
ATOM      2  C   UNL     1      -0.496  12.542  20.050  0.00  0.00    +0.000 A 
ATOM      3  C   UNL     1       0.268  13.147  19.045  0.00  0.00    +0.000 A 
ATOM      4  C   UNL     1       1.191  12.393  18.346  0.00  0.00    +0.000 A 
ATOM      5  C   UNL     1       1.371  11.050  18.669  0.00  0.00    +0.000 A 
ATOM      6  O   UNL     1       2.326  10.397  17.935  0.00  0.00    +0.000 OA
ATOM      7  C   UNL     1       2.534   9.062  18.195  0.00  0.00    +0.000 A 
ATOM      8  C   UNL     1       3.492   8.484  17.375  0.00  0.00    +0.000 A 
ATOM      9  C   UNL     1       3.715   7.118  17.407  0.00  0.00    +0.000 A 
ATOM     10  C   UNL     1       2.943   6.363  18.332  0.00  0.00    +0.000 A 
ATOM     11  C   UNL     1       3.013   4.891  18.238  0.00  0.00    +0.000 A 
ATOM     12  O   UNL     1       3.802   4.328  17.485  0.00  0.00    +0.000 OA
ATOM     13  C   UNL     1       2.151   4.070  19.113  0.00  0.00    +0.000 A 
ATOM     14  C   UNL     1       2.390   2.693  18.994  0.00  0.00    +0.000 A 
ATOM     15  C   UNL     1       2.954   2.056  20.067  0.00  0.00    +0.000 A 
ATOM     16  C   UNL     1       2.753   2.603  21.326  0.00  0.00    +0.000 A 
ATOM     17  C   UNL     1       2.062   3.827  21.481  0.00  0.00    +0.000 A 
ATOM     18  C   UNL     1       1.851   4.653  20.341  0.00  0.00    +0.000 A 
ATOM     19  C   UNL     1       1.541   6.085  20.393  0.00  0.00    +0.000 A 
ATOM     20  O   UNL     1       0.882   6.554  21.352  0.00  0.00    +0.000 OA
ATOM     21  C   UNL     1       2.053   6.959  19.282  0.00  0.00    +0.000 A 
ATOM     22  C   UNL     1       1.830   8.338  19.179  0.00  0.00    +0.000 A 
ATOM     23  N   UNL     1       0.843   9.039  19.909  0.00  0.00    +0.000 N 
ATOM     24  C   UNL     1       0.638  10.414  19.685  0.00  0.00    +0.000 A 
ATOM     25  C   UNL     1      -0.307  11.180  20.371  0.00  0.00    +0.000 A 
ATOM     26  H   UNL     1       0.443   8.593  20.724  0.00  0.00    +0.000 HD
ENDROOT
BRANCH   9  27
ATOM     27  N   UNL     1       4.608   6.540  16.497  0.00  0.00    +0.000 N 
ATOM     28  H   UNL     1       4.387   5.548  16.327  0.00  0.00    +0.000 HD
BRANCH  27  29
ATOM     29  C   UNL     1       6.045   6.805  16.630  0.00  0.00    +0.000 C 
BRANCH  29  30
ATOM     30  C   UNL     1       6.808   5.502  16.889  0.00  0.00    +0.000 C 
BRANCH  30  31
ATOM     31  C   UNL     1       7.530   4.995  15.632  0.00  0.00    +0.000 C 
BRANCH  31  32
ATOM     32  N   UNL     1       6.759   5.123  14.383  0.00  0.00    +0.000 NA
ATOM     33  C   UNL     1       7.619   5.137  13.199  0.00  0.00    +0.000 C 
ATOM     34  C   UNL     1       5.791   4.028  14.278  0.00  0.00    +0.000 C 
ENDBRANCH  31  32
ENDBRANCH  30  31
ENDBRANCH  29  30
ENDBRANCH  27  29
ENDBRANCH   9  27
TORSDOF 5
ENDMDL
MODEL 5
REMARK VINA RESULT:      -7.0      3.285      8.861
REMARK  Name = 
REMARK  8 active torsions:
REMARK  status: ('A' for Active; 'I' for Inactive)
REMARK    1  A    between atoms: C_1  and  C_2
REMARK    2  A    between atoms: C_9  and  N_10
REMARK    3  A    between atoms: N_10  and  C_11
REMARK    4  A    between atoms: C_11  and  C_12
REMARK    5  A    between atoms: C_12  and  C_13
REMARK    6  A    between atoms: C_13  and  N_14
REMARK    7  A    between atoms: N_14  and  C_15
REMARK    8  A    between atoms: N_14  and  C_16
REMARK                            x       y       z     vdW  Elec       q    Type
REMARK                         _______ _______ _______ _____ _____    ______ ____
ROOT
ATOM      1  C   UNL     1       3.460   4.545  17.762  0.00  0.00    +0.000 C 
ATOM      2  C   UNL     1       2.745   5.518  18.663  0.00  0.00    +0.000 A 
ATOM      3  C   UNL     1       2.143   5.050  19.837  0.00  0.00    +0.000 A 
ATOM      4  C   UNL     1       1.507   5.943  20.677  0.00  0.00    +0.000 A 
ATOM      5  C   UNL     1       1.497   7.299  20.363  0.00  0.00    +0.000 A 
ATOM      6  O   UNL     1       0.861   8.105  21.272  0.00  0.00    +0.000 OA
ATOM      7  C   UNL     1       0.802   9.452  21.003  0.00  0.00    +0.000 A 
ATOM      8  C   UNL     1       0.107  10.174  21.962  0.00  0.00    +0.000 A 
ATOM      9  C   UNL     1      -0.172  11.516  21.770  0.00  0.00    +0.000 A 
ATOM     10  C   UNL     1       0.314  12.107  20.571  0.00  0.00    +0.000 A 
ATOM     11  C   UNL     1      -0.146  13.473  20.248  0.00  0.00    +0.000 A 
ATOM     12  O   UNL     1      -0.814  14.134  21.037  0.00  0.00    +0.000 OA
ATOM     13  C   UNL     1       0.254  14.083  18.963  0.00  0.00    +0.000 A 
ATOM     14  C   UNL     1      -0.164  15.416  18.829  0.00  0.00    +0.000 A 
ATOM     15  C   UNL     1       0.804  16.384  18.832  0.00  0.00    +0.000 A 
ATOM     16  C   UNL     1       2.078  16.028  18.417  0.00  0.00    +0.000 A 
ATOM     17  C   UNL     1       2.385  14.688  18.086  0.00  0.00    +0.000 A 
ATOM     18  C   UNL     1       1.486  13.656  18.479  0.00  0.00    +0.000 A 
ATOM     19  C   UNL     1       1.840  12.237  18.585  0.00  0.00    +0.000 A 
ATOM     20  O   UNL     1       2.707  11.743  17.824  0.00  0.00    +0.000 OA
ATOM     21  C   UNL     1       1.151  11.415  19.638  0.00  0.00    +0.000 A 
ATOM     22  C   UNL     1       1.367  10.048  19.857  0.00  0.00    +0.000 A 
ATOM     23  N   UNL     1       2.003   9.188  18.934  0.00  0.00    +0.000 N 
ATOM     24  C   UNL     1       2.109   7.809  19.205  0.00  0.00    +0.000 A 
ATOM     25  C   UNL     1       2.730   6.896  18.352  0.00  0.00    +0.000 A 
ATOM     26  H   UNL     1       2.554   9.601  18.194  0.00  0.00    +0.000 HD
ENDROOT
BRANCH   9  27
ATOM     27  N   UNL     1      -0.966  12.200  22.697  0.00  0.00    +0.000 N 
ATOM     28  H   UNL     1      -0.398  12.787  23.324  0.00  0.00    +0.000 HD
BRANCH  27  29
ATOM     29  C   UNL     1      -2.048  11.487  23.385  0.00  0.00    +0.000 C 
BRANCH  29  30
ATOM     30  C   UNL     1      -3.282  12.386  23.518  0.00  0.00    +0.000 C 
BRANCH  30  31
ATOM     31  C   UNL     1      -3.947  12.657  22.160  0.00  0.00    +0.000 C 
BRANCH  31  32
ATOM     32  N   UNL     1      -5.264  13.315  22.238  0.00  0.00    +0.000 NA
ATOM     33  C   UNL     1      -6.161  12.889  21.164  0.00  0.00    +0.000 C 
ATOM     34  C   UNL     1      -5.884  13.042  23.538  0.00  0.00    +0.000 C 
ENDBRANCH  31  32
ENDBRANCH  30  31
ENDBRANCH  29  30
ENDBRANCH  27  29
ENDBRANCH   9  27
TORSDOF 5
ENDMDL
MODEL 6
REMARK VINA RESULT:      -7.0      2.127      4.528
REMARK  Name = 
REMARK  8 active torsions:
REMARK  status: ('A' for Active; 'I' for Inactive)
REMARK    1  A    between atoms: C_1  and  C_2
REMARK    2  A    between atoms: C_9  and  N_10
REMARK    3  A    between atoms: N_10  and  C_11
REMARK    4  A    between atoms: C_11  and  C_12
REMARK    5  A    between atoms: C_12  and  C_13
REMARK    6  A    between atoms: C_13  and  N_14
REMARK    7  A    between atoms: N_14  and  C_15
REMARK    8  A    between atoms: N_14  and  C_16
REMARK                            x       y       z     vdW  Elec       q    Type
REMARK                         _______ _______ _______ _____ _____    ______ ____
ROOT
ATOM      1  C   UNL     1      -1.247  10.849  23.180  0.00  0.00    +0.000 C 
ATOM      2  C   UNL     1      -0.402  10.388  22.021  0.00  0.00    +0.000 A 
ATOM      3  C   UNL     1      -0.066  11.300  21.014  0.00  0.00    +0.000 A 
ATOM      4  C   UNL     1       0.728  10.888  19.961  0.00  0.00    +0.000 A 
ATOM      5  C   UNL     1       1.209   9.581  19.930  0.00  0.00    +0.000 A 
ATOM      6  O   UNL     1       2.007   9.278  18.858  0.00  0.00    +0.000 OA
ATOM      7  C   UNL     1       2.494   7.996  18.764  0.00  0.00    +0.000 A 
ATOM      8  C   UNL     1       3.258   7.780  17.626  0.00  0.00    +0.000 A 
ATOM      9  C   UNL     1       3.700   6.508  17.304  0.00  0.00    +0.000 A 
ATOM     10  C   UNL     1       3.358   5.463  18.206  0.00  0.00    +0.000 A 
ATOM     11  C   UNL     1       3.637   4.076  17.781  0.00  0.00    +0.000 A 
ATOM     12  O   UNL     1       4.258   3.828  16.752  0.00  0.00    +0.000 OA
ATOM     13  C   UNL     1       3.206   2.957  18.644  0.00  0.00    +0.000 A 
ATOM     14  C   UNL     1       3.623   1.702  18.174  0.00  0.00    +0.000 A 
ATOM     15  C   UNL     1       4.566   1.034  18.908  0.00  0.00    +0.000 A 
ATOM     16  C   UNL     1       4.646   1.311  20.265  0.00  0.00    +0.000 A 
ATOM     17  C   UNL     1       3.839   2.315  20.849  0.00  0.00    +0.000 A 
ATOM     18  C   UNL     1       3.180   3.252  20.003  0.00  0.00    +0.000 A 
ATOM     19  C   UNL     1       2.669   4.555  20.440  0.00  0.00    +0.000 A 
ATOM     20  O   UNL     1       2.245   4.707  21.612  0.00  0.00    +0.000 OA
ATOM     21  C   UNL     1       2.693   5.689  19.454  0.00  0.00    +0.000 A 
ATOM     22  C   UNL     1       2.229   6.986  19.711  0.00  0.00    +0.000 A 
ATOM     23  N   UNL     1       1.392   7.328  20.797  0.00  0.00    +0.000 N 
ATOM     24  C   UNL     1       0.911   8.644  20.934  0.00  0.00    +0.000 A 
ATOM     25  C   UNL     1       0.090   9.065  21.982  0.00  0.00    +0.000 A 
ATOM     26  H   UNL     1       1.319   6.679  21.569  0.00  0.00    +0.000 HD
ENDROOT
BRANCH   9  27
ATOM     27  N   UNL     1       4.377   6.293  16.098  0.00  0.00    +0.000 N 
ATOM     28  H   UNL     1       4.187   5.355  15.718  0.00  0.00    +0.000 HD
BRANCH  27  29
ATOM     29  C   UNL     1       5.782   6.699  15.978  0.00  0.00    +0.000 C 
BRANCH  29  30
ATOM     30  C   UNL     1       6.220   7.484  17.218  0.00  0.00    +0.000 C 
BRANCH  30  31
ATOM     31  C   UNL     1       7.469   6.878  17.874  0.00  0.00    +0.000 C 
BRANCH  31  32
ATOM     32  N   UNL     1       7.249   5.581  18.539  0.00  0.00    +0.000 NA
ATOM     33  C   UNL     1       7.732   4.457  17.737  0.00  0.00    +0.000 C 
ATOM     34  C   UNL     1       7.908   5.573  19.848  0.00  0.00    +0.000 C 
ENDBRANCH  31  32
ENDBRANCH  30  31
ENDBRANCH  29  30
ENDBRANCH  27  29
ENDBRANCH   9  27
TORSDOF 5
ENDMDL
MODEL 7
REMARK VINA RESULT:      -7.0      3.665      9.294
REMARK  Name = 
REMARK  8 active torsions:
REMARK  status: ('A' for Active; 'I' for Inactive)
REMARK    1  A    between atoms: C_1  and  C_2
REMARK    2  A    between atoms: C_9  and  N_10
REMARK    3  A    between atoms: N_10  and  C_11
REMARK    4  A    between atoms: C_11  and  C_12
REMARK    5  A    between atoms: C_12  and  C_13
REMARK    6  A    between atoms: C_13  and  N_14
REMARK    7  A    between atoms: N_14  and  C_15
REMARK    8  A    between atoms: N_14  and  C_16
REMARK                            x       y       z     vdW  Elec       q    Type
REMARK                         _______ _______ _______ _____ _____    ______ ____
ROOT
ATOM      1  C   UNL     1       3.364   5.249  17.788  0.00  0.00    +0.000 C 
ATOM      2  C   UNL     1       2.622   6.160  18.730  0.00  0.00    +0.000 A 
ATOM      3  C   UNL     1       2.059   5.628  19.897  0.00  0.00    +0.000 A 
ATOM      4  C   UNL     1       1.398   6.465  20.775  0.00  0.00    +0.000 A 
ATOM      5  C   UNL     1       1.325   7.830  20.506  0.00  0.00    +0.000 A 
ATOM      6  O   UNL     1       0.670   8.577  21.449  0.00  0.00    +0.000 OA
ATOM      7  C   UNL     1       0.549   9.929  21.226  0.00  0.00    +0.000 A 
ATOM      8  C   UNL     1      -0.162  10.588  22.218  0.00  0.00    +0.000 A 
ATOM      9  C   UNL     1      -0.501  11.923  22.074  0.00  0.00    +0.000 A 
ATOM     10  C   UNL     1      -0.059  12.572  20.888  0.00  0.00    +0.000 A 
ATOM     11  C   UNL     1      -0.582  13.927  20.617  0.00  0.00    +0.000 A 
ATOM     12  O   UNL     1      -1.266  14.532  21.437  0.00  0.00    +0.000 OA
ATOM     13  C   UNL     1      -0.228  14.595  19.348  0.00  0.00    +0.000 A 
ATOM     14  C   UNL     1      -0.705  15.912  19.263  0.00  0.00    +0.000 A 
ATOM     15  C   UNL     1       0.221  16.921  19.285  0.00  0.00    +0.000 A 
ATOM     16  C   UNL     1       1.503  16.634  18.840  0.00  0.00    +0.000 A 
ATOM     17  C   UNL     1       1.861  15.320  18.462  0.00  0.00    +0.000 A 
ATOM     18  C   UNL     1       1.014  14.237  18.833  0.00  0.00    +0.000 A 
ATOM     19  C   UNL     1       1.429  12.832  18.887  0.00  0.00    +0.000 A 
ATOM     20  O   UNL     1       2.305  12.401  18.098  0.00  0.00    +0.000 OA
ATOM     21  C   UNL     1       0.793  11.948  19.922  0.00  0.00    +0.000 A 
ATOM     22  C   UNL     1       1.070  10.585  20.093  0.00  0.00    +0.000 A 
ATOM     23  N   UNL     1       1.728   9.783  19.133  0.00  0.00    +0.000 N 
ATOM     24  C   UNL     1       1.897   8.403  19.357  0.00  0.00    +0.000 A 
ATOM     25  C   UNL     1       2.544   7.545  18.465  0.00  0.00    +0.000 A 
ATOM     26  H   UNL     1       2.250  10.244  18.399  0.00  0.00    +0.000 HD
ENDROOT
BRANCH   9  27
ATOM     27  N   UNL     1      -1.309  12.542  23.035  0.00  0.00    +0.000 N 
ATOM     28  H   UNL     1      -0.757  12.878  23.836  0.00  0.00    +0.000 HD
BRANCH  27  29
ATOM     29  C   UNL     1      -2.579  11.915  23.420  0.00  0.00    +0.000 C 
BRANCH  29  30
ATOM     30  C   UNL     1      -3.757  12.659  22.783  0.00  0.00    +0.000 C 
BRANCH  30  31
ATOM     31  C   UNL     1      -4.878  12.941  23.794  0.00  0.00    +0.000 C 
BRANCH  31  32
ATOM     32  N   UNL     1      -6.213  12.472  23.384  0.00  0.00    +0.000 NA
ATOM     33  C   UNL     1      -7.287  13.149  24.111  0.00  0.00    +0.000 C 
ATOM     34  C   UNL     1      -6.392  12.671  21.942  0.00  0.00    +0.000 C 
ENDBRANCH  31  32
ENDBRANCH  30  31
ENDBRANCH  29  30
ENDBRANCH  27  29
ENDBRANCH   9  27
TORSDOF 5
ENDMDL
MODEL 8
REMARK VINA RESULT:      -6.8      2.317      4.614
REMARK  Name = 
REMARK  8 active torsions:
REMARK  status: ('A' for Active; 'I' for Inactive)
REMARK    1  A    between atoms: C_1  and  C_2
REMARK    2  A    between atoms: C_9  and  N_10
REMARK    3  A    between atoms: N_10  and  C_11
REMARK    4  A    between atoms: C_11  and  C_12
REMARK    5  A    between atoms: C_12  and  C_13
REMARK    6  A    between atoms: C_13  and  N_14
REMARK    7  A    between atoms: N_14  and  C_15
REMARK    8  A    between atoms: N_14  and  C_16
REMARK                            x       y       z     vdW  Elec       q    Type
REMARK                         _______ _______ _______ _____ _____    ______ ____
ROOT
ATOM      1  C   UNL     1      -1.133  11.035  22.482  0.00  0.00    +0.000 C 
ATOM      2  C   UNL     1      -0.245  10.459  21.411  0.00  0.00    +0.000 A 
ATOM      3  C   UNL     1       0.161  11.273  20.347  0.00  0.00    +0.000 A 
ATOM      4  C   UNL     1       0.995  10.756  19.375  0.00  0.00    +0.000 A 
ATOM      5  C   UNL     1       1.445   9.442  19.480  0.00  0.00    +0.000 A 
ATOM      6  O   UNL     1       2.286   9.031  18.479  0.00  0.00    +0.000 OA
ATOM      7  C   UNL     1       2.746   7.736  18.519  0.00  0.00    +0.000 A 
ATOM      8  C   UNL     1       3.559   7.407  17.443  0.00  0.00    +0.000 A 
ATOM      9  C   UNL     1       3.985   6.104  17.254  0.00  0.00    +0.000 A 
ATOM     10  C   UNL     1       3.574   5.147  18.224  0.00  0.00    +0.000 A 
ATOM     11  C   UNL     1       3.839   3.724  17.933  0.00  0.00    +0.000 A 
ATOM     12  O   UNL     1       4.503   3.375  16.961  0.00  0.00    +0.000 OA
ATOM     13  C   UNL     1       3.340   2.692  18.866  0.00  0.00    +0.000 A 
ATOM     14  C   UNL     1       3.748   1.393  18.526  0.00  0.00    +0.000 A 
ATOM     15  C   UNL     1       4.638   0.773  19.361  0.00  0.00    +0.000 A 
ATOM     16  C   UNL     1       4.660   1.164  20.691  0.00  0.00    +0.000 A 
ATOM     17  C   UNL     1       3.850   2.230  21.146  0.00  0.00    +0.000 A 
ATOM     18  C   UNL     1       3.256   3.104  20.192  0.00  0.00    +0.000 A 
ATOM     19  C   UNL     1       2.756   4.450  20.489  0.00  0.00    +0.000 A 
ATOM     20  O   UNL     1       2.280   4.712  21.621  0.00  0.00    +0.000 OA
ATOM     21  C   UNL     1       2.855   5.494  19.412  0.00  0.00    +0.000 A 
ATOM     22  C   UNL     1       2.411   6.817  19.534  0.00  0.00    +0.000 A 
ATOM     23  N   UNL     1       1.531   7.268  20.543  0.00  0.00    +0.000 N 
ATOM     24  C   UNL     1       1.076   8.601  20.544  0.00  0.00    +0.000 A 
ATOM     25  C   UNL     1       0.216   9.128  21.510  0.00  0.00    +0.000 A 
ATOM     26  H   UNL     1       1.405   6.690  21.364  0.00  0.00    +0.000 HD
ENDROOT
BRANCH   9  27
ATOM     27  N   UNL     1       4.714   5.771  16.106  0.00  0.00    +0.000 N 
ATOM     28  H   UNL     1       4.322   4.944  15.634  0.00  0.00    +0.000 HD
BRANCH  27  29
ATOM     29  C   UNL     1       6.180   5.777  16.157  0.00  0.00    +0.000 C 
BRANCH  29  30
ATOM     30  C   UNL     1       6.762   5.147  14.887  0.00  0.00    +0.000 C 
BRANCH  30  31
ATOM     31  C   UNL     1       5.670   4.553  13.985  0.00  0.00    +0.000 C 
BRANCH  31  32
ATOM     32  N   UNL     1       6.164   3.653  12.928  0.00  0.00    +0.000 NA
ATOM     33  C   UNL     1       5.094   3.200  12.040  0.00  0.00    +0.000 C 
ATOM     34  C   UNL     1       7.206   4.324  12.145  0.00  0.00    +0.000 C 
ENDBRANCH  31  32
ENDBRANCH  30  31
ENDBRANCH  29  30
ENDBRANCH  27  29
ENDBRANCH   9  27
TORSDOF 5
ENDMDL
MODEL 9
REMARK VINA RESULT:      -6.7      3.497      9.868
REMARK  Name = 
REMARK  8 active torsions:
REMARK  status: ('A' for Active; 'I' for Inactive)
REMARK    1  A    between atoms: C_1  and  C_2
REMARK    2  A    between atoms: C_9  and  N_10
REMARK    3  A    between atoms: N_10  and  C_11
REMARK    4  A    between atoms: C_11  and  C_12
REMARK    5  A    between atoms: C_12  and  C_13
REMARK    6  A    between atoms: C_13  and  N_14
REMARK    7  A    between atoms: N_14  and  C_15
REMARK    8  A    between atoms: N_14  and  C_16
REMARK                            x       y       z     vdW  Elec       q    Type
REMARK                         _______ _______ _______ _____ _____    ______ ____
ROOT
ATOM      1  C   UNL     1       2.602   4.231  20.453  0.00  0.00    +0.000 C 
ATOM      2  C   UNL     1       2.422   5.652  19.985  0.00  0.00    +0.000 A 
ATOM      3  C   UNL     1       2.963   6.041  18.753  0.00  0.00    +0.000 A 
ATOM      4  C   UNL     1       2.780   7.336  18.310  0.00  0.00    +0.000 A 
ATOM      5  C   UNL     1       2.037   8.230  19.077  0.00  0.00    +0.000 A 
ATOM      6  O   UNL     1       1.893   9.482  18.539  0.00  0.00    +0.000 OA
ATOM      7  C   UNL     1       1.186  10.414  19.263  0.00  0.00    +0.000 A 
ATOM      8  C   UNL     1       1.130  11.658  18.652  0.00  0.00    +0.000 A 
ATOM      9  C   UNL     1       0.584  12.745  19.314  0.00  0.00    +0.000 A 
ATOM     10  C   UNL     1       0.066  12.508  20.618  0.00  0.00    +0.000 A 
ATOM     11  C   UNL     1      -0.329  13.684  21.419  0.00  0.00    +0.000 A 
ATOM     12  O   UNL     1      -0.339  14.816  20.944  0.00  0.00    +0.000 OA
ATOM     13  C   UNL     1      -0.776  13.489  22.813  0.00  0.00    +0.000 A 
ATOM     14  C   UNL     1      -1.217  14.673  23.425  0.00  0.00    +0.000 A 
ATOM     15  C   UNL     1      -2.552  14.776  23.710  0.00  0.00    +0.000 A 
ATOM     16  C   UNL     1      -3.265  13.603  23.909  0.00  0.00    +0.000 A 
ATOM     17  C   UNL     1      -2.649  12.342  23.736  0.00  0.00    +0.000 A 
ATOM     18  C   UNL     1      -1.400  12.270  23.055  0.00  0.00    +0.000 A 
ATOM     19  C   UNL     1      -0.852  11.055  22.443  0.00  0.00    +0.000 A 
ATOM     20  O   UNL     1      -1.102   9.929  22.940  0.00  0.00    +0.000 OA
ATOM     21  C   UNL     1      -0.012  11.205  21.206  0.00  0.00    +0.000 A 
ATOM     22  C   UNL     1       0.593  10.148  20.514  0.00  0.00    +0.000 A 
ATOM     23  N   UNL     1       0.772   8.851  21.046  0.00  0.00    +0.000 N 
ATOM     24  C   UNL     1       1.461   7.870  20.307  0.00  0.00    +0.000 A 
ATOM     25  C   UNL     1       1.670   6.564  20.757  0.00  0.00    +0.000 A 
ATOM     26  H   UNL     1       0.226   8.585  21.856  0.00  0.00    +0.000 HD
ENDROOT
BRANCH   9  27
ATOM     27  N   UNL     1       0.634  14.013  18.725  0.00  0.00    +0.000 N 
ATOM     28  H   UNL     1      -0.132  14.148  18.049  0.00  0.00    +0.000 HD
BRANCH  27  29
ATOM     29  C   UNL     1       1.921  14.544  18.263  0.00  0.00    +0.000 C 
BRANCH  29  30
ATOM     30  C   UNL     1       2.734  15.080  19.447  0.00  0.00    +0.000 C 
BRANCH  30  31
ATOM     31  C   UNL     1       3.811  16.080  19.002  0.00  0.00    +0.000 C 
BRANCH  31  32
ATOM     32  N   UNL     1       5.193  15.681  19.319  0.00  0.00    +0.000 NA
ATOM     33  C   UNL     1       5.278  14.917  20.564  0.00  0.00    +0.000 C 
ATOM     34  C   UNL     1       5.752  14.893  18.217  0.00  0.00    +0.000 C 
ENDBRANCH  31  32
ENDBRANCH  30  31
ENDBRANCH  29  30
ENDBRANCH  27  29
ENDBRANCH   9  27
TORSDOF 5
ENDMDL
