MODEL 1
REMARK VINA RESULT:      -8.6      0.000      0.000
REMARK  Name = 
REMARK  11 active torsions:
REMARK  status: ('A' for Active; 'I' for Inactive)
REMARK    1  A    between atoms: C_1  and  C_2
REMARK    2  A    between atoms: C_2  and  C_3
REMARK    3  A    between atoms: C_3  and  S_4
REMARK    4  A    between atoms: S_4  and  C_5
REMARK    5  A    between atoms: C_5  and  C_6
REMARK    6  A    between atoms: C_6  and  C_7
REMARK    7  A    between atoms: C_9  and  C_10
REMARK    8  A    between atoms: C_13  and  S_14
REMARK    9  A    between atoms: S_14  and  C_15
REMARK   10  A    between atoms: N_20  and  C_21
REMARK   11  A    between atoms: C_28  and  C_29
REMARK                            x       y       z     vdW  Elec       q    Type
REMARK                         _______ _______ _______ _____ _____    ______ ____
ROOT
ATOM      1  C   UNL     1       4.790   5.951  16.651  0.00  0.00    +0.000 A 
ATOM      2  C   UNL     1       4.104   7.112  17.072  0.00  0.00    +0.000 A 
ATOM      3  C   UNL     1       3.157   6.771  18.027  0.00  0.00    +0.000 A 
ATOM      4  N   UNL     1       3.231   5.371  18.190  0.00  0.00    +0.000 N 
ATOM      5  C   UNL     1       4.239   4.885  17.348  0.00  0.00    +0.000 A 
ATOM      6  C   UNL     1       4.608   3.445  17.164  0.00  0.00    +0.000 C 
ENDROOT
BRANCH   4   7
ATOM      7  C   UNL     1       2.410   4.566  19.047  0.00  0.00    +0.000 A 
ATOM      8  C   UNL     1       1.293   3.894  18.531  0.00  0.00    +0.000 A 
ATOM      9  C   UNL     1       0.508   3.083  19.357  0.00  0.00    +0.000 A 
ATOM     10  C   UNL     1       0.864   2.902  20.692  0.00  0.00    +0.000 A 
ATOM     11  C   UNL     1       1.984   3.552  21.195  0.00  0.00    +0.000 A 
ATOM     12  F   UNL     1       2.351   3.344  22.466  0.00  0.00    +0.000 F 
ATOM     13  C   UNL     1       2.742   4.404  20.399  0.00  0.00    +0.000 A 
ENDBRANCH   4   7
BRANCH   3  14
ATOM     14  C   UNL     1       2.292   7.719  18.772  0.00  0.00    +0.000 A 
ATOM     15  C   UNL     1       2.046   7.521  20.142  0.00  0.00    +0.000 A 
ATOM     16  C   UNL     1       1.298   8.446  20.885  0.00  0.00    +0.000 A 
ATOM     17  C   UNL     1       0.817   9.597  20.260  0.00  0.00    +0.000 A 
ATOM     18  C   UNL     1       0.992   9.782  18.890  0.00  0.00    +0.000 A 
ATOM     19  C   UNL     1       1.690   8.824  18.151  0.00  0.00    +0.000 A 
BRANCH  17  20
ATOM     20  S   UNL     1      -0.072  10.816  21.201  0.00  0.00    +0.000 S 
ATOM     21  C   UNL     1      -1.245  11.459  20.033  0.00  0.00    +0.000 C 
ATOM     22  O   UNL     1      -0.807  10.115  22.239  0.00  0.00    +0.000 OA
ATOM     23  O   UNL     1       0.858  11.873  21.532  0.00  0.00    +0.000 OA
ENDBRANCH  17  20
ENDBRANCH   3  14
BRANCH   1  24
ATOM     24  C   UNL     1       5.907   5.893  15.649  0.00  0.00    +0.000 C 
BRANCH  24  25
ATOM     25  C   UNL     1       7.237   5.452  16.269  0.00  0.00    +0.000 C 
BRANCH  25  26
ATOM     26  S   UNL     1       7.410   6.208  17.920  0.00  0.00    +0.000 S 
BRANCH  26  27
ATOM     27  C   UNL     1       7.710   7.936  17.429  0.00  0.00    +0.000 C 
BRANCH  27  29
ATOM     28  C   UNL     1       8.755  10.094  18.216  0.00  0.00    +0.000 C 
ATOM     29  C   UNL     1       8.512   8.626  18.530  0.00  0.00    +0.000 C 
ENDBRANCH  27  29
ENDBRANCH  26  27
ENDBRANCH  25  26
ENDBRANCH  24  25
ENDBRANCH   1  24
TORSDOF 8
ENDMDL
MODEL 2
REMARK VINA RESULT:      -8.4      1.090      1.543
REMARK  Name = 
REMARK  11 active torsions:
REMARK  status: ('A' for Active; 'I' for Inactive)
REMARK    1  A    between atoms: C_1  and  C_2
REMARK    2  A    between atoms: C_2  and  C_3
REMARK    3  A    between atoms: C_3  and  S_4
REMARK    4  A    between atoms: S_4  and  C_5
REMARK    5  A    between atoms: C_5  and  C_6
REMARK    6  A    between atoms: C_6  and  C_7
REMARK    7  A    between atoms: C_9  and  C_10
REMARK    8  A    between atoms: C_13  and  S_14
REMARK    9  A    between atoms: S_14  and  C_15
REMARK   10  A    between atoms: N_20  and  C_21
REMARK   11  A    between atoms: C_28  and  C_29
REMARK                            x       y       z     vdW  Elec       q    Type
REMARK                         _______ _______ _______ _____ _____    ______ ____
ROOT
ATOM      1  C   UNL     1       4.733   5.900  16.534  0.00  0.00    +0.000 A 
ATOM      2  C   UNL     1       4.063   7.069  16.957  0.00  0.00    +0.000 A 
ATOM      3  C   UNL     1       3.131   6.742  17.932  0.00  0.00    +0.000 A 
ATOM      4  N   UNL     1       3.200   5.343  18.107  0.00  0.00    +0.000 N 
ATOM      5  C   UNL     1       4.189   4.844  17.250  0.00  0.00    +0.000 A 
ATOM      6  C   UNL     1       4.546   3.400  17.072  0.00  0.00    +0.000 C 
ENDROOT
BRANCH   4   7
ATOM      7  C   UNL     1       2.391   4.551  18.986  0.00  0.00    +0.000 A 
ATOM      8  C   UNL     1       1.283   3.849  18.489  0.00  0.00    +0.000 A 
ATOM      9  C   UNL     1       0.510   3.051  19.337  0.00  0.00    +0.000 A 
ATOM     10  C   UNL     1       0.868   2.911  20.677  0.00  0.00    +0.000 A 
ATOM     11  C   UNL     1       1.978   3.591  21.161  0.00  0.00    +0.000 A 
ATOM     12  F   UNL     1       2.347   3.424  22.437  0.00  0.00    +0.000 F 
ATOM     13  C   UNL     1       2.725   4.431  20.341  0.00  0.00    +0.000 A 
ENDBRANCH   4   7
BRANCH   3  14
ATOM     14  C   UNL     1       2.286   7.702  18.684  0.00  0.00    +0.000 A 
ATOM     15  C   UNL     1       2.051   7.509  20.057  0.00  0.00    +0.000 A 
ATOM     16  C   UNL     1       1.323   8.444  20.806  0.00  0.00    +0.000 A 
ATOM     17  C   UNL     1       0.850   9.600  20.184  0.00  0.00    +0.000 A 
ATOM     18  C   UNL     1       1.014   9.782  18.813  0.00  0.00    +0.000 A 
ATOM     19  C   UNL     1       1.692   8.814  18.068  0.00  0.00    +0.000 A 
BRANCH  17  20
ATOM     20  S   UNL     1      -0.014  10.832  21.133  0.00  0.00    +0.000 S 
ATOM     21  C   UNL     1      -0.498   9.955  22.599  0.00  0.00    +0.000 C 
ATOM     22  O   UNL     1       0.951  11.847  21.514  0.00  0.00    +0.000 OA
ATOM     23  O   UNL     1      -1.213  11.181  20.402  0.00  0.00    +0.000 OA
ENDBRANCH  17  20
ENDBRANCH   3  14
BRANCH   1  24
ATOM     24  C   UNL     1       5.831   5.826  15.512  0.00  0.00    +0.000 C 
BRANCH  24  25
ATOM     25  C   UNL     1       7.228   5.888  16.137  0.00  0.00    +0.000 C 
BRANCH  25  26
ATOM     26  S   UNL     1       7.437   7.489  16.985  0.00  0.00    +0.000 S 
BRANCH  26  27
ATOM     27  C   UNL     1       8.090   6.900  18.580  0.00  0.00    +0.000 C 
BRANCH  27  29
ATOM     28  C   UNL     1       6.513   5.244  19.649  0.00  0.00    +0.000 C 
ATOM     29  C   UNL     1       7.723   5.427  18.745  0.00  0.00    +0.000 C 
ENDBRANCH  27  29
ENDBRANCH  26  27
ENDBRANCH  25  26
ENDBRANCH  24  25
ENDBRANCH   1  24
TORSDOF 8
ENDMDL
MODEL 3
REMARK VINA RESULT:      -8.3      2.064      3.477
REMARK  Name = 
REMARK  11 active torsions:
REMARK  status: ('A' for Active; 'I' for Inactive)
REMARK    1  A    between atoms: C_1  and  C_2
REMARK    2  A    between atoms: C_2  and  C_3
REMARK    3  A    between atoms: C_3  and  S_4
REMARK    4  A    between atoms: S_4  and  C_5
REMARK    5  A    between atoms: C_5  and  C_6
REMARK    6  A    between atoms: C_6  and  C_7
REMARK    7  A    between atoms: C_9  and  C_10
REMARK    8  A    between atoms: C_13  and  S_14
REMARK    9  A    between atoms: S_14  and  C_15
REMARK   10  A    between atoms: N_20  and  C_21
REMARK   11  A    between atoms: C_28  and  C_29
REMARK                            x       y       z     vdW  Elec       q    Type
REMARK                         _______ _______ _______ _____ _____    ______ ____
ROOT
ATOM      1  C   UNL     1       4.952   5.553  16.452  0.00  0.00    +0.000 A 
ATOM      2  C   UNL     1       4.371   6.776  16.853  0.00  0.00    +0.000 A 
ATOM      3  C   UNL     1       3.419   6.538  17.834  0.00  0.00    +0.000 A 
ATOM      4  N   UNL     1       3.383   5.141  18.035  0.00  0.00    +0.000 N 
ATOM      5  C   UNL     1       4.331   4.553  17.188  0.00  0.00    +0.000 A 
ATOM      6  C   UNL     1       4.579   3.084  17.037  0.00  0.00    +0.000 C 
ENDROOT
BRANCH   4   7
ATOM      7  C   UNL     1       2.518   4.428  18.929  0.00  0.00    +0.000 A 
ATOM      8  C   UNL     1       1.353   3.813  18.447  0.00  0.00    +0.000 A 
ATOM      9  C   UNL     1       0.523   3.091  19.310  0.00  0.00    +0.000 A 
ATOM     10  C   UNL     1       0.878   2.938  20.649  0.00  0.00    +0.000 A 
ATOM     11  C   UNL     1       2.043   3.530  21.118  0.00  0.00    +0.000 A 
ATOM     12  F   UNL     1       2.407   3.349  22.394  0.00  0.00    +0.000 F 
ATOM     13  C   UNL     1       2.851   4.297  20.283  0.00  0.00    +0.000 A 
ENDBRANCH   4   7
BRANCH   3  14
ATOM     14  C   UNL     1       2.648   7.572  18.568  0.00  0.00    +0.000 A 
ATOM     15  C   UNL     1       2.279   8.766  17.924  0.00  0.00    +0.000 A 
ATOM     16  C   UNL     1       1.483   9.722  18.571  0.00  0.00    +0.000 A 
ATOM     17  C   UNL     1       1.024   9.469  19.864  0.00  0.00    +0.000 A 
ATOM     18  C   UNL     1       1.430   8.324  20.546  0.00  0.00    +0.000 A 
ATOM     19  C   UNL     1       2.270   7.408  19.910  0.00  0.00    +0.000 A 
BRANCH  17  20
ATOM     20  S   UNL     1      -0.044  10.637  20.674  0.00  0.00    +0.000 S 
ATOM     21  C   UNL     1      -0.617   9.748  22.100  0.00  0.00    +0.000 C 
ATOM     22  O   UNL     1       0.782  11.740  21.133  0.00  0.00    +0.000 OA
ATOM     23  O   UNL     1      -1.176  10.867  19.803  0.00  0.00    +0.000 OA
ENDBRANCH  17  20
ENDBRANCH   3  14
BRANCH   1  24
ATOM     24  C   UNL     1       6.040   5.378  15.432  0.00  0.00    +0.000 C 
BRANCH  24  25
ATOM     25  C   UNL     1       5.528   4.793  14.113  0.00  0.00    +0.000 C 
BRANCH  25  26
ATOM     26  S   UNL     1       6.941   4.165  13.145  0.00  0.00    +0.000 S 
BRANCH  26  27
ATOM     27  C   UNL     1       6.050   3.085  11.980  0.00  0.00    +0.000 C 
BRANCH  27  29
ATOM     28  C   UNL     1       3.831   3.242  10.787  0.00  0.00    +0.000 C 
ATOM     29  C   UNL     1       4.551   3.341  12.123  0.00  0.00    +0.000 C 
ENDBRANCH  27  29
ENDBRANCH  26  27
ENDBRANCH  25  26
ENDBRANCH  24  25
ENDBRANCH   1  24
TORSDOF 8
ENDMDL
MODEL 4
REMARK VINA RESULT:      -8.3      1.928      3.183
REMARK  Name = 
REMARK  11 active torsions:
REMARK  status: ('A' for Active; 'I' for Inactive)
REMARK    1  A    between atoms: C_1  and  C_2
REMARK    2  A    between atoms: C_2  and  C_3
REMARK    3  A    between atoms: C_3  and  S_4
REMARK    4  A    between atoms: S_4  and  C_5
REMARK    5  A    between atoms: C_5  and  C_6
REMARK    6  A    between atoms: C_6  and  C_7
REMARK    7  A    between atoms: C_9  and  C_10
REMARK    8  A    between atoms: C_13  and  S_14
REMARK    9  A    between atoms: S_14  and  C_15
REMARK   10  A    between atoms: N_20  and  C_21
REMARK   11  A    between atoms: C_28  and  C_29
REMARK                            x       y       z     vdW  Elec       q    Type
REMARK                         _______ _______ _______ _____ _____    ______ ____
ROOT
ATOM      1  C   UNL     1       5.342   5.650  16.834  0.00  0.00    +0.000 A 
ATOM      2  C   UNL     1       4.660   6.860  17.085  0.00  0.00    +0.000 A 
ATOM      3  C   UNL     1       3.574   6.617  17.915  0.00  0.00    +0.000 A 
ATOM      4  N   UNL     1       3.560   5.229  18.169  0.00  0.00    +0.000 N 
ATOM      5  C   UNL     1       4.652   4.652  17.508  0.00  0.00    +0.000 A 
ATOM      6  C   UNL     1       4.976   3.191  17.462  0.00  0.00    +0.000 C 
ENDROOT
BRANCH   4   7
ATOM      7  C   UNL     1       2.593   4.512  18.948  0.00  0.00    +0.000 A 
ATOM      8  C   UNL     1       1.485   3.917  18.327  0.00  0.00    +0.000 A 
ATOM      9  C   UNL     1       0.555   3.192  19.079  0.00  0.00    +0.000 A 
ATOM     10  C   UNL     1       0.754   3.015  20.446  0.00  0.00    +0.000 A 
ATOM     11  C   UNL     1       1.865   3.588  21.054  0.00  0.00    +0.000 A 
ATOM     12  F   UNL     1       2.079   3.383  22.360  0.00  0.00    +0.000 F 
ATOM     13  C   UNL     1       2.768   4.358  20.329  0.00  0.00    +0.000 A 
ENDBRANCH   4   7
BRANCH   3  14
ATOM     14  C   UNL     1       2.659   7.643  18.473  0.00  0.00    +0.000 A 
ATOM     15  C   UNL     1       2.208   7.538  19.801  0.00  0.00    +0.000 A 
ATOM     16  C   UNL     1       1.409   8.536  20.376  0.00  0.00    +0.000 A 
ATOM     17  C   UNL     1       1.081   9.666  19.627  0.00  0.00    +0.000 A 
ATOM     18  C   UNL     1       1.460   9.762  18.290  0.00  0.00    +0.000 A 
ATOM     19  C   UNL     1       2.208   8.732  17.713  0.00  0.00    +0.000 A 
BRANCH  17  20
ATOM     20  S   UNL     1       0.126  10.975  20.361  0.00  0.00    +0.000 S 
ATOM     21  C   UNL     1      -0.401  11.932  18.962  0.00  0.00    +0.000 C 
ATOM     22  O   UNL     1      -1.050  10.373  20.964  0.00  0.00    +0.000 OA
ATOM     23  O   UNL     1       1.032  11.786  21.145  0.00  0.00    +0.000 OA
ENDBRANCH  17  20
ENDBRANCH   3  14
BRANCH   1  24
ATOM     24  C   UNL     1       6.584   5.485  16.005  0.00  0.00    +0.000 C 
BRANCH  24  25
ATOM     25  C   UNL     1       6.284   5.351  14.509  0.00  0.00    +0.000 C 
BRANCH  25  26
ATOM     26  S   UNL     1       6.009   3.593  14.107  0.00  0.00    +0.000 S 
BRANCH  26  27
ATOM     27  C   UNL     1       6.378   3.633  12.324  0.00  0.00    +0.000 C 
BRANCH  27  29
ATOM     28  C   UNL     1       4.124   3.206  11.270  0.00  0.00    +0.000 C 
ATOM     29  C   UNL     1       5.484   2.617  11.616  0.00  0.00    +0.000 C 
ENDBRANCH  27  29
ENDBRANCH  26  27
ENDBRANCH  25  26
ENDBRANCH  24  25
ENDBRANCH   1  24
TORSDOF 8
ENDMDL
MODEL 5
REMARK VINA RESULT:      -8.3      2.118      3.437
REMARK  Name = 
REMARK  11 active torsions:
REMARK  status: ('A' for Active; 'I' for Inactive)
REMARK    1  A    between atoms: C_1  and  C_2
REMARK    2  A    between atoms: C_2  and  C_3
REMARK    3  A    between atoms: C_3  and  S_4
REMARK    4  A    between atoms: S_4  and  C_5
REMARK    5  A    between atoms: C_5  and  C_6
REMARK    6  A    between atoms: C_6  and  C_7
REMARK    7  A    between atoms: C_9  and  C_10
REMARK    8  A    between atoms: C_13  and  S_14
REMARK    9  A    between atoms: S_14  and  C_15
REMARK   10  A    between atoms: N_20  and  C_21
REMARK   11  A    between atoms: C_28  and  C_29
REMARK                            x       y       z     vdW  Elec       q    Type
REMARK                         _______ _______ _______ _____ _____    ______ ____
ROOT
ATOM      1  C   UNL     1       5.242   5.854  16.888  0.00  0.00    +0.000 A 
ATOM      2  C   UNL     1       4.453   6.997  17.144  0.00  0.00    +0.000 A 
ATOM      3  C   UNL     1       3.441   6.672  18.036  0.00  0.00    +0.000 A 
ATOM      4  N   UNL     1       3.581   5.298  18.326  0.00  0.00    +0.000 N 
ATOM      5  C   UNL     1       4.691   4.813  17.623  0.00  0.00    +0.000 A 
ATOM      6  C   UNL     1       5.159   3.391  17.598  0.00  0.00    +0.000 C 
ENDROOT
BRANCH   4   7
ATOM      7  C   UNL     1       2.731   4.513  19.173  0.00  0.00    +0.000 A 
ATOM      8  C   UNL     1       2.875   4.568  20.567  0.00  0.00    +0.000 A 
ATOM      9  C   UNL     1       2.028   3.827  21.397  0.00  0.00    +0.000 A 
ATOM     10  C   UNL     1       1.002   3.066  20.841  0.00  0.00    +0.000 A 
ATOM     11  C   UNL     1       0.849   3.032  19.461  0.00  0.00    +0.000 A 
ATOM     12  F   UNL     1      -0.163   2.334  18.928  0.00  0.00    +0.000 F 
ATOM     13  C   UNL     1       1.717   3.720  18.620  0.00  0.00    +0.000 A 
ENDBRANCH   4   7
BRANCH   3  14
ATOM     14  C   UNL     1       2.455   7.618  18.615  0.00  0.00    +0.000 A 
ATOM     15  C   UNL     1       2.115   7.535  19.977  0.00  0.00    +0.000 A 
ATOM     16  C   UNL     1       1.248   8.467  20.565  0.00  0.00    +0.000 A 
ATOM     17  C   UNL     1       0.740   9.512  19.793  0.00  0.00    +0.000 A 
ATOM     18  C   UNL     1       1.011   9.578  18.428  0.00  0.00    +0.000 A 
ATOM     19  C   UNL     1       1.830   8.609  17.843  0.00  0.00    +0.000 A 
BRANCH  17  20
ATOM     20  S   UNL     1      -0.304  10.744  20.537  0.00  0.00    +0.000 S 
ATOM     21  C   UNL     1       0.724  12.192  20.563  0.00  0.00    +0.000 C 
ATOM     22  O   UNL     1      -1.407  10.991  19.626  0.00  0.00    +0.000 OA
ATOM     23  O   UNL     1      -0.545  10.340  21.906  0.00  0.00    +0.000 OA
ENDBRANCH  17  20
ENDBRANCH   3  14
BRANCH   1  24
ATOM     24  C   UNL     1       6.451   5.789  15.999  0.00  0.00    +0.000 C 
BRANCH  24  25
ATOM     25  C   UNL     1       6.095   5.526  14.533  0.00  0.00    +0.000 C 
BRANCH  25  26
ATOM     26  S   UNL     1       6.311   3.751  14.171  0.00  0.00    +0.000 S 
BRANCH  26  27
ATOM     27  C   UNL     1       6.270   3.809  12.351  0.00  0.00    +0.000 C 
BRANCH  27  29
ATOM     28  C   UNL     1       4.107   3.195  11.205  0.00  0.00    +0.000 C 
ATOM     29  C   UNL     1       5.385   2.673  11.844  0.00  0.00    +0.000 C 
ENDBRANCH  27  29
ENDBRANCH  26  27
ENDBRANCH  25  26
ENDBRANCH  24  25
ENDBRANCH   1  24
TORSDOF 8
ENDMDL
MODEL 6
REMARK VINA RESULT:      -8.1      2.205      3.620
REMARK  Name = 
REMARK  11 active torsions:
REMARK  status: ('A' for Active; 'I' for Inactive)
REMARK    1  A    between atoms: C_1  and  C_2
REMARK    2  A    between atoms: C_2  and  C_3
REMARK    3  A    between atoms: C_3  and  S_4
REMARK    4  A    between atoms: S_4  and  C_5
REMARK    5  A    between atoms: C_5  and  C_6
REMARK    6  A    between atoms: C_6  and  C_7
REMARK    7  A    between atoms: C_9  and  C_10
REMARK    8  A    between atoms: C_13  and  S_14
REMARK    9  A    between atoms: S_14  and  C_15
REMARK   10  A    between atoms: N_20  and  C_21
REMARK   11  A    between atoms: C_28  and  C_29
REMARK                            x       y       z     vdW  Elec       q    Type
REMARK                         _______ _______ _______ _____ _____    ______ ____
ROOT
ATOM      1  C   UNL     1       5.072   5.676  16.426  0.00  0.00    +0.000 A 
ATOM      2  C   UNL     1       4.393   6.867  16.765  0.00  0.00    +0.000 A 
ATOM      3  C   UNL     1       3.465   6.603  17.763  0.00  0.00    +0.000 A 
ATOM      4  N   UNL     1       3.545   5.221  18.037  0.00  0.00    +0.000 N 
ATOM      5  C   UNL     1       4.537   4.669  17.217  0.00  0.00    +0.000 A 
ATOM      6  C   UNL     1       4.905   3.219  17.142  0.00  0.00    +0.000 C 
ENDROOT
BRANCH   4   7
ATOM      7  C   UNL     1       2.743   4.488  18.973  0.00  0.00    +0.000 A 
ATOM      8  C   UNL     1       2.981   4.600  20.350  0.00  0.00    +0.000 A 
ATOM      9  C   UNL     1       2.181   3.911  21.267  0.00  0.00    +0.000 A 
ATOM     10  C   UNL     1       1.109   3.144  20.815  0.00  0.00    +0.000 A 
ATOM     11  C   UNL     1       0.863   3.053  19.451  0.00  0.00    +0.000 A 
ATOM     12  F   UNL     1      -0.192   2.350  19.018  0.00  0.00    +0.000 F 
ATOM     13  C   UNL     1       1.683   3.689  18.524  0.00  0.00    +0.000 A 
ENDBRANCH   4   7
BRANCH   3  14
ATOM     14  C   UNL     1       2.613   7.608  18.446  0.00  0.00    +0.000 A 
ATOM     15  C   UNL     1       2.078   8.688  17.722  0.00  0.00    +0.000 A 
ATOM     16  C   UNL     1       1.206   9.605  18.326  0.00  0.00    +0.000 A 
ATOM     17  C   UNL     1       0.839   9.423  19.660  0.00  0.00    +0.000 A 
ATOM     18  C   UNL     1       1.405   8.399  20.415  0.00  0.00    +0.000 A 
ATOM     19  C   UNL     1       2.317   7.527  19.815  0.00  0.00    +0.000 A 
BRANCH  17  20
ATOM     20  S   UNL     1      -0.321  10.534  20.423  0.00  0.00    +0.000 S 
ATOM     21  C   UNL     1       0.613  12.031  20.619  0.00  0.00    +0.000 C 
ATOM     22  O   UNL     1      -1.381  10.786  19.463  0.00  0.00    +0.000 OA
ATOM     23  O   UNL     1      -0.618  10.015  21.741  0.00  0.00    +0.000 OA
ENDBRANCH  17  20
ENDBRANCH   3  14
BRANCH   1  24
ATOM     24  C   UNL     1       6.169   5.537  15.410  0.00  0.00    +0.000 C 
BRANCH  24  25
ATOM     25  C   UNL     1       5.996   4.308  14.513  0.00  0.00    +0.000 C 
BRANCH  25  26
ATOM     26  S   UNL     1       7.080   4.469  13.055  0.00  0.00    +0.000 S 
BRANCH  26  27
ATOM     27  C   UNL     1       6.260   3.285  11.940  0.00  0.00    +0.000 C 
BRANCH  27  29
ATOM     28  C   UNL     1       3.949   3.276  10.925  0.00  0.00    +0.000 C 
ATOM     29  C   UNL     1       4.759   3.315  12.213  0.00  0.00    +0.000 C 
ENDBRANCH  27  29
ENDBRANCH  26  27
ENDBRANCH  25  26
ENDBRANCH  24  25
ENDBRANCH   1  24
TORSDOF 8
ENDMDL
MODEL 7
REMARK VINA RESULT:      -8.0      1.788      2.986
REMARK  Name = 
REMARK  11 active torsions:
REMARK  status: ('A' for Active; 'I' for Inactive)
REMARK    1  A    between atoms: C_1  and  C_2
REMARK    2  A    between atoms: C_2  and  C_3
REMARK    3  A    between atoms: C_3  and  S_4
REMARK    4  A    between atoms: S_4  and  C_5
REMARK    5  A    between atoms: C_5  and  C_6
REMARK    6  A    between atoms: C_6  and  C_7
REMARK    7  A    between atoms: C_9  and  C_10
REMARK    8  A    between atoms: C_13  and  S_14
REMARK    9  A    between atoms: S_14  and  C_15
REMARK   10  A    between atoms: N_20  and  C_21
REMARK   11  A    between atoms: C_28  and  C_29
REMARK                            x       y       z     vdW  Elec       q    Type
REMARK                         _______ _______ _______ _____ _____    ______ ____
ROOT
ATOM      1  C   UNL     1       5.653   5.921  17.644  0.00  0.00    +0.000 A 
ATOM      2  C   UNL     1       4.846   7.077  17.734  0.00  0.00    +0.000 A 
ATOM      3  C   UNL     1       3.619   6.745  18.291  0.00  0.00    +0.000 A 
ATOM      4  N   UNL     1       3.646   5.354  18.533  0.00  0.00    +0.000 N 
ATOM      5  C   UNL     1       4.899   4.866  18.139  0.00  0.00    +0.000 A 
ATOM      6  C   UNL     1       5.329   3.432  18.167  0.00  0.00    +0.000 C 
ENDROOT
BRANCH   4   7
ATOM      7  C   UNL     1       2.580   4.559  19.066  0.00  0.00    +0.000 A 
ATOM      8  C   UNL     1       1.614   4.005  18.213  0.00  0.00    +0.000 A 
ATOM      9  C   UNL     1       0.590   3.203  18.727  0.00  0.00    +0.000 A 
ATOM     10  C   UNL     1       0.554   2.910  20.088  0.00  0.00    +0.000 A 
ATOM     11  C   UNL     1       1.525   3.442  20.927  0.00  0.00    +0.000 A 
ATOM     12  F   UNL     1       1.515   3.127  22.229  0.00  0.00    +0.000 F 
ATOM     13  C   UNL     1       2.518   4.286  20.439  0.00  0.00    +0.000 A 
ENDBRANCH   4   7
BRANCH   3  14
ATOM     14  C   UNL     1       2.529   7.694  18.626  0.00  0.00    +0.000 A 
ATOM     15  C   UNL     1       2.043   7.773  19.943  0.00  0.00    +0.000 A 
ATOM     16  C   UNL     1       1.071   8.718  20.300  0.00  0.00    +0.000 A 
ATOM     17  C   UNL     1       0.602   9.615  19.340  0.00  0.00    +0.000 A 
ATOM     18  C   UNL     1       1.020   9.514  18.015  0.00  0.00    +0.000 A 
ATOM     19  C   UNL     1       1.946   8.530  17.661  0.00  0.00    +0.000 A 
BRANCH  17  20
ATOM     20  S   UNL     1      -0.579  10.866  19.791  0.00  0.00    +0.000 S 
ATOM     21  C   UNL     1       0.231  12.378  19.333  0.00  0.00    +0.000 C 
ATOM     22  O   UNL     1      -1.740  10.700  18.935  0.00  0.00    +0.000 OA
ATOM     23  O   UNL     1      -0.707  10.844  21.232  0.00  0.00    +0.000 OA
ENDBRANCH  17  20
ENDBRANCH   3  14
BRANCH   1  24
ATOM     24  C   UNL     1       7.060   5.858  17.123  0.00  0.00    +0.000 C 
BRANCH  24  25
ATOM     25  C   UNL     1       7.228   4.838  15.993  0.00  0.00    +0.000 C 
BRANCH  25  26
ATOM     26  S   UNL     1       6.088   5.255  14.632  0.00  0.00    +0.000 S 
BRANCH  26  27
ATOM     27  C   UNL     1       5.742   3.579  14.007  0.00  0.00    +0.000 C 
BRANCH  27  29
ATOM     28  C   UNL     1       4.897   3.136  11.670  0.00  0.00    +0.000 C 
ATOM     29  C   UNL     1       6.095   3.527  12.523  0.00  0.00    +0.000 C 
ENDBRANCH  27  29
ENDBRANCH  26  27
ENDBRANCH  25  26
ENDBRANCH  24  25
ENDBRANCH   1  24
TORSDOF 8
ENDMDL
MODEL 8
REMARK VINA RESULT:      -7.9      1.338      1.602
REMARK  Name = 
REMARK  11 active torsions:
REMARK  status: ('A' for Active; 'I' for Inactive)
REMARK    1  A    between atoms: C_1  and  C_2
REMARK    2  A    between atoms: C_2  and  C_3
REMARK    3  A    between atoms: C_3  and  S_4
REMARK    4  A    between atoms: S_4  and  C_5
REMARK    5  A    between atoms: C_5  and  C_6
REMARK    6  A    between atoms: C_6  and  C_7
REMARK    7  A    between atoms: C_9  and  C_10
REMARK    8  A    between atoms: C_13  and  S_14
REMARK    9  A    between atoms: S_14  and  C_15
REMARK   10  A    between atoms: N_20  and  C_21
REMARK   11  A    between atoms: C_28  and  C_29
REMARK                            x       y       z     vdW  Elec       q    Type
REMARK                         _______ _______ _______ _____ _____    ______ ____
ROOT
ATOM      1  C   UNL     1       5.625   6.372  17.639  0.00  0.00    +0.000 A 
ATOM      2  C   UNL     1       4.755   7.479  17.739  0.00  0.00    +0.000 A 
ATOM      3  C   UNL     1       3.540   7.068  18.270  0.00  0.00    +0.000 A 
ATOM      4  N   UNL     1       3.640   5.677  18.484  0.00  0.00    +0.000 N 
ATOM      5  C   UNL     1       4.924   5.267  18.100  0.00  0.00    +0.000 A 
ATOM      6  C   UNL     1       5.432   3.858  18.105  0.00  0.00    +0.000 C 
ENDROOT
BRANCH   4   7
ATOM      7  C   UNL     1       2.612   4.813  18.984  0.00  0.00    +0.000 A 
ATOM      8  C   UNL     1       1.716   4.193  18.101  0.00  0.00    +0.000 A 
ATOM      9  C   UNL     1       0.730   3.326  18.583  0.00  0.00    +0.000 A 
ATOM     10  C   UNL     1       0.667   3.035  19.944  0.00  0.00    +0.000 A 
ATOM     11  C   UNL     1       1.570   3.633  20.813  0.00  0.00    +0.000 A 
ATOM     12  F   UNL     1       1.536   3.321  22.115  0.00  0.00    +0.000 F 
ATOM     13  C   UNL     1       2.521   4.540  20.355  0.00  0.00    +0.000 A 
ENDBRANCH   4   7
BRANCH   3  14
ATOM     14  C   UNL     1       2.395   7.949  18.606  0.00  0.00    +0.000 A 
ATOM     15  C   UNL     1       1.930   8.027  19.931  0.00  0.00    +0.000 A 
ATOM     16  C   UNL     1       0.903   8.912  20.288  0.00  0.00    +0.000 A 
ATOM     17  C   UNL     1       0.354   9.751  19.318  0.00  0.00    +0.000 A 
ATOM     18  C   UNL     1       0.752   9.647  17.988  0.00  0.00    +0.000 A 
ATOM     19  C   UNL     1       1.737   8.720  17.636  0.00  0.00    +0.000 A 
BRANCH  17  20
ATOM     20  S   UNL     1      -0.900  10.929  19.766  0.00  0.00    +0.000 S 
ATOM     21  C   UNL     1      -0.183  12.487  19.304  0.00  0.00    +0.000 C 
ATOM     22  O   UNL     1      -2.049  10.691  18.911  0.00  0.00    +0.000 OA
ATOM     23  O   UNL     1      -1.027  10.903  21.207  0.00  0.00    +0.000 OA
ENDBRANCH  17  20
ENDBRANCH   3  14
BRANCH   1  24
ATOM     24  C   UNL     1       7.041   6.397  17.138  0.00  0.00    +0.000 C 
BRANCH  24  25
ATOM     25  C   UNL     1       7.987   7.157  18.073  0.00  0.00    +0.000 C 
BRANCH  25  26
ATOM     26  S   UNL     1       7.957   8.930  17.647  0.00  0.00    +0.000 S 
BRANCH  26  27
ATOM     27  C   UNL     1       9.026   9.575  18.973  0.00  0.00    +0.000 C 
BRANCH  27  29
ATOM     28  C   UNL     1      10.649  11.437  19.494  0.00  0.00    +0.000 C 
ATOM     29  C   UNL     1       9.571  10.935  18.545  0.00  0.00    +0.000 C 
ENDBRANCH  27  29
ENDBRANCH  26  27
ENDBRANCH  25  26
ENDBRANCH  24  25
ENDBRANCH   1  24
TORSDOF 8
ENDMDL
MODEL 9
REMARK VINA RESULT:      -7.9      4.353      7.055
REMARK  Name = 
REMARK  11 active torsions:
REMARK  status: ('A' for Active; 'I' for Inactive)
REMARK    1  A    between atoms: C_1  and  C_2
REMARK    2  A    between atoms: C_2  and  C_3
REMARK    3  A    between atoms: C_3  and  S_4
REMARK    4  A    between atoms: S_4  and  C_5
REMARK    5  A    between atoms: C_5  and  C_6
REMARK    6  A    between atoms: C_6  and  C_7
REMARK    7  A    between atoms: C_9  and  C_10
REMARK    8  A    between atoms: C_13  and  S_14
REMARK    9  A    between atoms: S_14  and  C_15
REMARK   10  A    between atoms: N_20  and  C_21
REMARK   11  A    between atoms: C_28  and  C_29
REMARK                            x       y       z     vdW  Elec       q    Type
REMARK                         _______ _______ _______ _____ _____    ______ ____
ROOT
ATOM      1  C   UNL     1       6.210   4.201  13.652  0.00  0.00    +0.000 A 
ATOM      2  C   UNL     1       5.151   3.741  14.464  0.00  0.00    +0.000 A 
ATOM      3  C   UNL     1       5.307   4.232  15.753  0.00  0.00    +0.000 A 
ATOM      4  N   UNL     1       6.496   4.992  15.756  0.00  0.00    +0.000 N 
ATOM      5  C   UNL     1       7.033   4.971  14.463  0.00  0.00    +0.000 A 
ATOM      6  C   UNL     1       8.324   5.601  14.039  0.00  0.00    +0.000 C 
ENDROOT
BRANCH   4   7
ATOM      7  C   UNL     1       7.080   5.660  16.883  0.00  0.00    +0.000 A 
ATOM      8  C   UNL     1       7.565   4.920  17.971  0.00  0.00    +0.000 A 
ATOM      9  C   UNL     1       8.163   5.565  19.058  0.00  0.00    +0.000 A 
ATOM     10  C   UNL     1       8.324   6.949  19.041  0.00  0.00    +0.000 A 
ATOM     11  C   UNL     1       7.862   7.676  17.952  0.00  0.00    +0.000 A 
ATOM     12  F   UNL     1       8.055   9.002  17.915  0.00  0.00    +0.000 F 
ATOM     13  C   UNL     1       7.216   7.054  16.888  0.00  0.00    +0.000 A 
ENDBRANCH   4   7
BRANCH   3  14
ATOM     14  C   UNL     1       4.358   4.041  16.878  0.00  0.00    +0.000 A 
ATOM     15  C   UNL     1       3.618   5.131  17.368  0.00  0.00    +0.000 A 
ATOM     16  C   UNL     1       2.657   4.960  18.375  0.00  0.00    +0.000 A 
ATOM     17  C   UNL     1       2.411   3.682  18.876  0.00  0.00    +0.000 A 
ATOM     18  C   UNL     1       3.177   2.598  18.453  0.00  0.00    +0.000 A 
ATOM     19  C   UNL     1       4.170   2.793  17.491  0.00  0.00    +0.000 A 
BRANCH  17  20
ATOM     20  S   UNL     1       1.148   3.434  20.103  0.00  0.00    +0.000 S 
ATOM     21  C   UNL     1       2.030   2.697  21.457  0.00  0.00    +0.000 C 
ATOM     22  O   UNL     1       0.687   4.745  20.527  0.00  0.00    +0.000 OA
ATOM     23  O   UNL     1       0.222   2.452  19.582  0.00  0.00    +0.000 OA
ENDBRANCH  17  20
ENDBRANCH   3  14
BRANCH   1  24
ATOM     24  C   UNL     1       6.396   3.917  12.189  0.00  0.00    +0.000 C 
BRANCH  24  25
ATOM     25  C   UNL     1       6.624   2.431  11.898  0.00  0.00    +0.000 C 
BRANCH  25  26
ATOM     26  S   UNL     1       5.147   1.747  11.075  0.00  0.00    +0.000 S 
BRANCH  26  27
ATOM     27  C   UNL     1       4.051   3.199  11.170  0.00  0.00    +0.000 C 
BRANCH  27  29
ATOM     28  C   UNL     1       2.812   4.515   9.408  0.00  0.00    +0.000 C 
ATOM     29  C   UNL     1       3.058   3.141  10.013  0.00  0.00    +0.000 C 
ENDBRANCH  27  29
ENDBRANCH  26  27
ENDBRANCH  25  26
ENDBRANCH  24  25
ENDBRANCH   1  24
TORSDOF 8
ENDMDL
