MODEL 1
REMARK VINA RESULT:      -8.2      0.000      0.000
REMARK  Name = 
REMARK  2 active torsions:
REMARK  status: ('A' for Active; 'I' for Inactive)
REMARK    1  A    between atoms: C_2  and  C_3
REMARK    2  A    between atoms: C_8  and  C_9
REMARK                            x       y       z     vdW  Elec       q    Type
REMARK                         _______ _______ _______ _____ _____    ______ ____
ROOT
ATOM      1  C   UNL     1       3.516   3.609  18.481  0.00  0.00    +0.000 A 
ATOM      2  C   UNL     1       3.460   2.211  18.364  0.00  0.00    +0.000 A 
ATOM      3  N   UNL     1       2.357   1.456  18.549  0.00  0.00    +0.000 NA
ATOM      4  C   UNL     1       1.235   2.125  18.847  0.00  0.00    +0.000 A 
ATOM      5  C   UNL     1       1.169   3.508  18.967  0.00  0.00    +0.000 A 
ATOM      6  C   UNL     1       2.321   4.304  18.787  0.00  0.00    +0.000 A 
ENDROOT
BRANCH   1   8
ATOM      7  C   UNL     1       5.420   4.831  19.290  0.00  0.00    +0.000 C 
ATOM      8  C   UNL     1       4.845   4.221  18.227  0.00  0.00    +0.000 C 
ATOM      9  C   UNL     1       5.315   4.165  16.781  0.00  0.00    +0.000 C 
ATOM     10  C   UNL     1       4.987   5.452  16.028  0.00  0.00    +0.000 C 
ATOM     11  C   UNL     1       6.047   6.425  16.537  0.00  0.00    +0.000 C 
ATOM     12  C   UNL     1       7.234   5.512  16.875  0.00  0.00    +0.000 C 
ATOM     13  C   UNL     1       7.751   5.579  18.311  0.00  0.00    +0.000 C 
ATOM     14  C   UNL     1       6.707   5.591  19.425  0.00  0.00    +0.000 C 
ATOM     15  N   UNL     1       6.765   4.148  16.604  0.00  0.00    +0.000 NA
ATOM     16  H   UNL     1       7.194   3.450  17.206  0.00  0.00    +0.000 HD
ENDBRANCH   1   8
BRANCH   6  17
ATOM     17  C   UNL     1       2.200   5.788  18.936  0.00  0.00    +0.000 A 
ATOM     18  C   UNL     1       1.932   6.379  20.188  0.00  0.00    +0.000 A 
ATOM     19  C   UNL     1       1.804   7.767  20.341  0.00  0.00    +0.000 A 
ATOM     20  C   UNL     1       1.976   8.611  19.247  0.00  0.00    +0.000 A 
ATOM     21  C   UNL     1       2.238   8.065  18.003  0.00  0.00    +0.000 A 
ATOM     22  C   UNL     1       2.308   6.674  17.848  0.00  0.00    +0.000 A 
ENDBRANCH   6  17
TORSDOF 2
ENDMDL
MODEL 2
REMARK VINA RESULT:      -8.2      0.021      1.044
REMARK  Name = 
REMARK  2 active torsions:
REMARK  status: ('A' for Active; 'I' for Inactive)
REMARK    1  A    between atoms: C_2  and  C_3
REMARK    2  A    between atoms: C_8  and  C_9
REMARK                            x       y       z     vdW  Elec       q    Type
REMARK                         _______ _______ _______ _____ _____    ______ ____
ROOT
ATOM      1  C   UNL     1       3.512   3.606  18.471  0.00  0.00    +0.000 A 
ATOM      2  C   UNL     1       3.456   2.209  18.337  0.00  0.00    +0.000 A 
ATOM      3  N   UNL     1       2.352   1.453  18.512  0.00  0.00    +0.000 NA
ATOM      4  C   UNL     1       1.229   2.118  18.818  0.00  0.00    +0.000 A 
ATOM      5  C   UNL     1       1.164   3.500  18.954  0.00  0.00    +0.000 A 
ATOM      6  C   UNL     1       2.317   4.298  18.784  0.00  0.00    +0.000 A 
ENDROOT
BRANCH   1   8
ATOM      7  C   UNL     1       5.409   4.830  19.292  0.00  0.00    +0.000 C 
ATOM      8  C   UNL     1       4.841   4.221  18.225  0.00  0.00    +0.000 C 
ATOM      9  C   UNL     1       5.318   4.168  16.781  0.00  0.00    +0.000 C 
ATOM     10  C   UNL     1       4.992   5.456  16.028  0.00  0.00    +0.000 C 
ATOM     11  C   UNL     1       6.048   6.429  16.545  0.00  0.00    +0.000 C 
ATOM     12  C   UNL     1       7.235   5.518  16.888  0.00  0.00    +0.000 C 
ATOM     13  C   UNL     1       7.745   5.583  18.326  0.00  0.00    +0.000 C 
ATOM     14  C   UNL     1       6.695   5.591  19.435  0.00  0.00    +0.000 C 
ATOM     15  N   UNL     1       6.769   4.154  16.611  0.00  0.00    +0.000 NA
ATOM     16  H   UNL     1       7.196   3.455  17.214  0.00  0.00    +0.000 HD
ENDBRANCH   1   8
BRANCH   6  17
ATOM     17  C   UNL     1       2.196   5.780  18.950  0.00  0.00    +0.000 A 
ATOM     18  C   UNL     1       2.335   6.654  17.852  0.00  0.00    +0.000 A 
ATOM     19  C   UNL     1       2.236   8.045  17.994  0.00  0.00    +0.000 A 
ATOM     20  C   UNL     1       1.958   8.604  19.238  0.00  0.00    +0.000 A 
ATOM     21  C   UNL     1       1.818   7.777  20.339  0.00  0.00    +0.000 A 
ATOM     22  C   UNL     1       1.975   6.391  20.199  0.00  0.00    +0.000 A 
ENDBRANCH   6  17
TORSDOF 2
ENDMDL
MODEL 3
REMARK VINA RESULT:      -8.0      1.498      2.209
REMARK  Name = 
REMARK  2 active torsions:
REMARK  status: ('A' for Active; 'I' for Inactive)
REMARK    1  A    between atoms: C_2  and  C_3
REMARK    2  A    between atoms: C_8  and  C_9
REMARK                            x       y       z     vdW  Elec       q    Type
REMARK                         _______ _______ _______ _____ _____    ______ ____
ROOT
ATOM      1  C   UNL     1       3.695   4.417  19.346  0.00  0.00    +0.000 A 
ATOM      2  C   UNL     1       3.900   3.129  19.865  0.00  0.00    +0.000 A 
ATOM      3  N   UNL     1       3.204   2.578  20.882  0.00  0.00    +0.000 NA
ATOM      4  C   UNL     1       2.233   3.339  21.405  0.00  0.00    +0.000 A 
ATOM      5  C   UNL     1       1.929   4.619  20.957  0.00  0.00    +0.000 A 
ATOM      6  C   UNL     1       2.659   5.207  19.901  0.00  0.00    +0.000 A 
ENDROOT
BRANCH   1   8
ATOM      7  C   UNL     1       4.375   4.143  17.058  0.00  0.00    +0.000 C 
ATOM      8  C   UNL     1       4.584   4.804  18.220  0.00  0.00    +0.000 C 
ATOM      9  C   UNL     1       5.669   5.810  18.573  0.00  0.00    +0.000 C 
ATOM     10  C   UNL     1       6.994   5.124  18.901  0.00  0.00    +0.000 C 
ATOM     11  C   UNL     1       7.528   4.740  17.524  0.00  0.00    +0.000 C 
ATOM     12  C   UNL     1       6.940   5.816  16.601  0.00  0.00    +0.000 C 
ATOM     13  C   UNL     1       6.090   5.317  15.434  0.00  0.00    +0.000 C 
ATOM     14  C   UNL     1       5.080   4.212  15.735  0.00  0.00    +0.000 C 
ATOM     15  N   UNL     1       6.107   6.658  17.468  0.00  0.00    +0.000 NA
ATOM     16  H   UNL     1       5.309   7.063  16.985  0.00  0.00    +0.000 HD
ENDBRANCH   1   8
BRANCH   6  17
ATOM     17  C   UNL     1       2.298   6.590  19.461  0.00  0.00    +0.000 A 
ATOM     18  C   UNL     1       1.787   7.539  20.371  0.00  0.00    +0.000 A 
ATOM     19  C   UNL     1       1.434   8.835  19.971  0.00  0.00    +0.000 A 
ATOM     20  C   UNL     1       1.615   9.235  18.650  0.00  0.00    +0.000 A 
ATOM     21  C   UNL     1       2.113   8.330  17.729  0.00  0.00    +0.000 A 
ATOM     22  C   UNL     1       2.410   7.018  18.125  0.00  0.00    +0.000 A 
ENDBRANCH   6  17
TORSDOF 2
ENDMDL
MODEL 4
REMARK VINA RESULT:      -8.0      1.494      2.426
REMARK  Name = 
REMARK  2 active torsions:
REMARK  status: ('A' for Active; 'I' for Inactive)
REMARK    1  A    between atoms: C_2  and  C_3
REMARK    2  A    between atoms: C_8  and  C_9
REMARK                            x       y       z     vdW  Elec       q    Type
REMARK                         _______ _______ _______ _____ _____    ______ ____
ROOT
ATOM      1  C   UNL     1       3.693   4.402  19.357  0.00  0.00    +0.000 A 
ATOM      2  C   UNL     1       3.898   3.112  19.870  0.00  0.00    +0.000 A 
ATOM      3  N   UNL     1       3.202   2.556  20.883  0.00  0.00    +0.000 NA
ATOM      4  C   UNL     1       2.230   3.314  21.410  0.00  0.00    +0.000 A 
ATOM      5  C   UNL     1       1.926   4.596  20.967  0.00  0.00    +0.000 A 
ATOM      6  C   UNL     1       2.657   5.189  19.915  0.00  0.00    +0.000 A 
ENDROOT
BRANCH   1   8
ATOM      7  C   UNL     1       4.379   4.136  17.069  0.00  0.00    +0.000 C 
ATOM      8  C   UNL     1       4.583   4.795  18.233  0.00  0.00    +0.000 C 
ATOM      9  C   UNL     1       5.662   5.806  18.590  0.00  0.00    +0.000 C 
ATOM     10  C   UNL     1       6.990   5.126  18.919  0.00  0.00    +0.000 C 
ATOM     11  C   UNL     1       7.528   4.746  17.543  0.00  0.00    +0.000 C 
ATOM     12  C   UNL     1       6.937   5.822  16.620  0.00  0.00    +0.000 C 
ATOM     13  C   UNL     1       6.092   5.320  15.451  0.00  0.00    +0.000 C 
ATOM     14  C   UNL     1       5.086   4.210  15.748  0.00  0.00    +0.000 C 
ATOM     15  N   UNL     1       6.099   6.658  17.487  0.00  0.00    +0.000 NA
ATOM     16  H   UNL     1       5.299   7.059  17.003  0.00  0.00    +0.000 HD
ENDBRANCH   1   8
BRANCH   6  17
ATOM     17  C   UNL     1       2.296   6.575  19.481  0.00  0.00    +0.000 A 
ATOM     18  C   UNL     1       2.438   6.983  18.139  0.00  0.00    +0.000 A 
ATOM     19  C   UNL     1       2.115   8.281  17.720  0.00  0.00    +0.000 A 
ATOM     20  C   UNL     1       1.604   9.203  18.629  0.00  0.00    +0.000 A 
ATOM     21  C   UNL     1       1.453   8.838  19.955  0.00  0.00    +0.000 A 
ATOM     22  C   UNL     1       1.832   7.557  20.377  0.00  0.00    +0.000 A 
ENDBRANCH   6  17
TORSDOF 2
ENDMDL
MODEL 5
REMARK VINA RESULT:      -7.6      1.429      4.568
REMARK  Name = 
REMARK  2 active torsions:
REMARK  status: ('A' for Active; 'I' for Inactive)
REMARK    1  A    between atoms: C_2  and  C_3
REMARK    2  A    between atoms: C_8  and  C_9
REMARK                            x       y       z     vdW  Elec       q    Type
REMARK                         _______ _______ _______ _____ _____    ______ ____
ROOT
ATOM      1  C   UNL     1       4.263   4.612  17.084  0.00  0.00    +0.000 A 
ATOM      2  C   UNL     1       5.234   3.959  16.309  0.00  0.00    +0.000 A 
ATOM      3  N   UNL     1       6.233   4.566  15.636  0.00  0.00    +0.000 NA
ATOM      4  C   UNL     1       6.289   5.900  15.752  0.00  0.00    +0.000 A 
ATOM      5  C   UNL     1       5.395   6.648  16.509  0.00  0.00    +0.000 A 
ATOM      6  C   UNL     1       4.339   6.021  17.207  0.00  0.00    +0.000 A 
ENDROOT
BRANCH   1   8
ATOM      7  C   UNL     1       1.972   4.125  17.623  0.00  0.00    +0.000 C 
ATOM      8  C   UNL     1       3.261   3.729  17.736  0.00  0.00    +0.000 C 
ATOM      9  C   UNL     1       3.845   2.568  18.527  0.00  0.00    +0.000 C 
ATOM     10  C   UNL     1       3.975   2.901  20.012  0.00  0.00    +0.000 C 
ATOM     11  C   UNL     1       2.540   2.776  20.516  0.00  0.00    +0.000 C 
ATOM     12  C   UNL     1       1.924   1.726  19.580  0.00  0.00    +0.000 C 
ATOM     13  C   UNL     1       0.678   2.157  18.808  0.00  0.00    +0.000 C 
ATOM     14  C   UNL     1       0.701   3.544  18.170  0.00  0.00    +0.000 C 
ATOM     15  N   UNL     1       2.984   1.392  18.622  0.00  0.00    +0.000 NA
ATOM     16  H   UNL     1       2.627   1.131  17.706  0.00  0.00    +0.000 HD
ENDBRANCH   1   8
BRANCH   6  17
ATOM     17  C   UNL     1       3.398   6.870  18.000  0.00  0.00    +0.000 A 
ATOM     18  C   UNL     1       2.814   8.029  17.448  0.00  0.00    +0.000 A 
ATOM     19  C   UNL     1       1.939   8.842  18.182  0.00  0.00    +0.000 A 
ATOM     20  C   UNL     1       1.593   8.498  19.486  0.00  0.00    +0.000 A 
ATOM     21  C   UNL     1       2.148   7.369  20.062  0.00  0.00    +0.000 A 
ATOM     22  C   UNL     1       3.066   6.594  19.340  0.00  0.00    +0.000 A 
ENDBRANCH   6  17
TORSDOF 2
ENDMDL
MODEL 6
REMARK VINA RESULT:      -7.6      1.433      4.468
REMARK  Name = 
REMARK  2 active torsions:
REMARK  status: ('A' for Active; 'I' for Inactive)
REMARK    1  A    between atoms: C_2  and  C_3
REMARK    2  A    between atoms: C_8  and  C_9
REMARK                            x       y       z     vdW  Elec       q    Type
REMARK                         _______ _______ _______ _____ _____    ______ ____
ROOT
ATOM      1  C   UNL     1       4.249   4.632  17.085  0.00  0.00    +0.000 A 
ATOM      2  C   UNL     1       5.222   3.980  16.312  0.00  0.00    +0.000 A 
ATOM      3  N   UNL     1       6.220   4.589  15.638  0.00  0.00    +0.000 NA
ATOM      4  C   UNL     1       6.273   5.923  15.752  0.00  0.00    +0.000 A 
ATOM      5  C   UNL     1       5.376   6.669  16.507  0.00  0.00    +0.000 A 
ATOM      6  C   UNL     1       4.322   6.041  17.206  0.00  0.00    +0.000 A 
ENDROOT
BRANCH   1   8
ATOM      7  C   UNL     1       1.959   4.138  17.621  0.00  0.00    +0.000 C 
ATOM      8  C   UNL     1       3.250   3.748  17.738  0.00  0.00    +0.000 C 
ATOM      9  C   UNL     1       3.836   2.591  18.534  0.00  0.00    +0.000 C 
ATOM     10  C   UNL     1       3.962   2.930  20.018  0.00  0.00    +0.000 C 
ATOM     11  C   UNL     1       2.527   2.801  20.520  0.00  0.00    +0.000 C 
ATOM     12  C   UNL     1       1.916   1.746  19.587  0.00  0.00    +0.000 C 
ATOM     13  C   UNL     1       0.671   2.168  18.811  0.00  0.00    +0.000 C 
ATOM     14  C   UNL     1       0.690   3.553  18.168  0.00  0.00    +0.000 C 
ATOM     15  N   UNL     1       2.980   1.412  18.631  0.00  0.00    +0.000 NA
ATOM     16  H   UNL     1       2.625   1.147  17.716  0.00  0.00    +0.000 HD
ENDBRANCH   1   8
BRANCH   6  17
ATOM     17  C   UNL     1       3.378   6.889  17.997  0.00  0.00    +0.000 A 
ATOM     18  C   UNL     1       3.051   6.573  19.332  0.00  0.00    +0.000 A 
ATOM     19  C   UNL     1       2.160   7.351  20.083  0.00  0.00    +0.000 A 
ATOM     20  C   UNL     1       1.592   8.496  19.530  0.00  0.00    +0.000 A 
ATOM     21  C   UNL     1       1.887   8.836  18.221  0.00  0.00    +0.000 A 
ATOM     22  C   UNL     1       2.735   8.020  17.459  0.00  0.00    +0.000 A 
ENDBRANCH   6  17
TORSDOF 2
ENDMDL
MODEL 7
REMARK VINA RESULT:      -7.5      2.048      5.231
REMARK  Name = 
REMARK  2 active torsions:
REMARK  status: ('A' for Active; 'I' for Inactive)
REMARK    1  A    between atoms: C_2  and  C_3
REMARK    2  A    between atoms: C_8  and  C_9
REMARK                            x       y       z     vdW  Elec       q    Type
REMARK                         _______ _______ _______ _____ _____    ______ ____
ROOT
ATOM      1  C   UNL     1       2.507   6.484  18.472  0.00  0.00    +0.000 A 
ATOM      2  C   UNL     1       1.491   7.407  18.764  0.00  0.00    +0.000 A 
ATOM      3  N   UNL     1       1.516   8.719  18.450  0.00  0.00    +0.000 NA
ATOM      4  C   UNL     1       2.602   9.142  17.789  0.00  0.00    +0.000 A 
ATOM      5  C   UNL     1       3.658   8.312  17.429  0.00  0.00    +0.000 A 
ATOM      6  C   UNL     1       3.645   6.940  17.764  0.00  0.00    +0.000 A 
ENDROOT
BRANCH   1   8
ATOM      7  C   UNL     1       2.619   4.803  20.186  0.00  0.00    +0.000 C 
ATOM      8  C   UNL     1       2.252   5.089  18.915  0.00  0.00    +0.000 C 
ATOM      9  C   UNL     1       1.716   4.158  17.837  0.00  0.00    +0.000 C 
ATOM     10  C   UNL     1       2.833   3.355  17.174  0.00  0.00    +0.000 C 
ATOM     11  C   UNL     1       3.146   2.284  18.214  0.00  0.00    +0.000 C 
ATOM     12  C   UNL     1       1.806   2.088  18.938  0.00  0.00    +0.000 C 
ATOM     13  C   UNL     1       1.816   2.305  20.450  0.00  0.00    +0.000 C 
ATOM     14  C   UNL     1       2.572   3.525  20.972  0.00  0.00    +0.000 C 
ATOM     15  N   UNL     1       0.890   3.058  18.326  0.00  0.00    +0.000 NA
ATOM     16  H   UNL     1       0.180   3.398  18.970  0.00  0.00    +0.000 HD
ENDBRANCH   1   8
BRANCH   6  17
ATOM     17  C   UNL     1       4.809   6.092  17.363  0.00  0.00    +0.000 A 
ATOM     18  C   UNL     1       5.686   5.547  18.324  0.00  0.00    +0.000 A 
ATOM     19  C   UNL     1       6.787   4.760  17.962  0.00  0.00    +0.000 A 
ATOM     20  C   UNL     1       7.027   4.463  16.624  0.00  0.00    +0.000 A 
ATOM     21  C   UNL     1       6.189   4.982  15.652  0.00  0.00    +0.000 A 
ATOM     22  C   UNL     1       5.123   5.815  16.018  0.00  0.00    +0.000 A 
ENDBRANCH   6  17
TORSDOF 2
ENDMDL
MODEL 8
REMARK VINA RESULT:      -7.5      2.046      5.329
REMARK  Name = 
REMARK  2 active torsions:
REMARK  status: ('A' for Active; 'I' for Inactive)
REMARK    1  A    between atoms: C_2  and  C_3
REMARK    2  A    between atoms: C_8  and  C_9
REMARK                            x       y       z     vdW  Elec       q    Type
REMARK                         _______ _______ _______ _____ _____    ______ ____
ROOT
ATOM      1  C   UNL     1       2.507   6.485  18.465  0.00  0.00    +0.000 A 
ATOM      2  C   UNL     1       1.486   7.409  18.739  0.00  0.00    +0.000 A 
ATOM      3  N   UNL     1       1.514   8.719  18.418  0.00  0.00    +0.000 NA
ATOM      4  C   UNL     1       2.609   9.139  17.769  0.00  0.00    +0.000 A 
ATOM      5  C   UNL     1       3.670   8.309  17.428  0.00  0.00    +0.000 A 
ATOM      6  C   UNL     1       3.654   6.939  17.771  0.00  0.00    +0.000 A 
ENDROOT
BRANCH   1   8
ATOM      7  C   UNL     1       2.614   4.809  20.184  0.00  0.00    +0.000 C 
ATOM      8  C   UNL     1       2.249   5.092  18.913  0.00  0.00    +0.000 C 
ATOM      9  C   UNL     1       1.709   4.160  17.837  0.00  0.00    +0.000 C 
ATOM     10  C   UNL     1       2.824   3.351  17.177  0.00  0.00    +0.000 C 
ATOM     11  C   UNL     1       3.133   2.282  18.220  0.00  0.00    +0.000 C 
ATOM     12  C   UNL     1       1.793   2.093  18.945  0.00  0.00    +0.000 C 
ATOM     13  C   UNL     1       1.804   2.314  20.456  0.00  0.00    +0.000 C 
ATOM     14  C   UNL     1       2.563   3.534  20.974  0.00  0.00    +0.000 C 
ATOM     15  N   UNL     1       0.879   3.064  18.331  0.00  0.00    +0.000 NA
ATOM     16  H   UNL     1       0.171   3.408  18.973  0.00  0.00    +0.000 HD
ENDBRANCH   1   8
BRANCH   6  17
ATOM     17  C   UNL     1       4.825   6.089  17.389  0.00  0.00    +0.000 A 
ATOM     18  C   UNL     1       5.108   5.795  16.039  0.00  0.00    +0.000 A 
ATOM     19  C   UNL     1       6.194   4.991  15.667  0.00  0.00    +0.000 A 
ATOM     20  C   UNL     1       7.055   4.484  16.636  0.00  0.00    +0.000 A 
ATOM     21  C   UNL     1       6.807   4.751  17.971  0.00  0.00    +0.000 A 
ATOM     22  C   UNL     1       5.686   5.508  18.339  0.00  0.00    +0.000 A 
ENDBRANCH   6  17
TORSDOF 2
ENDMDL
MODEL 9
REMARK VINA RESULT:      -7.5      1.096      1.123
REMARK  Name = 
REMARK  2 active torsions:
REMARK  status: ('A' for Active; 'I' for Inactive)
REMARK    1  A    between atoms: C_2  and  C_3
REMARK    2  A    between atoms: C_8  and  C_9
REMARK                            x       y       z     vdW  Elec       q    Type
REMARK                         _______ _______ _______ _____ _____    ______ ____
ROOT
ATOM      1  C   UNL     1       3.484   3.998  19.546  0.00  0.00    +0.000 A 
ATOM      2  C   UNL     1       3.459   2.663  19.981  0.00  0.00    +0.000 A 
ATOM      3  N   UNL     1       2.459   2.090  20.683  0.00  0.00    +0.000 NA
ATOM      4  C   UNL     1       1.410   2.878  20.955  0.00  0.00    +0.000 A 
ATOM      5  C   UNL     1       1.318   4.206  20.556  0.00  0.00    +0.000 A 
ATOM      6  C   UNL     1       2.365   4.817  19.831  0.00  0.00    +0.000 A 
ENDROOT
BRANCH   1   8
ATOM      7  C   UNL     1       5.517   5.272  19.413  0.00  0.00    +0.000 C 
ATOM      8  C   UNL     1       4.693   4.402  18.784  0.00  0.00    +0.000 C 
ATOM      9  C   UNL     1       4.771   3.861  17.364  0.00  0.00    +0.000 C 
ATOM     10  C   UNL     1       4.241   4.866  16.344  0.00  0.00    +0.000 C 
ATOM     11  C   UNL     1       5.384   5.870  16.229  0.00  0.00    +0.000 C 
ATOM     12  C   UNL     1       6.630   5.027  16.535  0.00  0.00    +0.000 C 
ATOM     13  C   UNL     1       7.503   5.504  17.694  0.00  0.00    +0.000 C 
ATOM     14  C   UNL     1       6.785   5.940  18.969  0.00  0.00    +0.000 C 
ATOM     15  N   UNL     1       6.124   3.684  16.844  0.00  0.00    +0.000 NA
ATOM     16  H   UNL     1       6.704   3.182  17.511  0.00  0.00    +0.000 HD
ENDBRANCH   1   8
BRANCH   6  17
ATOM     17  C   UNL     1       2.221   6.251  19.433  0.00  0.00    +0.000 A 
ATOM     18  C   UNL     1       1.834   7.236  20.365  0.00  0.00    +0.000 A 
ATOM     19  C   UNL     1       1.684   8.582  20.005  0.00  0.00    +0.000 A 
ATOM     20  C   UNL     1       1.951   8.992  18.701  0.00  0.00    +0.000 A 
ATOM     21  C   UNL     1       2.331   8.053  17.758  0.00  0.00    +0.000 A 
ATOM     22  C   UNL     1       2.423   6.700  18.114  0.00  0.00    +0.000 A 
ENDBRANCH   6  17
TORSDOF 2
ENDMDL
