MODEL 1
REMARK VINA RESULT:      -7.6      0.000      0.000
REMARK  Name = 
REMARK  4 active torsions:
REMARK  status: ('A' for Active; 'I' for Inactive)
REMARK    1  A    between atoms: C_1  and  N_2
REMARK    2  A    between atoms: N_2  and  C_3
REMARK    3  A    between atoms: N_2  and  C_16
REMARK    4  A    between atoms: C_3  and  C_4
REMARK                            x       y       z     vdW  Elec       q    Type
REMARK                         _______ _______ _______ _____ _____    ______ ____
ROOT
ATOM      1  C   UNL     1       4.699   3.513  18.315  0.00  0.00    +0.000 C 
ATOM      2  O   UNL     1       5.317   3.352  19.376  0.00  0.00    +0.000 OA
ATOM      3  N   UNL     1       5.265   4.188  17.238  0.00  0.00    +0.000 N 
ATOM      4  C   UNL     1       6.617   4.737  17.397  0.00  0.00    +0.000 C 
ATOM      5  C   UNL     1       7.048   5.690  16.273  0.00  0.00    +0.000 C 
ATOM      6  C   UNL     1       6.800   5.035  14.941  0.00  0.00    +0.000 A 
ATOM      7  C   UNL     1       7.686   5.147  13.867  0.00  0.00    +0.000 A 
ATOM      8  C   UNL     1       7.406   4.485  12.666  0.00  0.00    +0.000 A 
ATOM      9  C   UNL     1       6.250   3.718  12.537  0.00  0.00    +0.000 A 
ATOM     10  C   UNL     1       5.348   3.633  13.589  0.00  0.00    +0.000 A 
ATOM     11  C   UNL     1       5.618   4.289  14.794  0.00  0.00    +0.000 A 
ATOM     12  C   UNL     1       4.627   4.265  15.924  0.00  0.00    +0.000 C 
ENDROOT
BRANCH   1  13
ATOM     13  C   UNL     1       3.278   2.937  18.152  0.00  0.00    +0.000 C 
BRANCH  13  15
ATOM     14  C   UNL     1       1.221   2.661  19.621  0.00  0.00    +0.000 C 
ATOM     15  N   UNL     1       2.255   3.522  19.049  0.00  0.00    +0.000 N 
BRANCH  15  16
ATOM     16  C   UNL     1       2.154   4.908  19.194  0.00  0.00    +0.000 A 
ATOM     17  C   UNL     1       1.889   5.506  20.442  0.00  0.00    +0.000 A 
ATOM     18  C   UNL     1       1.865   6.896  20.617  0.00  0.00    +0.000 A 
ATOM     19  C   UNL     1       2.099   7.740  19.541  0.00  0.00    +0.000 A 
ATOM     20  C   UNL     1       2.329   7.188  18.288  0.00  0.00    +0.000 A 
ATOM     21  C   UNL     1       2.344   5.796  18.122  0.00  0.00    +0.000 A 
ENDBRANCH  15  16
ENDBRANCH  13  15
ENDBRANCH   1  13
TORSDOF 3
ENDMDL
MODEL 2
REMARK VINA RESULT:      -7.6      1.191      6.793
REMARK  Name = 
REMARK  4 active torsions:
REMARK  status: ('A' for Active; 'I' for Inactive)
REMARK    1  A    between atoms: C_1  and  N_2
REMARK    2  A    between atoms: N_2  and  C_3
REMARK    3  A    between atoms: N_2  and  C_16
REMARK    4  A    between atoms: C_3  and  C_4
REMARK                            x       y       z     vdW  Elec       q    Type
REMARK                         _______ _______ _______ _____ _____    ______ ____
ROOT
ATOM      1  C   UNL     1       4.703   4.088  18.095  0.00  0.00    +0.000 C 
ATOM      2  O   UNL     1       5.521   3.502  18.818  0.00  0.00    +0.000 OA
ATOM      3  N   UNL     1       3.664   4.841  18.632  0.00  0.00    +0.000 N 
ATOM      4  C   UNL     1       3.538   4.906  20.093  0.00  0.00    +0.000 C 
ATOM      5  C   UNL     1       2.221   5.522  20.587  0.00  0.00    +0.000 C 
ATOM      6  C   UNL     1       1.993   6.835  19.889  0.00  0.00    +0.000 A 
ATOM      7  C   UNL     1       1.474   7.957  20.539  0.00  0.00    +0.000 A 
ATOM      8  C   UNL     1       1.316   9.156  19.833  0.00  0.00    +0.000 A 
ATOM      9  C   UNL     1       1.672   9.234  18.489  0.00  0.00    +0.000 A 
ATOM     10  C   UNL     1       2.153   8.112  17.828  0.00  0.00    +0.000 A 
ATOM     11  C   UNL     1       2.317   6.910  18.523  0.00  0.00    +0.000 A 
ATOM     12  C   UNL     1       2.775   5.666  17.814  0.00  0.00    +0.000 C 
ENDROOT
BRANCH   1  13
ATOM     13  C   UNL     1       4.837   4.015  16.561  0.00  0.00    +0.000 C 
BRANCH  13  15
ATOM     14  C   UNL     1       6.543   5.893  16.741  0.00  0.00    +0.000 C 
ATOM     15  N   UNL     1       5.976   4.772  15.992  0.00  0.00    +0.000 N 
BRANCH  15  16
ATOM     16  C   UNL     1       6.380   4.551  14.673  0.00  0.00    +0.000 A 
ATOM     17  C   UNL     1       5.698   3.654  13.827  0.00  0.00    +0.000 A 
ATOM     18  C   UNL     1       6.043   3.484  12.480  0.00  0.00    +0.000 A 
ATOM     19  C   UNL     1       7.094   4.205  11.931  0.00  0.00    +0.000 A 
ATOM     20  C   UNL     1       7.813   5.072  12.742  0.00  0.00    +0.000 A 
ATOM     21  C   UNL     1       7.464   5.230  14.091  0.00  0.00    +0.000 A 
ENDBRANCH  15  16
ENDBRANCH  13  15
ENDBRANCH   1  13
TORSDOF 3
ENDMDL
MODEL 3
REMARK VINA RESULT:      -7.6      1.509      5.921
REMARK  Name = 
REMARK  4 active torsions:
REMARK  status: ('A' for Active; 'I' for Inactive)
REMARK    1  A    between atoms: C_1  and  N_2
REMARK    2  A    between atoms: N_2  and  C_3
REMARK    3  A    between atoms: N_2  and  C_16
REMARK    4  A    between atoms: C_3  and  C_4
REMARK                            x       y       z     vdW  Elec       q    Type
REMARK                         _______ _______ _______ _____ _____    ______ ____
ROOT
ATOM      1  C   UNL     1       4.283   3.762  18.400  0.00  0.00    +0.000 C 
ATOM      2  O   UNL     1       4.982   3.133  19.206  0.00  0.00    +0.000 OA
ATOM      3  N   UNL     1       3.328   4.680  18.824  0.00  0.00    +0.000 N 
ATOM      4  C   UNL     1       3.144   4.871  20.268  0.00  0.00    +0.000 C 
ATOM      5  C   UNL     1       1.898   5.686  20.643  0.00  0.00    +0.000 C 
ATOM      6  C   UNL     1       1.876   6.961  19.845  0.00  0.00    +0.000 A 
ATOM      7  C   UNL     1       1.480   8.186  20.386  0.00  0.00    +0.000 A 
ATOM      8  C   UNL     1       1.515   9.338  19.592  0.00  0.00    +0.000 A 
ATOM      9  C   UNL     1       1.940   9.268  18.268  0.00  0.00    +0.000 A 
ATOM     10  C   UNL     1       2.300   8.047  17.713  0.00  0.00    +0.000 A 
ATOM     11  C   UNL     1       2.271   6.890  18.497  0.00  0.00    +0.000 A 
ATOM     12  C   UNL     1       2.594   5.548  17.903  0.00  0.00    +0.000 C 
ENDROOT
BRANCH   1  13
ATOM     13  C   UNL     1       4.478   3.557  16.884  0.00  0.00    +0.000 C 
BRANCH  13  15
ATOM     14  C   UNL     1       6.268   3.676  15.082  0.00  0.00    +0.000 C 
ATOM     15  N   UNL     1       5.677   4.208  16.310  0.00  0.00    +0.000 N 
BRANCH  15  16
ATOM     16  C   UNL     1       6.357   5.195  17.028  0.00  0.00    +0.000 A 
ATOM     17  C   UNL     1       7.323   4.871  18.001  0.00  0.00    +0.000 A 
ATOM     18  C   UNL     1       8.070   5.850  18.671  0.00  0.00    +0.000 A 
ATOM     19  C   UNL     1       7.868   7.194  18.394  0.00  0.00    +0.000 A 
ATOM     20  C   UNL     1       6.899   7.554  17.467  0.00  0.00    +0.000 A 
ATOM     21  C   UNL     1       6.152   6.568  16.807  0.00  0.00    +0.000 A 
ENDBRANCH  15  16
ENDBRANCH  13  15
ENDBRANCH   1  13
TORSDOF 3
ENDMDL
MODEL 4
REMARK VINA RESULT:      -7.6      1.144      6.713
REMARK  Name = 
REMARK  4 active torsions:
REMARK  status: ('A' for Active; 'I' for Inactive)
REMARK    1  A    between atoms: C_1  and  N_2
REMARK    2  A    between atoms: N_2  and  C_3
REMARK    3  A    between atoms: N_2  and  C_16
REMARK    4  A    between atoms: C_3  and  C_4
REMARK                            x       y       z     vdW  Elec       q    Type
REMARK                         _______ _______ _______ _____ _____    ______ ____
ROOT
ATOM      1  C   UNL     1       4.614   3.952  18.237  0.00  0.00    +0.000 C 
ATOM      2  O   UNL     1       5.376   3.355  19.009  0.00  0.00    +0.000 OA
ATOM      3  N   UNL     1       3.587   4.763  18.710  0.00  0.00    +0.000 N 
ATOM      4  C   UNL     1       3.406   4.876  20.162  0.00  0.00    +0.000 C 
ATOM      5  C   UNL     1       2.098   5.561  20.584  0.00  0.00    +0.000 C 
ATOM      6  C   UNL     1       1.953   6.861  19.841  0.00  0.00    +0.000 A 
ATOM      7  C   UNL     1       1.457   8.023  20.438  0.00  0.00    +0.000 A 
ATOM      8  C   UNL     1       1.379   9.205  19.693  0.00  0.00    +0.000 A 
ATOM      9  C   UNL     1       1.791   9.229  18.364  0.00  0.00    +0.000 A 
ATOM     10  C   UNL     1       2.251   8.069  17.754  0.00  0.00    +0.000 A 
ATOM     11  C   UNL     1       2.335   6.883  18.488  0.00  0.00    +0.000 A 
ATOM     12  C   UNL     1       2.767   5.600  17.834  0.00  0.00    +0.000 C 
ENDROOT
BRANCH   1  13
ATOM     13  C   UNL     1       4.806   3.829  16.712  0.00  0.00    +0.000 C 
BRANCH  13  15
ATOM     14  C   UNL     1       6.542   5.671  16.963  0.00  0.00    +0.000 C 
ATOM     15  N   UNL     1       5.924   4.622  16.152  0.00  0.00    +0.000 N 
BRANCH  15  16
ATOM     16  C   UNL     1       6.260   4.511  14.801  0.00  0.00    +0.000 A 
ATOM     17  C   UNL     1       7.341   5.223  14.244  0.00  0.00    +0.000 A 
ATOM     18  C   UNL     1       7.738   5.059  12.909  0.00  0.00    +0.000 A 
ATOM     19  C   UNL     1       7.058   4.178  12.081  0.00  0.00    +0.000 A 
ATOM     20  C   UNL     1       5.966   3.486  12.584  0.00  0.00    +0.000 A 
ATOM     21  C   UNL     1       5.571   3.661  13.918  0.00  0.00    +0.000 A 
ENDBRANCH  15  16
ENDBRANCH  13  15
ENDBRANCH   1  13
TORSDOF 3
ENDMDL
MODEL 5
REMARK VINA RESULT:      -7.6      0.212      1.063
REMARK  Name = 
REMARK  4 active torsions:
REMARK  status: ('A' for Active; 'I' for Inactive)
REMARK    1  A    between atoms: C_1  and  N_2
REMARK    2  A    between atoms: N_2  and  C_3
REMARK    3  A    between atoms: N_2  and  C_16
REMARK    4  A    between atoms: C_3  and  C_4
REMARK                            x       y       z     vdW  Elec       q    Type
REMARK                         _______ _______ _______ _____ _____    ______ ____
ROOT
ATOM      1  C   UNL     1       4.679   3.634  18.362  0.00  0.00    +0.000 C 
ATOM      2  O   UNL     1       5.308   3.449  19.413  0.00  0.00    +0.000 OA
ATOM      3  N   UNL     1       5.261   4.263  17.266  0.00  0.00    +0.000 N 
ATOM      4  C   UNL     1       6.646   4.734  17.392  0.00  0.00    +0.000 C 
ATOM      5  C   UNL     1       7.109   5.648  16.248  0.00  0.00    +0.000 C 
ATOM      6  C   UNL     1       6.797   4.994  14.930  0.00  0.00    +0.000 A 
ATOM      7  C   UNL     1       7.666   5.041  13.837  0.00  0.00    +0.000 A 
ATOM      8  C   UNL     1       7.323   4.383  12.650  0.00  0.00    +0.000 A 
ATOM      9  C   UNL     1       6.123   3.684  12.553  0.00  0.00    +0.000 A 
ATOM     10  C   UNL     1       5.238   3.664  13.623  0.00  0.00    +0.000 A 
ATOM     11  C   UNL     1       5.570   4.316  14.814  0.00  0.00    +0.000 A 
ATOM     12  C   UNL     1       4.602   4.363  15.964  0.00  0.00    +0.000 C 
ENDROOT
BRANCH   1  13
ATOM     13  C   UNL     1       3.224   3.141  18.234  0.00  0.00    +0.000 C 
BRANCH  13  15
ATOM     14  C   UNL     1       1.205   2.994  19.774  0.00  0.00    +0.000 C 
ATOM     15  N   UNL     1       2.255   3.794  19.144  0.00  0.00    +0.000 N 
BRANCH  15  16
ATOM     16  C   UNL     1       2.215   5.187  19.250  0.00  0.00    +0.000 A 
ATOM     17  C   UNL     1       2.399   6.022  18.130  0.00  0.00    +0.000 A 
ATOM     18  C   UNL     1       2.282   7.416  18.207  0.00  0.00    +0.000 A 
ATOM     19  C   UNL     1       1.982   8.026  19.417  0.00  0.00    +0.000 A 
ATOM     20  C   UNL     1       1.828   7.239  20.550  0.00  0.00    +0.000 A 
ATOM     21  C   UNL     1       1.955   5.845  20.464  0.00  0.00    +0.000 A 
ENDBRANCH  15  16
ENDBRANCH  13  15
ENDBRANCH   1  13
TORSDOF 3
ENDMDL
MODEL 6
REMARK VINA RESULT:      -7.4      1.480      5.880
REMARK  Name = 
REMARK  4 active torsions:
REMARK  status: ('A' for Active; 'I' for Inactive)
REMARK    1  A    between atoms: C_1  and  N_2
REMARK    2  A    between atoms: N_2  and  C_3
REMARK    3  A    between atoms: N_2  and  C_16
REMARK    4  A    between atoms: C_3  and  C_4
REMARK                            x       y       z     vdW  Elec       q    Type
REMARK                         _______ _______ _______ _____ _____    ______ ____
ROOT
ATOM      1  C   UNL     1       4.389   3.740  18.442  0.00  0.00    +0.000 C 
ATOM      2  O   UNL     1       5.082   3.160  19.289  0.00  0.00    +0.000 OA
ATOM      3  N   UNL     1       3.429   4.679  18.806  0.00  0.00    +0.000 N 
ATOM      4  C   UNL     1       3.232   4.951  20.235  0.00  0.00    +0.000 C 
ATOM      5  C   UNL     1       1.981   5.782  20.554  0.00  0.00    +0.000 C 
ATOM      6  C   UNL     1       1.964   7.010  19.684  0.00  0.00    +0.000 A 
ATOM      7  C   UNL     1       1.561   8.264  20.152  0.00  0.00    +0.000 A 
ATOM      8  C   UNL     1       1.600   9.369  19.294  0.00  0.00    +0.000 A 
ATOM      9  C   UNL     1       2.036   9.225  17.979  0.00  0.00    +0.000 A 
ATOM     10  C   UNL     1       2.403   7.975  17.498  0.00  0.00    +0.000 A 
ATOM     11  C   UNL     1       2.370   6.864  18.346  0.00  0.00    +0.000 A 
ATOM     12  C   UNL     1       2.700   5.491  17.831  0.00  0.00    +0.000 C 
ENDROOT
BRANCH   1  13
ATOM     13  C   UNL     1       4.596   3.450  16.942  0.00  0.00    +0.000 C 
BRANCH  13  15
ATOM     14  C   UNL     1       5.696   4.259  14.797  0.00  0.00    +0.000 C 
ATOM     15  N   UNL     1       5.521   4.373  16.244  0.00  0.00    +0.000 N 
BRANCH  15  16
ATOM     16  C   UNL     1       6.366   5.211  16.975  0.00  0.00    +0.000 A 
ATOM     17  C   UNL     1       6.281   6.615  16.882  0.00  0.00    +0.000 A 
ATOM     18  C   UNL     1       7.066   7.468  17.670  0.00  0.00    +0.000 A 
ATOM     19  C   UNL     1       7.975   6.941  18.577  0.00  0.00    +0.000 A 
ATOM     20  C   UNL     1       8.113   5.563  18.671  0.00  0.00    +0.000 A 
ATOM     21  C   UNL     1       7.327   4.718  17.874  0.00  0.00    +0.000 A 
ENDBRANCH  15  16
ENDBRANCH  13  15
ENDBRANCH   1  13
TORSDOF 3
ENDMDL
MODEL 7
REMARK VINA RESULT:      -7.4      1.933      7.048
REMARK  Name = 
REMARK  4 active torsions:
REMARK  status: ('A' for Active; 'I' for Inactive)
REMARK    1  A    between atoms: C_1  and  N_2
REMARK    2  A    between atoms: N_2  and  C_3
REMARK    3  A    between atoms: N_2  and  C_16
REMARK    4  A    between atoms: C_3  and  C_4
REMARK                            x       y       z     vdW  Elec       q    Type
REMARK                         _______ _______ _______ _____ _____    ______ ____
ROOT
ATOM      1  C   UNL     1       5.521   5.298  15.772  0.00  0.00    +0.000 C 
ATOM      2  O   UNL     1       5.503   6.390  15.188  0.00  0.00    +0.000 OA
ATOM      3  N   UNL     1       4.772   5.076  16.923  0.00  0.00    +0.000 N 
ATOM      4  C   UNL     1       3.971   6.185  17.455  0.00  0.00    +0.000 C 
ATOM      5  C   UNL     1       3.404   5.939  18.860  0.00  0.00    +0.000 C 
ATOM      6  C   UNL     1       2.706   4.606  18.889  0.00  0.00    +0.000 A 
ATOM      7  C   UNL     1       1.507   4.394  19.574  0.00  0.00    +0.000 A 
ATOM      8  C   UNL     1       0.899   3.134  19.532  0.00  0.00    +0.000 A 
ATOM      9  C   UNL     1       1.482   2.093  18.814  0.00  0.00    +0.000 A 
ATOM     10  C   UNL     1       2.693   2.288  18.161  0.00  0.00    +0.000 A 
ATOM     11  C   UNL     1       3.309   3.542  18.195  0.00  0.00    +0.000 A 
ATOM     12  C   UNL     1       4.650   3.760  17.551  0.00  0.00    +0.000 C 
ENDROOT
BRANCH   1  13
ATOM     13  C   UNL     1       6.364   4.135  15.213  0.00  0.00    +0.000 C 
BRANCH  13  15
ATOM     14  C   UNL     1       7.777   5.270  13.428  0.00  0.00    +0.000 C 
ATOM     15  N   UNL     1       6.769   4.276  13.795  0.00  0.00    +0.000 N 
BRANCH  15  16
ATOM     16  C   UNL     1       6.061   3.611  12.791  0.00  0.00    +0.000 A 
ATOM     17  C   UNL     1       6.584   2.475  12.142  0.00  0.00    +0.000 A 
ATOM     18  C   UNL     1       5.852   1.751  11.191  0.00  0.00    +0.000 A 
ATOM     19  C   UNL     1       4.567   2.148  10.849  0.00  0.00    +0.000 A 
ATOM     20  C   UNL     1       4.032   3.284  11.440  0.00  0.00    +0.000 A 
ATOM     21  C   UNL     1       4.774   4.005  12.386  0.00  0.00    +0.000 A 
ENDBRANCH  15  16
ENDBRANCH  13  15
ENDBRANCH   1  13
TORSDOF 3
ENDMDL
MODEL 8
REMARK VINA RESULT:      -7.3      1.961      6.984
REMARK  Name = 
REMARK  4 active torsions:
REMARK  status: ('A' for Active; 'I' for Inactive)
REMARK    1  A    between atoms: C_1  and  N_2
REMARK    2  A    between atoms: N_2  and  C_3
REMARK    3  A    between atoms: N_2  and  C_16
REMARK    4  A    between atoms: C_3  and  C_4
REMARK                            x       y       z     vdW  Elec       q    Type
REMARK                         _______ _______ _______ _____ _____    ______ ____
ROOT
ATOM      1  C   UNL     1       5.676   5.438  15.699  0.00  0.00    +0.000 C 
ATOM      2  O   UNL     1       5.620   6.525  15.108  0.00  0.00    +0.000 OA
ATOM      3  N   UNL     1       4.886   5.173  16.813  0.00  0.00    +0.000 N 
ATOM      4  C   UNL     1       3.993   6.232  17.298  0.00  0.00    +0.000 C 
ATOM      5  C   UNL     1       3.373   5.956  18.674  0.00  0.00    +0.000 C 
ATOM      6  C   UNL     1       2.758   4.582  18.677  0.00  0.00    +0.000 A 
ATOM      7  C   UNL     1       1.542   4.297  19.303  0.00  0.00    +0.000 A 
ATOM      8  C   UNL     1       1.016   3.002  19.239  0.00  0.00    +0.000 A 
ATOM      9  C   UNL     1       1.698   1.998  18.557  0.00  0.00    +0.000 A 
ATOM     10  C   UNL     1       2.925   2.265  17.964  0.00  0.00    +0.000 A 
ATOM     11  C   UNL     1       3.460   3.555  18.020  0.00  0.00    +0.000 A 
ATOM     12  C   UNL     1       4.815   3.854  17.442  0.00  0.00    +0.000 C 
ENDROOT
BRANCH   1  13
ATOM     13  C   UNL     1       6.617   4.329  15.189  0.00  0.00    +0.000 C 
BRANCH  13  15
ATOM     14  C   UNL     1       7.885   5.348  13.235  0.00  0.00    +0.000 C 
ATOM     15  N   UNL     1       6.918   4.374  13.740  0.00  0.00    +0.000 N 
BRANCH  15  16
ATOM     16  C   UNL     1       6.148   3.637  12.837  0.00  0.00    +0.000 A 
ATOM     17  C   UNL     1       4.830   4.010  12.507  0.00  0.00    +0.000 A 
ATOM     18  C   UNL     1       4.076   3.327  11.543  0.00  0.00    +0.000 A 
ATOM     19  C   UNL     1       4.618   2.236  10.877  0.00  0.00    +0.000 A 
ATOM     20  C   UNL     1       5.900   1.817  11.200  0.00  0.00    +0.000 A 
ATOM     21  C   UNL     1       6.644   2.503  12.172  0.00  0.00    +0.000 A 
ENDBRANCH  15  16
ENDBRANCH  13  15
ENDBRANCH   1  13
TORSDOF 3
ENDMDL
MODEL 9
REMARK VINA RESULT:      -7.3      1.757      6.916
REMARK  Name = 
REMARK  4 active torsions:
REMARK  status: ('A' for Active; 'I' for Inactive)
REMARK    1  A    between atoms: C_1  and  N_2
REMARK    2  A    between atoms: N_2  and  C_3
REMARK    3  A    between atoms: N_2  and  C_16
REMARK    4  A    between atoms: C_3  and  C_4
REMARK                            x       y       z     vdW  Elec       q    Type
REMARK                         _______ _______ _______ _____ _____    ______ ____
ROOT
ATOM      1  C   UNL     1       4.929   6.485  16.816  0.00  0.00    +0.000 C 
ATOM      2  O   UNL     1       4.528   7.314  15.988  0.00  0.00    +0.000 OA
ATOM      3  N   UNL     1       4.220   6.221  17.984  0.00  0.00    +0.000 N 
ATOM      4  C   UNL     1       2.985   6.975  18.231  0.00  0.00    +0.000 C 
ATOM      5  C   UNL     1       2.424   6.820  19.652  0.00  0.00    +0.000 C 
ATOM      6  C   UNL     1       2.334   5.358  19.996  0.00  0.00    +0.000 A 
ATOM      7  C   UNL     1       1.262   4.813  20.707  0.00  0.00    +0.000 A 
ATOM      8  C   UNL     1       1.229   3.438  20.965  0.00  0.00    +0.000 A 
ATOM      9  C   UNL     1       2.259   2.613  20.519  0.00  0.00    +0.000 A 
ATOM     10  C   UNL     1       3.345   3.154  19.844  0.00  0.00    +0.000 A 
ATOM     11  C   UNL     1       3.388   4.526  19.579  0.00  0.00    +0.000 A 
ATOM     12  C   UNL     1       4.582   5.145  18.908  0.00  0.00    +0.000 C 
ENDROOT
BRANCH   1  13
ATOM     13  C   UNL     1       6.227   5.697  16.555  0.00  0.00    +0.000 C 
BRANCH  13  15
ATOM     14  C   UNL     1       5.610   3.237  16.362  0.00  0.00    +0.000 C 
ATOM     15  N   UNL     1       6.068   4.475  15.732  0.00  0.00    +0.000 N 
BRANCH  15  16
ATOM     16  C   UNL     1       6.535   4.446  14.416  0.00  0.00    +0.000 A 
ATOM     17  C   UNL     1       6.000   3.561  13.458  0.00  0.00    +0.000 A 
ATOM     18  C   UNL     1       6.402   3.577  12.116  0.00  0.00    +0.000 A 
ATOM     19  C   UNL     1       7.365   4.479  11.686  0.00  0.00    +0.000 A 
ATOM     20  C   UNL     1       7.941   5.342  12.607  0.00  0.00    +0.000 A 
ATOM     21  C   UNL     1       7.537   5.314  13.950  0.00  0.00    +0.000 A 
ENDBRANCH  15  16
ENDBRANCH  13  15
ENDBRANCH   1  13
TORSDOF 3
ENDMDL
