MODEL 1
REMARK VINA RESULT:      -7.5      0.000      0.000
REMARK  Name = 
REMARK  7 active torsions:
REMARK  status: ('A' for Active; 'I' for Inactive)
REMARK    1  A    between atoms: C_1  and  C_2
REMARK    2  A    between atoms: C_6  and  C_7
REMARK    3  A    between atoms: C_8  and  C_9
REMARK    4  A    between atoms: C_9  and  C_10
REMARK    5  A    between atoms: C_10  and  C_11
REMARK    6  A    between atoms: N_16  and  C_17
REMARK    7  A    between atoms: C_25  and  C_26
REMARK                            x       y       z     vdW  Elec       q    Type
REMARK                         _______ _______ _______ _____ _____    ______ ____
ROOT
ATOM      1  C   UNL     1       3.008   2.964  16.942  0.00  0.00    +0.000 C 
ENDROOT
BRANCH   1   2
ATOM      2  C   UNL     1       2.296   3.064  18.287  0.00  0.00    +0.000 C 
ATOM      3  O   UNL     1       2.139   2.064  18.989  0.00  0.00    +0.000 OA
ATOM      4  N   UNL     1       1.938   4.331  18.719  0.00  0.00    +0.000 N 
ATOM      5  C   UNL     1       1.396   4.525  20.079  0.00  0.00    +0.000 C 
ATOM      6  C   UNL     1       2.035   5.749  20.783  0.00  0.00    +0.000 C 
ATOM      7  N   UNL     1       1.955   6.927  19.901  0.00  0.00    +0.000 N 
ATOM      8  C   UNL     1       2.536   6.738  18.567  0.00  0.00    +0.000 C 
ATOM      9  C   UNL     1       1.867   5.539  17.881  0.00  0.00    +0.000 C 
BRANCH   7  10
ATOM     10  C   UNL     1       1.520   8.163  20.328  0.00  0.00    +0.000 A 
ATOM     11  C   UNL     1       1.237   8.435  21.673  0.00  0.00    +0.000 A 
ATOM     12  C   UNL     1       0.777   9.690  22.091  0.00  0.00    +0.000 A 
ATOM     13  C   UNL     1       0.585  10.709  21.164  0.00  0.00    +0.000 A 
ATOM     14  C   UNL     1       0.854  10.471  19.823  0.00  0.00    +0.000 A 
ATOM     15  C   UNL     1       1.315   9.214  19.418  0.00  0.00    +0.000 A 
ENDBRANCH   7  10
ENDBRANCH   1   2
BRANCH   1  16
ATOM     16  C   UNL     1       4.504   2.673  17.077  0.00  0.00    +0.000 C 
BRANCH  16  24
ATOM     17  C   UNL     1       8.546   8.614  18.529  0.00  0.00    +0.000 C 
ATOM     18  C   UNL     1       7.776   7.491  17.956  0.00  0.00    +0.000 A 
ATOM     19  N   UNL     1       7.748   7.226  16.619  0.00  0.00    +0.000 NA
ATOM     20  C   UNL     1       6.980   6.160  16.530  0.00  0.00    +0.000 A 
ATOM     21  N   UNL     1       6.602   5.460  15.427  0.00  0.00    +0.000 NA
ATOM     22  C   UNL     1       5.844   4.421  15.616  0.00  0.00    +0.000 A 
ATOM     23  C   UNL     1       5.434   3.673  14.367  0.00  0.00    +0.000 C 
ATOM     24  C   UNL     1       5.338   3.929  16.969  0.00  0.00    +0.000 A 
ATOM     25  C   UNL     1       5.730   4.681  18.026  0.00  0.00    +0.000 A 
ATOM     26  C   UNL     1       5.356   4.431  19.459  0.00  0.00    +0.000 C 
ATOM     27  N   UNL     1       6.553   5.797  17.808  0.00  0.00    +0.000 N 
ATOM     28  N   UNL     1       7.061   6.663  18.720  0.00  0.00    +0.000 NA
ENDBRANCH  16  24
ENDBRANCH   1  16
TORSDOF 4
ENDMDL
MODEL 2
REMARK VINA RESULT:      -7.3      1.902      3.952
REMARK  Name = 
REMARK  7 active torsions:
REMARK  status: ('A' for Active; 'I' for Inactive)
REMARK    1  A    between atoms: C_1  and  C_2
REMARK    2  A    between atoms: C_6  and  C_7
REMARK    3  A    between atoms: C_8  and  C_9
REMARK    4  A    between atoms: C_9  and  C_10
REMARK    5  A    between atoms: C_10  and  C_11
REMARK    6  A    between atoms: N_16  and  C_17
REMARK    7  A    between atoms: C_25  and  C_26
REMARK                            x       y       z     vdW  Elec       q    Type
REMARK                         _______ _______ _______ _____ _____    ______ ____
ROOT
ATOM      1  C   UNL     1       3.714   6.594  18.596  0.00  0.00    +0.000 C 
ENDROOT
BRANCH   1   2
ATOM      2  C   UNL     1       2.729   6.392  19.742  0.00  0.00    +0.000 C 
ATOM      3  O   UNL     1       2.794   5.391  20.457  0.00  0.00    +0.000 OA
ATOM      4  N   UNL     1       1.842   7.426  20.002  0.00  0.00    +0.000 N 
ATOM      5  C   UNL     1       0.973   7.376  21.194  0.00  0.00    +0.000 C 
ATOM      6  C   UNL     1       0.940   8.734  21.940  0.00  0.00    +0.000 C 
ATOM      7  N   UNL     1       0.637   9.816  20.986  0.00  0.00    +0.000 N 
ATOM      8  C   UNL     1       1.534   9.885  19.827  0.00  0.00    +0.000 C 
ATOM      9  C   UNL     1       1.526   8.539  19.092  0.00  0.00    +0.000 C 
BRANCH   7  10
ATOM     10  C   UNL     1      -0.306  10.792  21.225  0.00  0.00    +0.000 A 
ATOM     11  C   UNL     1      -0.863  11.565  20.198  0.00  0.00    +0.000 A 
ATOM     12  C   UNL     1      -1.807  12.567  20.456  0.00  0.00    +0.000 A 
ATOM     13  C   UNL     1      -2.216  12.822  21.761  0.00  0.00    +0.000 A 
ATOM     14  C   UNL     1      -1.682  12.075  22.802  0.00  0.00    +0.000 A 
ATOM     15  C   UNL     1      -0.742  11.076  22.531  0.00  0.00    +0.000 A 
ENDBRANCH   7  10
ENDBRANCH   1   2
BRANCH   1  16
ATOM     16  C   UNL     1       4.983   5.752  18.743  0.00  0.00    +0.000 C 
BRANCH  16  24
ATOM     17  C   UNL     1       6.462   3.316  11.988  0.00  0.00    +0.000 C 
ATOM     18  C   UNL     1       6.422   3.945  13.324  0.00  0.00    +0.000 A 
ATOM     19  N   UNL     1       7.343   4.864  13.732  0.00  0.00    +0.000 NA
ATOM     20  C   UNL     1       6.948   5.181  14.947  0.00  0.00    +0.000 A 
ATOM     21  N   UNL     1       7.499   6.055  15.832  0.00  0.00    +0.000 NA
ATOM     22  C   UNL     1       6.896   6.199  16.974  0.00  0.00    +0.000 A 
ATOM     23  C   UNL     1       7.543   7.171  17.937  0.00  0.00    +0.000 C 
ATOM     24  C   UNL     1       5.631   5.465  17.407  0.00  0.00    +0.000 A 
ATOM     25  C   UNL     1       5.144   4.592  16.492  0.00  0.00    +0.000 A 
ATOM     26  C   UNL     1       3.928   3.729  16.673  0.00  0.00    +0.000 C 
ATOM     27  N   UNL     1       5.801   4.450  15.260  0.00  0.00    +0.000 N 
ATOM     28  N   UNL     1       5.473   3.650  14.215  0.00  0.00    +0.000 NA
ENDBRANCH  16  24
ENDBRANCH   1  16
TORSDOF 4
ENDMDL
MODEL 3
REMARK VINA RESULT:      -7.2      2.044      4.015
REMARK  Name = 
REMARK  7 active torsions:
REMARK  status: ('A' for Active; 'I' for Inactive)
REMARK    1  A    between atoms: C_1  and  C_2
REMARK    2  A    between atoms: C_6  and  C_7
REMARK    3  A    between atoms: C_8  and  C_9
REMARK    4  A    between atoms: C_9  and  C_10
REMARK    5  A    between atoms: C_10  and  C_11
REMARK    6  A    between atoms: N_16  and  C_17
REMARK    7  A    between atoms: C_25  and  C_26
REMARK                            x       y       z     vdW  Elec       q    Type
REMARK                         _______ _______ _______ _____ _____    ______ ____
ROOT
ATOM      1  C   UNL     1       3.377   5.868  18.838  0.00  0.00    +0.000 C 
ENDROOT
BRANCH   1   2
ATOM      2  C   UNL     1       3.113   7.254  18.259  0.00  0.00    +0.000 C 
ATOM      3  O   UNL     1       3.486   7.540  17.121  0.00  0.00    +0.000 OA
ATOM      4  N   UNL     1       2.351   8.123  19.025  0.00  0.00    +0.000 N 
ATOM      5  C   UNL     1       1.915   9.417  18.464  0.00  0.00    +0.000 C 
ATOM      6  C   UNL     1       0.425   9.707  18.776  0.00  0.00    +0.000 C 
ATOM      7  N   UNL     1       0.177   9.531  20.219  0.00  0.00    +0.000 N 
ATOM      8  C   UNL     1       0.573   8.226  20.758  0.00  0.00    +0.000 C 
ATOM      9  C   UNL     1       2.058   7.977  20.459  0.00  0.00    +0.000 C 
BRANCH   7  10
ATOM     10  C   UNL     1      -0.515  10.446  20.984  0.00  0.00    +0.000 A 
ATOM     11  C   UNL     1      -0.633  10.323  22.374  0.00  0.00    +0.000 A 
ATOM     12  C   UNL     1      -1.355  11.250  23.138  0.00  0.00    +0.000 A 
ATOM     13  C   UNL     1      -1.984  12.326  22.520  0.00  0.00    +0.000 A 
ATOM     14  C   UNL     1      -1.888  12.474  21.144  0.00  0.00    +0.000 A 
ATOM     15  C   UNL     1      -1.161  11.545  20.392  0.00  0.00    +0.000 A 
ENDBRANCH   7  10
ENDBRANCH   1   2
BRANCH   1  16
ATOM     16  C   UNL     1       4.867   5.547  18.967  0.00  0.00    +0.000 C 
BRANCH  16  24
ATOM     17  C   UNL     1       6.405   3.405  12.125  0.00  0.00    +0.000 C 
ATOM     18  C   UNL     1       6.348   3.985  13.483  0.00  0.00    +0.000 A 
ATOM     19  N   UNL     1       7.236   4.922  13.921  0.00  0.00    +0.000 NA
ATOM     20  C   UNL     1       6.835   5.181  15.148  0.00  0.00    +0.000 A 
ATOM     21  N   UNL     1       7.358   6.043  16.061  0.00  0.00    +0.000 NA
ATOM     22  C   UNL     1       6.755   6.125  17.210  0.00  0.00    +0.000 A 
ATOM     23  C   UNL     1       7.370   7.084  18.205  0.00  0.00    +0.000 C 
ATOM     24  C   UNL     1       5.519   5.331  17.620  0.00  0.00    +0.000 A 
ATOM     25  C   UNL     1       5.060   4.473  16.676  0.00  0.00    +0.000 A 
ATOM     26  C   UNL     1       3.877   3.561  16.829  0.00  0.00    +0.000 C 
ATOM     27  N   UNL     1       5.717   4.399  15.438  0.00  0.00    +0.000 N 
ATOM     28  N   UNL     1       5.413   3.624  14.366  0.00  0.00    +0.000 NA
ENDBRANCH  16  24
ENDBRANCH   1  16
TORSDOF 4
ENDMDL
MODEL 4
REMARK VINA RESULT:      -7.0      4.213      6.503
REMARK  Name = 
REMARK  7 active torsions:
REMARK  status: ('A' for Active; 'I' for Inactive)
REMARK    1  A    between atoms: C_1  and  C_2
REMARK    2  A    between atoms: C_6  and  C_7
REMARK    3  A    between atoms: C_8  and  C_9
REMARK    4  A    between atoms: C_9  and  C_10
REMARK    5  A    between atoms: C_10  and  C_11
REMARK    6  A    between atoms: N_16  and  C_17
REMARK    7  A    between atoms: C_25  and  C_26
REMARK                            x       y       z     vdW  Elec       q    Type
REMARK                         _______ _______ _______ _____ _____    ______ ____
ROOT
ATOM      1  C   UNL     1       1.637   8.920  17.596  0.00  0.00    +0.000 C 
ENDROOT
BRANCH   1   2
ATOM      2  C   UNL     1       1.311  10.302  18.153  0.00  0.00    +0.000 C 
ATOM      3  O   UNL     1       2.190  11.158  18.264  0.00  0.00    +0.000 OA
ATOM      4  N   UNL     1      -0.021  10.577  18.419  0.00  0.00    +0.000 N 
ATOM      5  C   UNL     1      -0.435  11.941  18.801  0.00  0.00    +0.000 C 
ATOM      6  C   UNL     1      -1.715  12.387  18.048  0.00  0.00    +0.000 C 
ATOM      7  N   UNL     1      -2.756  11.352  18.186  0.00  0.00    +0.000 N 
ATOM      8  C   UNL     1      -2.349  10.008  17.763  0.00  0.00    +0.000 C 
ATOM      9  C   UNL     1      -1.098   9.581  18.542  0.00  0.00    +0.000 C 
BRANCH   7  10
ATOM     10  C   UNL     1      -4.061  11.634  18.532  0.00  0.00    +0.000 A 
ATOM     11  C   UNL     1      -4.389  12.410  19.651  0.00  0.00    +0.000 A 
ATOM     12  C   UNL     1      -5.719  12.674  20.001  0.00  0.00    +0.000 A 
ATOM     13  C   UNL     1      -6.760  12.159  19.235  0.00  0.00    +0.000 A 
ATOM     14  C   UNL     1      -6.467  11.385  18.121  0.00  0.00    +0.000 A 
ATOM     15  C   UNL     1      -5.135  11.130  17.779  0.00  0.00    +0.000 A 
ENDBRANCH   7  10
ENDBRANCH   1   2
BRANCH   1  16
ATOM     16  C   UNL     1       3.057   8.460  17.931  0.00  0.00    +0.000 C 
BRANCH  16  24
ATOM     17  C   UNL     1       1.803   2.402  21.865  0.00  0.00    +0.000 C 
ATOM     18  C   UNL     1       2.243   3.452  20.923  0.00  0.00    +0.000 A 
ATOM     19  N   UNL     1       3.049   3.191  19.855  0.00  0.00    +0.000 NA
ATOM     20  C   UNL     1       3.186   4.365  19.276  0.00  0.00    +0.000 A 
ATOM     21  N   UNL     1       3.892   4.700  18.162  0.00  0.00    +0.000 NA
ATOM     22  C   UNL     1       3.849   5.943  17.785  0.00  0.00    +0.000 A 
ATOM     23  C   UNL     1       4.654   6.280  16.549  0.00  0.00    +0.000 C 
ATOM     24  C   UNL     1       3.081   7.056  18.491  0.00  0.00    +0.000 A 
ATOM     25  C   UNL     1       2.418   6.665  19.606  0.00  0.00    +0.000 A 
ATOM     26  C   UNL     1       1.606   7.562  20.496  0.00  0.00    +0.000 C 
ATOM     27  N   UNL     1       2.468   5.318  19.999  0.00  0.00    +0.000 N 
ATOM     28  N   UNL     1       1.870   4.726  21.063  0.00  0.00    +0.000 NA
ENDBRANCH  16  24
ENDBRANCH   1  16
TORSDOF 4
ENDMDL
MODEL 5
REMARK VINA RESULT:      -6.9      2.333      4.059
REMARK  Name = 
REMARK  7 active torsions:
REMARK  status: ('A' for Active; 'I' for Inactive)
REMARK    1  A    between atoms: C_1  and  C_2
REMARK    2  A    between atoms: C_6  and  C_7
REMARK    3  A    between atoms: C_8  and  C_9
REMARK    4  A    between atoms: C_9  and  C_10
REMARK    5  A    between atoms: C_10  and  C_11
REMARK    6  A    between atoms: N_16  and  C_17
REMARK    7  A    between atoms: C_25  and  C_26
REMARK                            x       y       z     vdW  Elec       q    Type
REMARK                         _______ _______ _______ _____ _____    ______ ____
ROOT
ATOM      1  C   UNL     1       2.740   6.177  19.295  0.00  0.00    +0.000 C 
ENDROOT
BRANCH   1   2
ATOM      2  C   UNL     1       2.538   7.540  18.640  0.00  0.00    +0.000 C 
ATOM      3  O   UNL     1       2.925   7.745  17.489  0.00  0.00    +0.000 OA
ATOM      4  N   UNL     1       1.814   8.482  19.353  0.00  0.00    +0.000 N 
ATOM      5  C   UNL     1       1.437   9.761  18.720  0.00  0.00    +0.000 C 
ATOM      6  C   UNL     1      -0.040  10.134  19.011  0.00  0.00    +0.000 C 
ATOM      7  N   UNL     1      -0.297  10.049  20.460  0.00  0.00    +0.000 N 
ATOM      8  C   UNL     1       0.041   8.759  21.071  0.00  0.00    +0.000 C 
ATOM      9  C   UNL     1       1.513   8.429  20.793  0.00  0.00    +0.000 C 
BRANCH   7  10
ATOM     10  C   UNL     1      -0.949  11.034  21.170  0.00  0.00    +0.000 A 
ATOM     11  C   UNL     1      -0.972  11.058  22.571  0.00  0.00    +0.000 A 
ATOM     12  C   UNL     1      -1.654  12.054  23.281  0.00  0.00    +0.000 A 
ATOM     13  C   UNL     1      -2.337  13.056  22.599  0.00  0.00    +0.000 A 
ATOM     14  C   UNL     1      -2.335  13.059  21.211  0.00  0.00    +0.000 A 
ATOM     15  C   UNL     1      -1.648  12.061  20.512  0.00  0.00    +0.000 A 
ENDBRANCH   7  10
ENDBRANCH   1   2
BRANCH   1  16
ATOM     16  C   UNL     1       4.204   5.737  19.324  0.00  0.00    +0.000 C 
BRANCH  16  24
ATOM     17  C   UNL     1       7.916   4.902  13.056  0.00  0.00    +0.000 C 
ATOM     18  C   UNL     1       7.001   4.851  14.216  0.00  0.00    +0.000 A 
ATOM     19  N   UNL     1       6.057   3.879  14.366  0.00  0.00    +0.000 NA
ATOM     20  C   UNL     1       5.481   4.180  15.511  0.00  0.00    +0.000 A 
ATOM     21  N   UNL     1       4.464   3.548  16.156  0.00  0.00    +0.000 NA
ATOM     22  C   UNL     1       4.088   4.045  17.297  0.00  0.00    +0.000 A 
ATOM     23  C   UNL     1       2.947   3.323  17.980  0.00  0.00    +0.000 C 
ATOM     24  C   UNL     1       4.685   5.279  17.966  0.00  0.00    +0.000 A 
ATOM     25  C   UNL     1       5.678   5.877  17.263  0.00  0.00    +0.000 A 
ATOM     26  C   UNL     1       6.418   7.115  17.682  0.00  0.00    +0.000 C 
ATOM     27  N   UNL     1       6.078   5.327  16.035  0.00  0.00    +0.000 N 
ATOM     28  N   UNL     1       7.050   5.759  15.193  0.00  0.00    +0.000 NA
ENDBRANCH  16  24
ENDBRANCH   1  16
TORSDOF 4
ENDMDL
MODEL 6
REMARK VINA RESULT:      -6.9      3.909      6.370
REMARK  Name = 
REMARK  7 active torsions:
REMARK  status: ('A' for Active; 'I' for Inactive)
REMARK    1  A    between atoms: C_1  and  C_2
REMARK    2  A    between atoms: C_6  and  C_7
REMARK    3  A    between atoms: C_8  and  C_9
REMARK    4  A    between atoms: C_9  and  C_10
REMARK    5  A    between atoms: C_10  and  C_11
REMARK    6  A    between atoms: N_16  and  C_17
REMARK    7  A    between atoms: C_25  and  C_26
REMARK                            x       y       z     vdW  Elec       q    Type
REMARK                         _______ _______ _______ _____ _____    ______ ____
ROOT
ATOM      1  C   UNL     1       1.782   8.916  17.654  0.00  0.00    +0.000 C 
ENDROOT
BRANCH   1   2
ATOM      2  C   UNL     1       1.677  10.371  18.097  0.00  0.00    +0.000 C 
ATOM      3  O   UNL     1       2.616  11.149  17.924  0.00  0.00    +0.000 OA
ATOM      4  N   UNL     1       0.453  10.793  18.595  0.00  0.00    +0.000 N 
ATOM      5  C   UNL     1       0.225  12.222  18.888  0.00  0.00    +0.000 C 
ATOM      6  C   UNL     1      -1.152  12.704  18.364  0.00  0.00    +0.000 C 
ATOM      7  N   UNL     1      -2.208  11.789  18.833  0.00  0.00    +0.000 N 
ATOM      8  C   UNL     1      -1.994  10.377  18.498  0.00  0.00    +0.000 C 
ATOM      9  C   UNL     1      -0.638   9.919  19.052  0.00  0.00    +0.000 C 
BRANCH   7  10
ATOM     10  C   UNL     1      -3.387  12.224  19.400  0.00  0.00    +0.000 A 
ATOM     11  C   UNL     1      -4.636  11.981  18.814  0.00  0.00    +0.000 A 
ATOM     12  C   UNL     1      -5.825  12.444  19.391  0.00  0.00    +0.000 A 
ATOM     13  C   UNL     1      -5.790  13.171  20.576  0.00  0.00    +0.000 A 
ATOM     14  C   UNL     1      -4.568  13.430  21.181  0.00  0.00    +0.000 A 
ATOM     15  C   UNL     1      -3.387  12.960  20.597  0.00  0.00    +0.000 A 
ENDBRANCH   7  10
ENDBRANCH   1   2
BRANCH   1  16
ATOM     16  C   UNL     1       3.192   8.344  17.807  0.00  0.00    +0.000 C 
BRANCH  16  24
ATOM     17  C   UNL     1       1.791   2.402  21.867  0.00  0.00    +0.000 C 
ATOM     18  C   UNL     1       2.253   3.420  20.901  0.00  0.00    +0.000 A 
ATOM     19  N   UNL     1       3.040   3.114  19.831  0.00  0.00    +0.000 NA
ATOM     20  C   UNL     1       3.208   4.273  19.228  0.00  0.00    +0.000 A 
ATOM     21  N   UNL     1       3.912   4.564  18.101  0.00  0.00    +0.000 NA
ATOM     22  C   UNL     1       3.903   5.800  17.701  0.00  0.00    +0.000 A 
ATOM     23  C   UNL     1       4.706   6.089  16.452  0.00  0.00    +0.000 C 
ATOM     24  C   UNL     1       3.178   6.950  18.393  0.00  0.00    +0.000 A 
ATOM     25  C   UNL     1       2.514   6.601  19.522  0.00  0.00    +0.000 A 
ATOM     26  C   UNL     1       1.740   7.539  20.402  0.00  0.00    +0.000 C 
ATOM     27  N   UNL     1       2.527   5.261  19.940  0.00  0.00    +0.000 N 
ATOM     28  N   UNL     1       1.922   4.707  21.020  0.00  0.00    +0.000 NA
ENDBRANCH  16  24
ENDBRANCH   1  16
TORSDOF 4
ENDMDL
MODEL 7
REMARK VINA RESULT:      -6.9      2.586      7.610
REMARK  Name = 
REMARK  7 active torsions:
REMARK  status: ('A' for Active; 'I' for Inactive)
REMARK    1  A    between atoms: C_1  and  C_2
REMARK    2  A    between atoms: C_6  and  C_7
REMARK    3  A    between atoms: C_8  and  C_9
REMARK    4  A    between atoms: C_9  and  C_10
REMARK    5  A    between atoms: C_10  and  C_11
REMARK    6  A    between atoms: N_16  and  C_17
REMARK    7  A    between atoms: C_25  and  C_26
REMARK                            x       y       z     vdW  Elec       q    Type
REMARK                         _______ _______ _______ _____ _____    ______ ____
ROOT
ATOM      1  C   UNL     1       1.725   6.848  21.142  0.00  0.00    +0.000 C 
ENDROOT
BRANCH   1   2
ATOM      2  C   UNL     1       1.816   5.464  20.509  0.00  0.00    +0.000 C 
ATOM      3  O   UNL     1       0.999   4.588  20.795  0.00  0.00    +0.000 OA
ATOM      4  N   UNL     1       2.781   5.279  19.530  0.00  0.00    +0.000 N 
ATOM      5  C   UNL     1       2.821   4.022  18.757  0.00  0.00    +0.000 C 
ATOM      6  C   UNL     1       3.022   4.285  17.243  0.00  0.00    +0.000 C 
ATOM      7  N   UNL     1       4.174   5.183  17.044  0.00  0.00    +0.000 N 
ATOM      8  C   UNL     1       4.104   6.448  17.782  0.00  0.00    +0.000 C 
ATOM      9  C   UNL     1       3.933   6.160  19.279  0.00  0.00    +0.000 C 
BRANCH   7  10
ATOM     10  C   UNL     1       5.169   4.942  16.120  0.00  0.00    +0.000 A 
ATOM     11  C   UNL     1       6.496   5.339  16.328  0.00  0.00    +0.000 A 
ATOM     12  C   UNL     1       7.495   5.105  15.373  0.00  0.00    +0.000 A 
ATOM     13  C   UNL     1       7.182   4.468  14.177  0.00  0.00    +0.000 A 
ATOM     14  C   UNL     1       5.876   4.065  13.940  0.00  0.00    +0.000 A 
ATOM     15  C   UNL     1       4.888   4.301  14.902  0.00  0.00    +0.000 A 
ENDBRANCH   7  10
ENDBRANCH   1   2
BRANCH   1  16
ATOM     16  C   UNL     1       0.451   7.601  20.755  0.00  0.00    +0.000 C 
BRANCH  16  24
ATOM     17  C   UNL     1       1.858  14.432  18.495  0.00  0.00    +0.000 C 
ATOM     18  C   UNL     1       1.533  13.182  19.213  0.00  0.00    +0.000 A 
ATOM     19  N   UNL     1       1.093  13.168  20.503  0.00  0.00    +0.000 NA
ATOM     20  C   UNL     1       0.907  11.889  20.753  0.00  0.00    +0.000 A 
ATOM     21  N   UNL     1       0.473  11.288  21.894  0.00  0.00    +0.000 NA
ATOM     22  C   UNL     1       0.358   9.994  21.874  0.00  0.00    +0.000 A 
ATOM     23  C   UNL     1      -0.115   9.359  23.164  0.00  0.00    +0.000 C 
ATOM     24  C   UNL     1       0.675   9.094  20.683  0.00  0.00    +0.000 A 
ATOM     25  C   UNL     1       1.124   9.750  19.585  0.00  0.00    +0.000 A 
ATOM     26  C   UNL     1       1.526   9.105  18.290  0.00  0.00    +0.000 C 
ATOM     27  N   UNL     1       1.238  11.148  19.618  0.00  0.00    +0.000 N 
ATOM     28  N   UNL     1       1.649  11.985  18.633  0.00  0.00    +0.000 NA
ENDBRANCH  16  24
ENDBRANCH   1  16
TORSDOF 4
ENDMDL
MODEL 8
REMARK VINA RESULT:      -6.8      4.669     10.204
REMARK  Name = 
REMARK  7 active torsions:
REMARK  status: ('A' for Active; 'I' for Inactive)
REMARK    1  A    between atoms: C_1  and  C_2
REMARK    2  A    between atoms: C_6  and  C_7
REMARK    3  A    between atoms: C_8  and  C_9
REMARK    4  A    between atoms: C_9  and  C_10
REMARK    5  A    between atoms: C_10  and  C_11
REMARK    6  A    between atoms: N_16  and  C_17
REMARK    7  A    between atoms: C_25  and  C_26
REMARK                            x       y       z     vdW  Elec       q    Type
REMARK                         _______ _______ _______ _____ _____    ______ ____
ROOT
ATOM      1  C   UNL     1       0.762  11.672  20.769  0.00  0.00    +0.000 C 
ENDROOT
BRANCH   1   2
ATOM      2  C   UNL     1       1.136  10.985  19.460  0.00  0.00    +0.000 C 
ATOM      3  O   UNL     1       1.490  11.646  18.483  0.00  0.00    +0.000 OA
ATOM      4  N   UNL     1       1.162   9.598  19.460  0.00  0.00    +0.000 N 
ATOM      5  C   UNL     1       1.673   8.867  18.284  0.00  0.00    +0.000 C 
ATOM      6  C   UNL     1       2.621   7.711  18.693  0.00  0.00    +0.000 C 
ATOM      7  N   UNL     1       1.971   6.876  19.719  0.00  0.00    +0.000 N 
ATOM      8  C   UNL     1       1.506   7.606  20.903  0.00  0.00    +0.000 C 
ATOM      9  C   UNL     1       0.549   8.725  20.473  0.00  0.00    +0.000 C 
BRANCH   7  10
ATOM     10  C   UNL     1       1.936   5.499  19.662  0.00  0.00    +0.000 A 
ATOM     11  C   UNL     1       2.262   4.788  18.500  0.00  0.00    +0.000 A 
ATOM     12  C   UNL     1       2.205   3.389  18.450  0.00  0.00    +0.000 A 
ATOM     13  C   UNL     1       1.812   2.665  19.571  0.00  0.00    +0.000 A 
ATOM     14  C   UNL     1       1.481   3.340  20.737  0.00  0.00    +0.000 A 
ATOM     15  C   UNL     1       1.545   4.737  20.776  0.00  0.00    +0.000 A 
ENDBRANCH   7  10
ENDBRANCH   1   2
BRANCH   1  16
ATOM     16  C   UNL     1       0.047  13.008  20.561  0.00  0.00    +0.000 C 
BRANCH  16  24
ATOM     17  C   UNL     1      -7.149  11.724  19.984  0.00  0.00    +0.000 C 
ATOM     18  C   UNL     1      -5.767  12.079  20.369  0.00  0.00    +0.000 A 
ATOM     19  N   UNL     1      -5.433  12.466  21.633  0.00  0.00    +0.000 NA
ATOM     20  C   UNL     1      -4.134  12.669  21.562  0.00  0.00    +0.000 A 
ATOM     21  N   UNL     1      -3.270  13.073  22.532  0.00  0.00    +0.000 NA
ATOM     22  C   UNL     1      -2.018  13.181  22.202  0.00  0.00    +0.000 A 
ATOM     23  C   UNL     1      -1.089  13.643  23.303  0.00  0.00    +0.000 C 
ATOM     24  C   UNL     1      -1.439  12.901  20.818  0.00  0.00    +0.000 A 
ATOM     25  C   UNL     1      -2.353  12.526  19.890  0.00  0.00    +0.000 A 
ATOM     26  C   UNL     1      -2.054  12.213  18.452  0.00  0.00    +0.000 C 
ATOM     27  N   UNL     1      -3.701  12.407  20.262  0.00  0.00    +0.000 N 
ATOM     28  N   UNL     1      -4.758  12.036  19.496  0.00  0.00    +0.000 NA
ENDBRANCH  16  24
ENDBRANCH   1  16
TORSDOF 4
ENDMDL
MODEL 9
REMARK VINA RESULT:      -6.8      1.695      3.356
REMARK  Name = 
REMARK  7 active torsions:
REMARK  status: ('A' for Active; 'I' for Inactive)
REMARK    1  A    between atoms: C_1  and  C_2
REMARK    2  A    between atoms: C_6  and  C_7
REMARK    3  A    between atoms: C_8  and  C_9
REMARK    4  A    between atoms: C_9  and  C_10
REMARK    5  A    between atoms: C_10  and  C_11
REMARK    6  A    between atoms: N_16  and  C_17
REMARK    7  A    between atoms: C_25  and  C_26
REMARK                            x       y       z     vdW  Elec       q    Type
REMARK                         _______ _______ _______ _____ _____    ______ ____
ROOT
ATOM      1  C   UNL     1       3.424   4.279  19.208  0.00  0.00    +0.000 C 
ENDROOT
BRANCH   1   2
ATOM      2  C   UNL     1       2.548   4.952  20.259  0.00  0.00    +0.000 C 
ATOM      3  O   UNL     1       2.447   4.475  21.390  0.00  0.00    +0.000 OA
ATOM      4  N   UNL     1       1.970   6.166  19.917  0.00  0.00    +0.000 N 
ATOM      5  C   UNL     1       1.248   6.956  20.933  0.00  0.00    +0.000 C 
ATOM      6  C   UNL     1       1.624   8.458  20.869  0.00  0.00    +0.000 C 
ATOM      7  N   UNL     1       1.490   8.943  19.483  0.00  0.00    +0.000 N 
ATOM      8  C   UNL     1       2.247   8.178  18.486  0.00  0.00    +0.000 C 
ATOM      9  C   UNL     1       1.836   6.701  18.553  0.00  0.00    +0.000 C 
BRANCH   7  10
ATOM     10  C   UNL     1       0.842  10.113  19.152  0.00  0.00    +0.000 A 
ATOM     11  C   UNL     1      -0.555  10.212  19.117  0.00  0.00    +0.000 A 
ATOM     12  C   UNL     1      -1.202  11.402  18.761  0.00  0.00    +0.000 A 
ATOM     13  C   UNL     1      -0.459  12.529  18.424  0.00  0.00    +0.000 A 
ATOM     14  C   UNL     1       0.927  12.462  18.446  0.00  0.00    +0.000 A 
ATOM     15  C   UNL     1       1.562  11.269  18.807  0.00  0.00    +0.000 A 
ENDBRANCH   7  10
ENDBRANCH   1   2
BRANCH   1  16
ATOM     16  C   UNL     1       4.915   4.555  19.406  0.00  0.00    +0.000 C 
BRANCH  16  24
ATOM     17  C   UNL     1       6.807   4.195  12.331  0.00  0.00    +0.000 C 
ATOM     18  C   UNL     1       6.695   4.379  13.793  0.00  0.00    +0.000 A 
ATOM     19  N   UNL     1       7.644   5.026  14.527  0.00  0.00    +0.000 NA
ATOM     20  C   UNL     1       7.167   4.989  15.754  0.00  0.00    +0.000 A 
ATOM     21  N   UNL     1       7.702   5.483  16.903  0.00  0.00    +0.000 NA
ATOM     22  C   UNL     1       7.011   5.327  17.992  0.00  0.00    +0.000 A 
ATOM     23  C   UNL     1       7.642   5.880  19.252  0.00  0.00    +0.000 C 
ATOM     24  C   UNL     1       5.657   4.631  18.091  0.00  0.00    +0.000 A 
ATOM     25  C   UNL     1       5.188   4.140  16.917  0.00  0.00    +0.000 A 
ATOM     26  C   UNL     1       3.897   3.394  16.739  0.00  0.00    +0.000 C 
ATOM     27  N   UNL     1       5.942   4.320  15.747  0.00  0.00    +0.000 N 
ATOM     28  N   UNL     1       5.648   3.922  14.484  0.00  0.00    +0.000 NA
ENDBRANCH  16  24
ENDBRANCH   1  16
TORSDOF 4
ENDMDL
