MODEL 1
REMARK VINA RESULT:      -7.9      0.000      0.000
REMARK  Name = 
REMARK  4 active torsions:
REMARK  status: ('A' for Active; 'I' for Inactive)
REMARK    1  A    between atoms: C_1  and  C_2
REMARK    2  A    between atoms: C_2  and  C_3
REMARK    3  A    between atoms: C_2  and  C_9
REMARK    4  A    between atoms: N_13  and  C_14
REMARK                            x       y       z     vdW  Elec       q    Type
REMARK                         _______ _______ _______ _____ _____    ______ ____
ROOT
ATOM      1  C   UNL     1       2.753   2.579  18.977  0.00  0.00    +0.000 C 
ATOM      2  C   UNL     1       4.018   2.793  19.798  0.00  0.00    +0.000 C 
ATOM      3  C   UNL     1       4.850   3.720  18.964  0.00  0.00    +0.000 C 
ATOM      4  O   UNL     1       5.850   4.266  19.404  0.00  0.00    +0.000 OA
ATOM      5  N   UNL     1       4.329   3.782  17.704  0.00  0.00    +0.000 N 
ATOM      6  C   UNL     1       3.189   3.019  17.603  0.00  0.00    +0.000 C 
ATOM      7  O   UNL     1       2.597   2.744  16.572  0.00  0.00    +0.000 OA
ENDROOT
BRANCH   5   8
ATOM      8  C   UNL     1       4.890   4.462  16.526  0.00  0.00    +0.000 C 
ATOM      9  C   UNL     1       4.780   5.992  16.575  0.00  0.00    +0.000 C 
ATOM     10  C   UNL     1       5.902   6.692  17.333  0.00  0.00    +0.000 C 
ATOM     11  C   UNL     1       7.287   6.199  16.928  0.00  0.00    +0.000 C 
ATOM     12  C   UNL     1       7.425   4.679  16.908  0.00  0.00    +0.000 C 
ATOM     13  C   UNL     1       6.299   3.992  16.144  0.00  0.00    +0.000 C 
ENDBRANCH   5   8
BRANCH   1  15
ATOM     14  C   UNL     1       1.085   2.963  20.925  0.00  0.00    +0.000 C 
ATOM     15  C   UNL     1       1.542   3.378  19.514  0.00  0.00    +0.000 C 
BRANCH  15  16
ATOM     16  C   UNL     1       1.731   4.885  19.382  0.00  0.00    +0.000 A 
ATOM     17  C   UNL     1       1.681   5.543  18.143  0.00  0.00    +0.000 A 
ATOM     18  C   UNL     1       1.928   6.914  18.045  0.00  0.00    +0.000 A 
ATOM     19  C   UNL     1       2.208   7.656  19.188  0.00  0.00    +0.000 A 
ATOM     20  C   UNL     1       2.225   7.029  20.432  0.00  0.00    +0.000 A 
ATOM     21  C   UNL     1       1.984   5.655  20.529  0.00  0.00    +0.000 A 
ENDBRANCH  15  16
ENDBRANCH   1  15
TORSDOF 3
ENDMDL
MODEL 2
REMARK VINA RESULT:      -7.9      0.935      1.072
REMARK  Name = 
REMARK  4 active torsions:
REMARK  status: ('A' for Active; 'I' for Inactive)
REMARK    1  A    between atoms: C_1  and  C_2
REMARK    2  A    between atoms: C_2  and  C_3
REMARK    3  A    between atoms: C_2  and  C_9
REMARK    4  A    between atoms: N_13  and  C_14
REMARK                            x       y       z     vdW  Elec       q    Type
REMARK                         _______ _______ _______ _____ _____    ______ ____
ROOT
ATOM      1  C   UNL     1       3.284   2.756  18.640  0.00  0.00    +0.000 C 
ATOM      2  C   UNL     1       4.091   3.248  19.835  0.00  0.00    +0.000 C 
ATOM      3  C   UNL     1       5.122   4.158  19.238  0.00  0.00    +0.000 C 
ATOM      4  O   UNL     1       5.818   4.888  19.927  0.00  0.00    +0.000 OA
ATOM      5  N   UNL     1       5.152   3.978  17.886  0.00  0.00    +0.000 N 
ATOM      6  C   UNL     1       4.207   3.062  17.488  0.00  0.00    +0.000 C 
ATOM      7  O   UNL     1       4.104   2.573  16.374  0.00  0.00    +0.000 OA
ENDROOT
BRANCH   5   8
ATOM      8  C   UNL     1       6.093   4.563  16.918  0.00  0.00    +0.000 C 
ATOM      9  C   UNL     1       5.614   5.883  16.298  0.00  0.00    +0.000 C 
ATOM     10  C   UNL     1       5.919   7.127  17.124  0.00  0.00    +0.000 C 
ATOM     11  C   UNL     1       7.364   7.177  17.610  0.00  0.00    +0.000 C 
ATOM     12  C   UNL     1       7.846   5.883  18.260  0.00  0.00    +0.000 C 
ATOM     13  C   UNL     1       7.539   4.648  17.422  0.00  0.00    +0.000 C 
ENDBRANCH   5   8
BRANCH   1  15
ATOM     14  C   UNL     1       0.745   2.670  19.156  0.00  0.00    +0.000 C 
ATOM     15  C   UNL     1       1.907   3.449  18.513  0.00  0.00    +0.000 C 
BRANCH  15  16
ATOM     16  C   UNL     1       1.945   4.909  18.954  0.00  0.00    +0.000 A 
ATOM     17  C   UNL     1       2.311   5.948  18.084  0.00  0.00    +0.000 A 
ATOM     18  C   UNL     1       2.404   7.265  18.536  0.00  0.00    +0.000 A 
ATOM     19  C   UNL     1       2.111   7.572  19.861  0.00  0.00    +0.000 A 
ATOM     20  C   UNL     1       1.709   6.562  20.731  0.00  0.00    +0.000 A 
ATOM     21  C   UNL     1       1.622   5.241  20.280  0.00  0.00    +0.000 A 
ENDBRANCH  15  16
ENDBRANCH   1  15
TORSDOF 3
ENDMDL
MODEL 3
REMARK VINA RESULT:      -7.9      0.083      1.054
REMARK  Name = 
REMARK  4 active torsions:
REMARK  status: ('A' for Active; 'I' for Inactive)
REMARK    1  A    between atoms: C_1  and  C_2
REMARK    2  A    between atoms: C_2  and  C_3
REMARK    3  A    between atoms: C_2  and  C_9
REMARK    4  A    between atoms: N_13  and  C_14
REMARK                            x       y       z     vdW  Elec       q    Type
REMARK                         _______ _______ _______ _____ _____    ______ ____
ROOT
ATOM      1  C   UNL     1       2.743   2.638  18.946  0.00  0.00    +0.000 C 
ATOM      2  C   UNL     1       4.000   2.839  19.782  0.00  0.00    +0.000 C 
ATOM      3  C   UNL     1       4.858   3.745  18.951  0.00  0.00    +0.000 C 
ATOM      4  O   UNL     1       5.861   4.279  19.401  0.00  0.00    +0.000 OA
ATOM      5  N   UNL     1       4.356   3.804  17.684  0.00  0.00    +0.000 N 
ATOM      6  C   UNL     1       3.205   3.059  17.574  0.00  0.00    +0.000 C 
ATOM      7  O   UNL     1       2.623   2.784  16.537  0.00  0.00    +0.000 OA
ENDROOT
BRANCH   5   8
ATOM      8  C   UNL     1       4.944   4.464  16.509  0.00  0.00    +0.000 C 
ATOM      9  C   UNL     1       4.815   5.994  16.519  0.00  0.00    +0.000 C 
ATOM     10  C   UNL     1       5.905   6.725  17.293  0.00  0.00    +0.000 C 
ATOM     11  C   UNL     1       7.308   6.239  16.942  0.00  0.00    +0.000 C 
ATOM     12  C   UNL     1       7.463   4.721  16.961  0.00  0.00    +0.000 C 
ATOM     13  C   UNL     1       6.369   4.003  16.180  0.00  0.00    +0.000 C 
ENDBRANCH   5   8
BRANCH   1  15
ATOM     14  C   UNL     1       0.998   3.009  20.828  0.00  0.00    +0.000 C 
ATOM     15  C   UNL     1       1.538   3.462  19.458  0.00  0.00    +0.000 C 
BRANCH  15  16
ATOM     16  C   UNL     1       1.789   4.965  19.399  0.00  0.00    +0.000 A 
ATOM     17  C   UNL     1       2.014   5.735  20.551  0.00  0.00    +0.000 A 
ATOM     18  C   UNL     1       2.172   7.120  20.471  0.00  0.00    +0.000 A 
ATOM     19  C   UNL     1       2.129   7.758  19.236  0.00  0.00    +0.000 A 
ATOM     20  C   UNL     1       1.945   7.007  18.077  0.00  0.00    +0.000 A 
ATOM     21  C   UNL     1       1.780   5.621  18.158  0.00  0.00    +0.000 A 
ENDBRANCH  15  16
ENDBRANCH   1  15
TORSDOF 3
ENDMDL
MODEL 4
REMARK VINA RESULT:      -7.8      1.673      5.305
REMARK  Name = 
REMARK  4 active torsions:
REMARK  status: ('A' for Active; 'I' for Inactive)
REMARK    1  A    between atoms: C_1  and  C_2
REMARK    2  A    between atoms: C_2  and  C_3
REMARK    3  A    between atoms: C_2  and  C_9
REMARK    4  A    between atoms: N_13  and  C_14
REMARK                            x       y       z     vdW  Elec       q    Type
REMARK                         _______ _______ _______ _____ _____    ______ ____
ROOT
ATOM      1  C   UNL     1       3.941   5.072  16.768  0.00  0.00    +0.000 C 
ATOM      2  C   UNL     1       3.794   6.358  17.571  0.00  0.00    +0.000 C 
ATOM      3  C   UNL     1       2.899   5.982  18.713  0.00  0.00    +0.000 C 
ATOM      4  O   UNL     1       2.728   6.719  19.672  0.00  0.00    +0.000 OA
ATOM      5  N   UNL     1       2.327   4.770  18.456  0.00  0.00    +0.000 N 
ATOM      6  C   UNL     1       2.778   4.254  17.265  0.00  0.00    +0.000 C 
ATOM      7  O   UNL     1       2.329   3.275  16.689  0.00  0.00    +0.000 OA
ENDROOT
BRANCH   5   8
ATOM      8  C   UNL     1       1.289   4.078  19.236  0.00  0.00    +0.000 C 
ATOM      9  C   UNL     1       1.328   2.548  19.110  0.00  0.00    +0.000 C 
ATOM     10  C   UNL     1       2.298   1.850  20.056  0.00  0.00    +0.000 C 
ATOM     11  C   UNL     1       2.172   2.335  21.496  0.00  0.00    +0.000 C 
ATOM     12  C   UNL     1       2.167   3.854  21.643  0.00  0.00    +0.000 C 
ATOM     13  C   UNL     1       1.190   4.538  20.695  0.00  0.00    +0.000 C 
ENDBRANCH   5   8
BRANCH   1  15
ATOM     14  C   UNL     1       5.828   3.610  15.755  0.00  0.00    +0.000 C 
ATOM     15  C   UNL     1       5.307   4.378  16.983  0.00  0.00    +0.000 C 
BRANCH  15  16
ATOM     16  C   UNL     1       6.354   5.319  17.570  0.00  0.00    +0.000 A 
ATOM     17  C   UNL     1       6.966   5.083  18.811  0.00  0.00    +0.000 A 
ATOM     18  C   UNL     1       7.869   5.998  19.355  0.00  0.00    +0.000 A 
ATOM     19  C   UNL     1       8.195   7.156  18.656  0.00  0.00    +0.000 A 
ATOM     20  C   UNL     1       7.630   7.390  17.405  0.00  0.00    +0.000 A 
ATOM     21  C   UNL     1       6.719   6.477  16.864  0.00  0.00    +0.000 A 
ENDBRANCH  15  16
ENDBRANCH   1  15
TORSDOF 3
ENDMDL
MODEL 5
REMARK VINA RESULT:      -7.8      1.704      5.228
REMARK  Name = 
REMARK  4 active torsions:
REMARK  status: ('A' for Active; 'I' for Inactive)
REMARK    1  A    between atoms: C_1  and  C_2
REMARK    2  A    between atoms: C_2  and  C_3
REMARK    3  A    between atoms: C_2  and  C_9
REMARK    4  A    between atoms: N_13  and  C_14
REMARK                            x       y       z     vdW  Elec       q    Type
REMARK                         _______ _______ _______ _____ _____    ______ ____
ROOT
ATOM      1  C   UNL     1       3.916   5.124  16.783  0.00  0.00    +0.000 C 
ATOM      2  C   UNL     1       3.721   6.416  17.566  0.00  0.00    +0.000 C 
ATOM      3  C   UNL     1       2.830   6.028  18.708  0.00  0.00    +0.000 C 
ATOM      4  O   UNL     1       2.629   6.773  19.655  0.00  0.00    +0.000 OA
ATOM      5  N   UNL     1       2.300   4.794  18.466  0.00  0.00    +0.000 N 
ATOM      6  C   UNL     1       2.776   4.275  17.285  0.00  0.00    +0.000 C 
ATOM      7  O   UNL     1       2.364   3.273  16.721  0.00  0.00    +0.000 OA
ENDROOT
BRANCH   5   8
ATOM      8  C   UNL     1       1.280   4.079  19.249  0.00  0.00    +0.000 C 
ATOM      9  C   UNL     1       1.341   2.551  19.109  0.00  0.00    +0.000 C 
ATOM     10  C   UNL     1       2.330   1.860  20.040  0.00  0.00    +0.000 C 
ATOM     11  C   UNL     1       2.210   2.330  21.486  0.00  0.00    +0.000 C 
ATOM     12  C   UNL     1       2.185   3.847  21.646  0.00  0.00    +0.000 C 
ATOM     13  C   UNL     1       1.189   4.525  20.713  0.00  0.00    +0.000 C 
ENDBRANCH   5   8
BRANCH   1  15
ATOM     14  C   UNL     1       5.862   3.720  15.801  0.00  0.00    +0.000 C 
ATOM     15  C   UNL     1       5.302   4.479  17.018  0.00  0.00    +0.000 C 
BRANCH  15  16
ATOM     16  C   UNL     1       6.311   5.459  17.608  0.00  0.00    +0.000 A 
ATOM     17  C   UNL     1       6.683   6.641  16.950  0.00  0.00    +0.000 A 
ATOM     18  C   UNL     1       7.661   7.483  17.482  0.00  0.00    +0.000 A 
ATOM     19  C   UNL     1       8.269   7.170  18.693  0.00  0.00    +0.000 A 
ATOM     20  C   UNL     1       7.887   6.021  19.381  0.00  0.00    +0.000 A 
ATOM     21  C   UNL     1       6.912   5.174  18.845  0.00  0.00    +0.000 A 
ENDBRANCH  15  16
ENDBRANCH   1  15
TORSDOF 3
ENDMDL
MODEL 6
REMARK VINA RESULT:      -7.8      1.677      5.393
REMARK  Name = 
REMARK  4 active torsions:
REMARK  status: ('A' for Active; 'I' for Inactive)
REMARK    1  A    between atoms: C_1  and  C_2
REMARK    2  A    between atoms: C_2  and  C_3
REMARK    3  A    between atoms: C_2  and  C_9
REMARK    4  A    between atoms: N_13  and  C_14
REMARK                            x       y       z     vdW  Elec       q    Type
REMARK                         _______ _______ _______ _____ _____    ______ ____
ROOT
ATOM      1  C   UNL     1       4.393   5.031  16.687  0.00  0.00    +0.000 C 
ATOM      2  C   UNL     1       4.103   5.902  17.903  0.00  0.00    +0.000 C 
ATOM      3  C   UNL     1       3.534   4.952  18.913  0.00  0.00    +0.000 C 
ATOM      4  O   UNL     1       3.374   5.269  20.082  0.00  0.00    +0.000 OA
ATOM      5  N   UNL     1       3.216   3.777  18.297  0.00  0.00    +0.000 N 
ATOM      6  C   UNL     1       3.553   3.811  16.965  0.00  0.00    +0.000 C 
ATOM      7  O   UNL     1       3.243   2.982  16.123  0.00  0.00    +0.000 OA
ENDROOT
BRANCH   5   8
ATOM      8  C   UNL     1       2.518   2.616  18.871  0.00  0.00    +0.000 C 
ATOM      9  C   UNL     1       3.215   2.009  20.097  0.00  0.00    +0.000 C 
ATOM     10  C   UNL     1       2.882   2.681  21.423  0.00  0.00    +0.000 C 
ATOM     11  C   UNL     1       1.384   2.888  21.622  0.00  0.00    +0.000 C 
ATOM     12  C   UNL     1       0.681   3.523  20.426  0.00  0.00    +0.000 C 
ATOM     13  C   UNL     1       1.019   2.840  19.107  0.00  0.00    +0.000 C 
ENDBRANCH   5   8
BRANCH   1  15
ATOM     14  C   UNL     1       6.346   4.524  15.059  0.00  0.00    +0.000 C 
ATOM     15  C   UNL     1       5.896   4.707  16.520  0.00  0.00    +0.000 C 
BRANCH  15  16
ATOM     16  C   UNL     1       6.791   5.673  17.289  0.00  0.00    +0.000 A 
ATOM     17  C   UNL     1       7.408   5.324  18.501  0.00  0.00    +0.000 A 
ATOM     18  C   UNL     1       8.164   6.254  19.217  0.00  0.00    +0.000 A 
ATOM     19  C   UNL     1       8.336   7.543  18.724  0.00  0.00    +0.000 A 
ATOM     20  C   UNL     1       7.765   7.898  17.505  0.00  0.00    +0.000 A 
ATOM     21  C   UNL     1       7.001   6.969  16.790  0.00  0.00    +0.000 A 
ENDBRANCH  15  16
ENDBRANCH   1  15
TORSDOF 3
ENDMDL
MODEL 7
REMARK VINA RESULT:      -7.8      1.601      5.346
REMARK  Name = 
REMARK  4 active torsions:
REMARK  status: ('A' for Active; 'I' for Inactive)
REMARK    1  A    between atoms: C_1  and  C_2
REMARK    2  A    between atoms: C_2  and  C_3
REMARK    3  A    between atoms: C_2  and  C_9
REMARK    4  A    between atoms: N_13  and  C_14
REMARK                            x       y       z     vdW  Elec       q    Type
REMARK                         _______ _______ _______ _____ _____    ______ ____
ROOT
ATOM      1  C   UNL     1       4.711   4.407  16.327  0.00  0.00    +0.000 C 
ATOM      2  C   UNL     1       4.223   5.765  16.816  0.00  0.00    +0.000 C 
ATOM      3  C   UNL     1       3.897   5.543  18.262  0.00  0.00    +0.000 C 
ATOM      4  O   UNL     1       3.666   6.469  19.024  0.00  0.00    +0.000 OA
ATOM      5  N   UNL     1       3.867   4.203  18.516  0.00  0.00    +0.000 N 
ATOM      6  C   UNL     1       4.186   3.479  17.391  0.00  0.00    +0.000 C 
ATOM      7  O   UNL     1       4.082   2.270  17.260  0.00  0.00    +0.000 OA
ENDROOT
BRANCH   5   8
ATOM      8  C   UNL     1       3.465   3.527  19.760  0.00  0.00    +0.000 C 
ATOM      9  C   UNL     1       2.719   4.432  20.751  0.00  0.00    +0.000 C 
ATOM     10  C   UNL     1       1.220   4.554  20.505  0.00  0.00    +0.000 C 
ATOM     11  C   UNL     1       0.543   3.204  20.292  0.00  0.00    +0.000 C 
ATOM     12  C   UNL     1       1.252   2.306  19.283  0.00  0.00    +0.000 C 
ATOM     13  C   UNL     1       2.749   2.189  19.543  0.00  0.00    +0.000 C 
ENDBRANCH   5   8
BRANCH   1  15
ATOM     14  C   UNL     1       6.740   4.428  14.712  0.00  0.00    +0.000 C 
ATOM     15  C   UNL     1       6.249   4.339  16.168  0.00  0.00    +0.000 C 
BRANCH  15  16
ATOM     16  C   UNL     1       6.975   5.315  17.089  0.00  0.00    +0.000 A 
ATOM     17  C   UNL     1       7.481   4.932  18.341  0.00  0.00    +0.000 A 
ATOM     18  C   UNL     1       8.078   5.864  19.191  0.00  0.00    +0.000 A 
ATOM     19  C   UNL     1       8.201   7.192  18.796  0.00  0.00    +0.000 A 
ATOM     20  C   UNL     1       7.740   7.585  17.542  0.00  0.00    +0.000 A 
ATOM     21  C   UNL     1       7.136   6.653  16.693  0.00  0.00    +0.000 A 
ENDBRANCH  15  16
ENDBRANCH   1  15
TORSDOF 3
ENDMDL
MODEL 8
REMARK VINA RESULT:      -7.7      1.614      5.286
REMARK  Name = 
REMARK  4 active torsions:
REMARK  status: ('A' for Active; 'I' for Inactive)
REMARK    1  A    between atoms: C_1  and  C_2
REMARK    2  A    between atoms: C_2  and  C_3
REMARK    3  A    between atoms: C_2  and  C_9
REMARK    4  A    between atoms: N_13  and  C_14
REMARK                            x       y       z     vdW  Elec       q    Type
REMARK                         _______ _______ _______ _____ _____    ______ ____
ROOT
ATOM      1  C   UNL     1       4.732   4.438  16.356  0.00  0.00    +0.000 C 
ATOM      2  C   UNL     1       4.179   5.780  16.819  0.00  0.00    +0.000 C 
ATOM      3  C   UNL     1       3.831   5.560  18.261  0.00  0.00    +0.000 C 
ATOM      4  O   UNL     1       3.547   6.485  19.006  0.00  0.00    +0.000 OA
ATOM      5  N   UNL     1       3.848   4.223  18.529  0.00  0.00    +0.000 N 
ATOM      6  C   UNL     1       4.220   3.501  17.420  0.00  0.00    +0.000 C 
ATOM      7  O   UNL     1       4.167   2.287  17.300  0.00  0.00    +0.000 OA
ENDROOT
BRANCH   5   8
ATOM      8  C   UNL     1       3.447   3.545  19.772  0.00  0.00    +0.000 C 
ATOM      9  C   UNL     1       2.669   4.438  20.749  0.00  0.00    +0.000 C 
ATOM     10  C   UNL     1       1.171   4.527  20.485  0.00  0.00    +0.000 C 
ATOM     11  C   UNL     1       0.526   3.162  20.271  0.00  0.00    +0.000 C 
ATOM     12  C   UNL     1       1.266   2.274  19.275  0.00  0.00    +0.000 C 
ATOM     13  C   UNL     1       2.762   2.190  19.553  0.00  0.00    +0.000 C 
ENDBRANCH   5   8
BRANCH   1  15
ATOM     14  C   UNL     1       6.793   4.492  14.783  0.00  0.00    +0.000 C 
ATOM     15  C   UNL     1       6.274   4.430  16.232  0.00  0.00    +0.000 C 
BRANCH  15  16
ATOM     16  C   UNL     1       6.938   5.465  17.133  0.00  0.00    +0.000 A 
ATOM     17  C   UNL     1       7.104   6.804  16.746  0.00  0.00    +0.000 A 
ATOM     18  C   UNL     1       7.779   7.711  17.564  0.00  0.00    +0.000 A 
ATOM     19  C   UNL     1       8.282   7.303  18.795  0.00  0.00    +0.000 A 
ATOM     20  C   UNL     1       8.094   5.988  19.215  0.00  0.00    +0.000 A 
ATOM     21  C   UNL     1       7.424   5.077  18.393  0.00  0.00    +0.000 A 
ENDBRANCH  15  16
ENDBRANCH   1  15
TORSDOF 3
ENDMDL
MODEL 9
REMARK VINA RESULT:      -7.7      1.670      5.351
REMARK  Name = 
REMARK  4 active torsions:
REMARK  status: ('A' for Active; 'I' for Inactive)
REMARK    1  A    between atoms: C_1  and  C_2
REMARK    2  A    between atoms: C_2  and  C_3
REMARK    3  A    between atoms: C_2  and  C_9
REMARK    4  A    between atoms: N_13  and  C_14
REMARK                            x       y       z     vdW  Elec       q    Type
REMARK                         _______ _______ _______ _____ _____    ______ ____
ROOT
ATOM      1  C   UNL     1       4.547   5.239  16.788  0.00  0.00    +0.000 C 
ATOM      2  C   UNL     1       4.122   6.103  17.968  0.00  0.00    +0.000 C 
ATOM      3  C   UNL     1       3.500   5.136  18.931  0.00  0.00    +0.000 C 
ATOM      4  O   UNL     1       3.228   5.450  20.079  0.00  0.00    +0.000 OA
ATOM      5  N   UNL     1       3.278   3.949  18.297  0.00  0.00    +0.000 N 
ATOM      6  C   UNL     1       3.729   3.991  16.998  0.00  0.00    +0.000 C 
ATOM      7  O   UNL     1       3.523   3.149  16.138  0.00  0.00    +0.000 OA
ENDROOT
BRANCH   5   8
ATOM      8  C   UNL     1       2.574   2.765  18.814  0.00  0.00    +0.000 C 
ATOM      9  C   UNL     1       3.255   2.110  20.024  0.00  0.00    +0.000 C 
ATOM     10  C   UNL     1       2.903   2.729  21.372  0.00  0.00    +0.000 C 
ATOM     11  C   UNL     1       1.402   2.927  21.557  0.00  0.00    +0.000 C 
ATOM     12  C   UNL     1       0.714   3.609  20.378  0.00  0.00    +0.000 C 
ATOM     13  C   UNL     1       1.072   2.979  19.038  0.00  0.00    +0.000 C 
ENDBRANCH   5   8
BRANCH   1  15
ATOM     14  C   UNL     1       6.621   4.617  15.361  0.00  0.00    +0.000 C 
ATOM     15  C   UNL     1       6.070   4.968  16.755  0.00  0.00    +0.000 C 
BRANCH  15  16
ATOM     16  C   UNL     1       6.874   6.068  17.440  0.00  0.00    +0.000 A 
ATOM     17  C   UNL     1       6.949   7.373  16.929  0.00  0.00    +0.000 A 
ATOM     18  C   UNL     1       7.751   8.340  17.539  0.00  0.00    +0.000 A 
ATOM     19  C   UNL     1       8.474   8.026  18.685  0.00  0.00    +0.000 A 
ATOM     20  C   UNL     1       8.383   6.748  19.230  0.00  0.00    +0.000 A 
ATOM     21  C   UNL     1       7.586   5.777  18.615  0.00  0.00    +0.000 A 
ENDBRANCH  15  16
ENDBRANCH   1  15
TORSDOF 3
ENDMDL
