MODEL 1
REMARK VINA RESULT:      -8.8      0.000      0.000
REMARK  Name = 
REMARK  4 active torsions:
REMARK  status: ('A' for Active; 'I' for Inactive)
REMARK    1  A    between atoms: C_5  and  C_6
REMARK    2  A    between atoms: C_6  and  N_7
REMARK    3  A    between atoms: C_11  and  C_12
REMARK    4  A    between atoms: C_12  and  N_13
REMARK                            x       y       z     vdW  Elec       q    Type
REMARK                         _______ _______ _______ _____ _____    ______ ____
ROOT
ATOM      1  N   UNL     1       3.194   5.288  18.343  0.00  0.00    +0.000 NA
ATOM      2  C   UNL     1       3.360   6.652  17.819  0.00  0.00    +0.000 C 
ATOM      3  C   UNL     1       2.200   7.578  18.250  0.00  0.00    +0.000 C 
ATOM      4  N   UNL     1       2.026   7.587  19.716  0.00  0.00    +0.000 N 
ATOM      5  C   UNL     1       1.288   8.581  20.301  0.00  0.00    +0.000 A 
ATOM      6  N   UNL     1       0.621   8.455  21.431  0.00  0.00    +0.000 NA
ATOM      7  C   UNL     1       0.043   9.661  21.813  0.00  0.00    +0.000 A 
ATOM      8  C   UNL     1      -0.724   9.898  22.973  0.00  0.00    +0.000 A 
ATOM      9  C   UNL     1      -1.217  11.186  23.234  0.00  0.00    +0.000 A 
ATOM     10  C   UNL     1      -0.966  12.232  22.350  0.00  0.00    +0.000 A 
ATOM     11  C   UNL     1      -0.225  12.019  21.185  0.00  0.00    +0.000 A 
ATOM     12  C   UNL     1       0.271  10.726  20.945  0.00  0.00    +0.000 A 
ATOM     13  S   UNL     1       1.215  10.181  19.632  0.00  0.00    +0.000 S 
ATOM     14  C   UNL     1       1.954   6.237  20.309  0.00  0.00    +0.000 C 
ATOM     15  C   UNL     1       3.139   5.359  19.822  0.00  0.00    +0.000 C 
ENDROOT
BRANCH   1  16
ATOM     16  C   UNL     1       4.179   4.322  17.827  0.00  0.00    +0.000 C 
BRANCH  16  21
ATOM     17  N   UNL     1       6.393   5.356  17.082  0.00  0.00    +0.000 N 
ATOM     18  N   UNL     1       7.625   5.537  17.590  0.00  0.00    +0.000 NA
ATOM     19  N   UNL     1       7.617   4.927  18.764  0.00  0.00    +0.000 NA
ATOM     20  N   UNL     1       6.388   4.381  19.020  0.00  0.00    +0.000 NA
ATOM     21  C   UNL     1       5.616   4.681  17.994  0.00  0.00    +0.000 A 
BRANCH  17  22
ATOM     22  C   UNL     1       6.042   5.965  15.816  0.00  0.00    +0.000 C 
BRANCH  22  27
ATOM     23  F   UNL     1       6.941   2.933  11.136  0.00  0.00    +0.000 F 
ATOM     24  C   UNL     1       6.761   3.615  12.274  0.00  0.00    +0.000 A 
ATOM     25  C   UNL     1       5.642   3.357  13.057  0.00  0.00    +0.000 A 
ATOM     26  C   UNL     1       5.432   4.092  14.228  0.00  0.00    +0.000 A 
ATOM     27  C   UNL     1       6.342   5.088  14.620  0.00  0.00    +0.000 A 
ATOM     28  C   UNL     1       7.475   5.317  13.820  0.00  0.00    +0.000 A 
ATOM     29  C   UNL     1       7.684   4.581  12.650  0.00  0.00    +0.000 A 
ENDBRANCH  22  27
ENDBRANCH  17  22
ENDBRANCH  16  21
ENDBRANCH   1  16
TORSDOF 4
ENDMDL
MODEL 2
REMARK VINA RESULT:      -8.8      3.530      5.019
REMARK  Name = 
REMARK  4 active torsions:
REMARK  status: ('A' for Active; 'I' for Inactive)
REMARK    1  A    between atoms: C_5  and  C_6
REMARK    2  A    between atoms: C_6  and  N_7
REMARK    3  A    between atoms: C_11  and  C_12
REMARK    4  A    between atoms: C_12  and  N_13
REMARK                            x       y       z     vdW  Elec       q    Type
REMARK                         _______ _______ _______ _____ _____    ______ ____
ROOT
ATOM      1  N   UNL     1       2.967   7.373  18.352  0.00  0.00    +0.000 NA
ATOM      2  C   UNL     1       2.268   6.856  19.539  0.00  0.00    +0.000 C 
ATOM      3  C   UNL     1       1.883   7.989  20.517  0.00  0.00    +0.000 C 
ATOM      4  N   UNL     1       1.092   9.042  19.848  0.00  0.00    +0.000 N 
ATOM      5  C   UNL     1       0.388   9.939  20.605  0.00  0.00    +0.000 A 
ATOM      6  N   UNL     1       0.100  11.171  20.234  0.00  0.00    +0.000 NA
ATOM      7  C   UNL     1      -0.700  11.808  21.177  0.00  0.00    +0.000 A 
ATOM      8  C   UNL     1      -1.210  13.121  21.101  0.00  0.00    +0.000 A 
ATOM      9  C   UNL     1      -2.033  13.612  22.127  0.00  0.00    +0.000 A 
ATOM     10  C   UNL     1      -2.339  12.818  23.228  0.00  0.00    +0.000 A 
ATOM     11  C   UNL     1      -1.831  11.521  23.336  0.00  0.00    +0.000 A 
ATOM     12  C   UNL     1      -1.019  11.041  22.295  0.00  0.00    +0.000 A 
ATOM     13  S   UNL     1      -0.284   9.508  22.146  0.00  0.00    +0.000 S 
ATOM     14  C   UNL     1       1.700   9.527  18.594  0.00  0.00    +0.000 C 
ATOM     15  C   UNL     1       2.075   8.338  17.668  0.00  0.00    +0.000 C 
ENDROOT
BRANCH   1  16
ATOM     16  C   UNL     1       3.505   6.325  17.468  0.00  0.00    +0.000 C 
BRANCH  16  21
ATOM     17  N   UNL     1       5.038   4.373  18.071  0.00  0.00    +0.000 N 
ATOM     18  N   UNL     1       6.333   4.188  18.385  0.00  0.00    +0.000 NA
ATOM     19  N   UNL     1       6.861   5.399  18.437  0.00  0.00    +0.000 NA
ATOM     20  N   UNL     1       5.925   6.352  18.137  0.00  0.00    +0.000 NA
ATOM     21  C   UNL     1       4.803   5.713  17.871  0.00  0.00    +0.000 A 
BRANCH  17  22
ATOM     22  C   UNL     1       4.178   3.227  17.867  0.00  0.00    +0.000 C 
BRANCH  22  27
ATOM     23  F   UNL     1       0.711   2.628  22.287  0.00  0.00    +0.000 F 
ATOM     24  C   UNL     1       1.523   2.715  21.226  0.00  0.00    +0.000 A 
ATOM     25  C   UNL     1       2.889   2.518  21.390  0.00  0.00    +0.000 A 
ATOM     26  C   UNL     1       3.744   2.643  20.291  0.00  0.00    +0.000 A 
ATOM     27  C   UNL     1       3.235   2.966  19.022  0.00  0.00    +0.000 A 
ATOM     28  C   UNL     1       1.847   3.143  18.879  0.00  0.00    +0.000 A 
ATOM     29  C   UNL     1       0.994   3.017  19.978  0.00  0.00    +0.000 A 
ENDBRANCH  22  27
ENDBRANCH  17  22
ENDBRANCH  16  21
ENDBRANCH   1  16
TORSDOF 4
ENDMDL
MODEL 3
REMARK VINA RESULT:      -8.4      4.161     10.196
REMARK  Name = 
REMARK  4 active torsions:
REMARK  status: ('A' for Active; 'I' for Inactive)
REMARK    1  A    between atoms: C_5  and  C_6
REMARK    2  A    between atoms: C_6  and  N_7
REMARK    3  A    between atoms: C_11  and  C_12
REMARK    4  A    between atoms: C_12  and  N_13
REMARK                            x       y       z     vdW  Elec       q    Type
REMARK                         _______ _______ _______ _____ _____    ______ ____
ROOT
ATOM      1  N   UNL     1      -0.576  10.904  21.794  0.00  0.00    +0.000 NA
ATOM      2  C   UNL     1      -0.418   9.637  22.524  0.00  0.00    +0.000 C 
ATOM      3  C   UNL     1      -0.092   8.463  21.573  0.00  0.00    +0.000 C 
ATOM      4  N   UNL     1       1.092   8.749  20.740  0.00  0.00    +0.000 N 
ATOM      5  C   UNL     1       1.724   7.722  20.091  0.00  0.00    +0.000 A 
ATOM      6  N   UNL     1       2.396   7.847  18.964  0.00  0.00    +0.000 NA
ATOM      7  C   UNL     1       2.997   6.646  18.599  0.00  0.00    +0.000 A 
ATOM      8  C   UNL     1       3.804   6.418  17.465  0.00  0.00    +0.000 A 
ATOM      9  C   UNL     1       4.364   5.149  17.250  0.00  0.00    +0.000 A 
ATOM     10  C   UNL     1       4.121   4.108  18.140  0.00  0.00    +0.000 A 
ATOM     11  C   UNL     1       3.310   4.303  19.261  0.00  0.00    +0.000 A 
ATOM     12  C   UNL     1       2.766   5.582  19.468  0.00  0.00    +0.000 A 
ATOM     13  S   UNL     1       1.769   6.115  20.746  0.00  0.00    +0.000 S 
ATOM     14  C   UNL     1       1.032  10.058  20.060  0.00  0.00    +0.000 C 
ATOM     15  C   UNL     1       0.686  11.186  21.070  0.00  0.00    +0.000 C 
ENDROOT
BRANCH   1  16
ATOM     16  C   UNL     1      -1.050  12.022  22.627  0.00  0.00    +0.000 C 
BRANCH  16  21
ATOM     17  N   UNL     1      -3.335  12.779  21.772  0.00  0.00    +0.000 N 
ATOM     18  N   UNL     1      -4.615  12.732  22.184  0.00  0.00    +0.000 NA
ATOM     19  N   UNL     1      -4.578  12.195  23.392  0.00  0.00    +0.000 NA
ATOM     20  N   UNL     1      -3.294  11.877  23.744  0.00  0.00    +0.000 NA
ATOM     21  C   UNL     1      -2.526  12.203  22.723  0.00  0.00    +0.000 A 
BRANCH  17  22
ATOM     22  C   UNL     1      -3.026  13.259  20.441  0.00  0.00    +0.000 C 
BRANCH  22  27
ATOM     23  F   UNL     1      -3.479   9.573  16.185  0.00  0.00    +0.000 F 
ATOM     24  C   UNL     1      -3.370  10.403  17.230  0.00  0.00    +0.000 A 
ATOM     25  C   UNL     1      -4.517  10.941  17.800  0.00  0.00    +0.000 A 
ATOM     26  C   UNL     1      -4.406  11.835  18.869  0.00  0.00    +0.000 A 
ATOM     27  C   UNL     1      -3.144  12.194  19.372  0.00  0.00    +0.000 A 
ATOM     28  C   UNL     1      -1.999  11.622  18.789  0.00  0.00    +0.000 A 
ATOM     29  C   UNL     1      -2.113  10.728  17.721  0.00  0.00    +0.000 A 
ENDBRANCH  22  27
ENDBRANCH  17  22
ENDBRANCH  16  21
ENDBRANCH   1  16
TORSDOF 4
ENDMDL
MODEL 4
REMARK VINA RESULT:      -8.2      3.229      4.289
REMARK  Name = 
REMARK  4 active torsions:
REMARK  status: ('A' for Active; 'I' for Inactive)
REMARK    1  A    between atoms: C_5  and  C_6
REMARK    2  A    between atoms: C_6  and  N_7
REMARK    3  A    between atoms: C_11  and  C_12
REMARK    4  A    between atoms: C_12  and  N_13
REMARK                            x       y       z     vdW  Elec       q    Type
REMARK                         _______ _______ _______ _____ _____    ______ ____
ROOT
ATOM      1  N   UNL     1       1.716   6.821  19.929  0.00  0.00    +0.000 NA
ATOM      2  C   UNL     1       2.413   7.734  19.010  0.00  0.00    +0.000 C 
ATOM      3  C   UNL     1       1.563   8.983  18.687  0.00  0.00    +0.000 C 
ATOM      4  N   UNL     1       1.137   9.685  19.914  0.00  0.00    +0.000 N 
ATOM      5  C   UNL     1       0.672  10.970  19.828  0.00  0.00    +0.000 A 
ATOM      6  N   UNL     1      -0.194  11.512  20.661  0.00  0.00    +0.000 NA
ATOM      7  C   UNL     1      -0.405  12.855  20.367  0.00  0.00    +0.000 A 
ATOM      8  C   UNL     1      -1.250  13.747  21.060  0.00  0.00    +0.000 A 
ATOM      9  C   UNL     1      -1.332  15.089  20.655  0.00  0.00    +0.000 A 
ATOM     10  C   UNL     1      -0.595  15.546  19.567  0.00  0.00    +0.000 A 
ATOM     11  C   UNL     1       0.236  14.678  18.853  0.00  0.00    +0.000 A 
ATOM     12  C   UNL     1       0.315  13.341  19.278  0.00  0.00    +0.000 A 
ATOM     13  S   UNL     1       1.251  12.074  18.621  0.00  0.00    +0.000 S 
ATOM     14  C   UNL     1       0.519   8.795  20.916  0.00  0.00    +0.000 C 
ATOM     15  C   UNL     1       1.418   7.557  21.181  0.00  0.00    +0.000 C 
ENDROOT
BRANCH   1  16
ATOM     16  C   UNL     1       2.407   5.538  20.140  0.00  0.00    +0.000 C 
BRANCH  16  21
ATOM     17  N   UNL     1       3.605   3.995  18.494  0.00  0.00    +0.000 N 
ATOM     18  N   UNL     1       3.278   3.207  17.454  0.00  0.00    +0.000 NA
ATOM     19  N   UNL     1       1.983   3.394  17.262  0.00  0.00    +0.000 NA
ATOM     20  N   UNL     1       1.477   4.273  18.181  0.00  0.00    +0.000 NA
ATOM     21  C   UNL     1       2.474   4.616  18.971  0.00  0.00    +0.000 A 
BRANCH  17  22
ATOM     22  C   UNL     1       4.957   3.977  19.012  0.00  0.00    +0.000 C 
BRANCH  22  27
ATOM     23  F   UNL     1       8.230   8.212  17.208  0.00  0.00    +0.000 F 
ATOM     24  C   UNL     1       7.427   7.245  17.670  0.00  0.00    +0.000 A 
ATOM     25  C   UNL     1       7.848   6.453  18.731  0.00  0.00    +0.000 A 
ATOM     26  C   UNL     1       7.027   5.420  19.193  0.00  0.00    +0.000 A 
ATOM     27  C   UNL     1       5.781   5.175  18.594  0.00  0.00    +0.000 A 
ATOM     28  C   UNL     1       5.370   6.002  17.532  0.00  0.00    +0.000 A 
ATOM     29  C   UNL     1       6.192   7.035  17.073  0.00  0.00    +0.000 A 
ENDBRANCH  22  27
ENDBRANCH  17  22
ENDBRANCH  16  21
ENDBRANCH   1  16
TORSDOF 4
ENDMDL
MODEL 5
REMARK VINA RESULT:      -8.2      1.312      2.199
REMARK  Name = 
REMARK  4 active torsions:
REMARK  status: ('A' for Active; 'I' for Inactive)
REMARK    1  A    between atoms: C_5  and  C_6
REMARK    2  A    between atoms: C_6  and  N_7
REMARK    3  A    between atoms: C_11  and  C_12
REMARK    4  A    between atoms: C_12  and  N_13
REMARK                            x       y       z     vdW  Elec       q    Type
REMARK                         _______ _______ _______ _____ _____    ______ ____
ROOT
ATOM      1  N   UNL     1       3.490   6.241  18.683  0.00  0.00    +0.000 NA
ATOM      2  C   UNL     1       2.432   6.144  19.699  0.00  0.00    +0.000 C 
ATOM      3  C   UNL     1       2.041   7.532  20.255  0.00  0.00    +0.000 C 
ATOM      4  N   UNL     1       1.659   8.464  19.176  0.00  0.00    +0.000 N 
ATOM      5  C   UNL     1       0.974   9.609  19.485  0.00  0.00    +0.000 A 
ATOM      6  N   UNL     1       1.031  10.728  18.791  0.00  0.00    +0.000 NA
ATOM      7  C   UNL     1       0.159  11.684  19.302  0.00  0.00    +0.000 A 
ATOM      8  C   UNL     1      -0.054  12.985  18.800  0.00  0.00    +0.000 A 
ATOM      9  C   UNL     1      -0.995  13.825  19.414  0.00  0.00    +0.000 A 
ATOM     10  C   UNL     1      -1.714  13.391  20.524  0.00  0.00    +0.000 A 
ATOM     11  C   UNL     1      -1.508  12.114  21.051  0.00  0.00    +0.000 A 
ATOM     12  C   UNL     1      -0.570  11.281  20.418  0.00  0.00    +0.000 A 
ATOM     13  S   UNL     1      -0.131   9.682  20.822  0.00  0.00    +0.000 S 
ATOM     14  C   UNL     1       2.642   8.526  18.077  0.00  0.00    +0.000 C 
ATOM     15  C   UNL     1       3.000   7.100  17.578  0.00  0.00    +0.000 C 
ENDROOT
BRANCH   1  16
ATOM     16  C   UNL     1       4.019   4.940  18.239  0.00  0.00    +0.000 C 
BRANCH  16  21
ATOM     17  N   UNL     1       6.201   5.233  16.944  0.00  0.00    +0.000 N 
ATOM     18  N   UNL     1       7.515   5.039  17.155  0.00  0.00    +0.000 NA
ATOM     19  N   UNL     1       7.603   4.485  18.354  0.00  0.00    +0.000 NA
ATOM     20  N   UNL     1       6.363   4.346  18.917  0.00  0.00    +0.000 NA
ATOM     21  C   UNL     1       5.495   4.846  18.059  0.00  0.00    +0.000 A 
BRANCH  17  22
ATOM     22  C   UNL     1       5.758   5.893  15.734  0.00  0.00    +0.000 C 
BRANCH  22  27
ATOM     23  F   UNL     1       7.378   2.885  11.235  0.00  0.00    +0.000 F 
ATOM     24  C   UNL     1       6.963   3.631  12.267  0.00  0.00    +0.000 A 
ATOM     25  C   UNL     1       7.753   4.684  12.712  0.00  0.00    +0.000 A 
ATOM     26  C   UNL     1       7.340   5.443  13.811  0.00  0.00    +0.000 A 
ATOM     27  C   UNL     1       6.134   5.152  14.469  0.00  0.00    +0.000 A 
ATOM     28  C   UNL     1       5.344   4.092  13.988  0.00  0.00    +0.000 A 
ATOM     29  C   UNL     1       5.758   3.334  12.889  0.00  0.00    +0.000 A 
ENDBRANCH  22  27
ENDBRANCH  17  22
ENDBRANCH  16  21
ENDBRANCH   1  16
TORSDOF 4
ENDMDL
MODEL 6
REMARK VINA RESULT:      -8.2      2.898      3.815
REMARK  Name = 
REMARK  4 active torsions:
REMARK  status: ('A' for Active; 'I' for Inactive)
REMARK    1  A    between atoms: C_5  and  C_6
REMARK    2  A    between atoms: C_6  and  N_7
REMARK    3  A    between atoms: C_11  and  C_12
REMARK    4  A    between atoms: C_12  and  N_13
REMARK                            x       y       z     vdW  Elec       q    Type
REMARK                         _______ _______ _______ _____ _____    ______ ____
ROOT
ATOM      1  N   UNL     1       2.299   7.273  18.336  0.00  0.00    +0.000 NA
ATOM      2  C   UNL     1       2.278   8.610  17.726  0.00  0.00    +0.000 C 
ATOM      3  C   UNL     1       1.077   9.448  18.219  0.00  0.00    +0.000 C 
ATOM      4  N   UNL     1       1.041   9.534  19.692  0.00  0.00    +0.000 N 
ATOM      5  C   UNL     1       0.265  10.490  20.293  0.00  0.00    +0.000 A 
ATOM      6  N   UNL     1      -0.277  10.373  21.488  0.00  0.00    +0.000 NA
ATOM      7  C   UNL     1      -0.935  11.541  21.860  0.00  0.00    +0.000 A 
ATOM      8  C   UNL     1      -1.610  11.778  23.076  0.00  0.00    +0.000 A 
ATOM      9  C   UNL     1      -2.203  13.028  23.314  0.00  0.00    +0.000 A 
ATOM     10  C   UNL     1      -2.141  14.034  22.355  0.00  0.00    +0.000 A 
ATOM     11  C   UNL     1      -1.495  13.818  21.136  0.00  0.00    +0.000 A 
ATOM     12  C   UNL     1      -0.897  12.566  20.918  0.00  0.00    +0.000 A 
ATOM     13  S   UNL     1      -0.030  12.030  19.549  0.00  0.00    +0.000 S 
ATOM     14  C   UNL     1       1.160   8.224  20.362  0.00  0.00    +0.000 C 
ATOM     15  C   UNL     1       2.375   7.432  19.808  0.00  0.00    +0.000 C 
ENDROOT
BRANCH   1  16
ATOM     16  C   UNL     1       3.323   6.374  17.779  0.00  0.00    +0.000 C 
BRANCH  16  21
ATOM     17  N   UNL     1       3.860   3.902  17.420  0.00  0.00    +0.000 N 
ATOM     18  N   UNL     1       3.385   2.713  17.831  0.00  0.00    +0.000 NA
ATOM     19  N   UNL     1       2.315   2.991  18.557  0.00  0.00    +0.000 NA
ATOM     20  N   UNL     1       2.117   4.344  18.632  0.00  0.00    +0.000 NA
ATOM     21  C   UNL     1       3.098   4.911  17.960  0.00  0.00    +0.000 A 
BRANCH  17  22
ATOM     22  C   UNL     1       5.084   3.958  16.647  0.00  0.00    +0.000 C 
BRANCH  22  27
ATOM     23  F   UNL     1       8.659   7.696  18.918  0.00  0.00    +0.000 F 
ATOM     24  C   UNL     1       7.856   6.778  18.365  0.00  0.00    +0.000 A 
ATOM     25  C   UNL     1       7.429   6.943  17.053  0.00  0.00    +0.000 A 
ATOM     26  C   UNL     1       6.562   6.005  16.483  0.00  0.00    +0.000 A 
ATOM     27  C   UNL     1       6.120   4.897  17.225  0.00  0.00    +0.000 A 
ATOM     28  C   UNL     1       6.582   4.744  18.545  0.00  0.00    +0.000 A 
ATOM     29  C   UNL     1       7.448   5.682  19.113  0.00  0.00    +0.000 A 
ENDBRANCH  22  27
ENDBRANCH  17  22
ENDBRANCH  16  21
ENDBRANCH   1  16
TORSDOF 4
ENDMDL
MODEL 7
REMARK VINA RESULT:      -8.1      2.090      3.130
REMARK  Name = 
REMARK  4 active torsions:
REMARK  status: ('A' for Active; 'I' for Inactive)
REMARK    1  A    between atoms: C_5  and  C_6
REMARK    2  A    between atoms: C_6  and  N_7
REMARK    3  A    between atoms: C_11  and  C_12
REMARK    4  A    between atoms: C_12  and  N_13
REMARK                            x       y       z     vdW  Elec       q    Type
REMARK                         _______ _______ _______ _____ _____    ______ ____
ROOT
ATOM      1  N   UNL     1       2.083   7.439  18.423  0.00  0.00    +0.000 NA
ATOM      2  C   UNL     1       2.226   8.771  17.817  0.00  0.00    +0.000 C 
ATOM      3  C   UNL     1       1.122   9.741  18.297  0.00  0.00    +0.000 C 
ATOM      4  N   UNL     1       1.075   9.827  19.770  0.00  0.00    +0.000 N 
ATOM      5  C   UNL     1       0.406  10.865  20.363  0.00  0.00    +0.000 A 
ATOM      6  N   UNL     1      -0.164  10.809  21.550  0.00  0.00    +0.000 NA
ATOM      7  C   UNL     1      -0.688  12.044  21.917  0.00  0.00    +0.000 A 
ATOM      8  C   UNL     1      -1.348  12.355  23.124  0.00  0.00    +0.000 A 
ATOM      9  C   UNL     1      -1.796  13.664  23.359  0.00  0.00    +0.000 A 
ATOM     10  C   UNL     1      -1.604  14.659  22.406  0.00  0.00    +0.000 A 
ATOM     11  C   UNL     1      -0.968  14.373  21.194  0.00  0.00    +0.000 A 
ATOM     12  C   UNL     1      -0.517  13.060  20.980  0.00  0.00    +0.000 A 
ATOM     13  S   UNL     1       0.302  12.431  19.621  0.00  0.00    +0.000 S 
ATOM     14  C   UNL     1       1.031   8.511  20.435  0.00  0.00    +0.000 C 
ATOM     15  C   UNL     1       2.155   7.585  19.896  0.00  0.00    +0.000 C 
ENDROOT
BRANCH   1  16
ATOM     16  C   UNL     1       3.004   6.428  17.876  0.00  0.00    +0.000 C 
BRANCH  16  21
ATOM     17  N   UNL     1       3.496   3.956  18.288  0.00  0.00    +0.000 N 
ATOM     18  N   UNL     1       2.798   2.822  18.474  0.00  0.00    +0.000 NA
ATOM     19  N   UNL     1       1.528   3.159  18.318  0.00  0.00    +0.000 NA
ATOM     20  N   UNL     1       1.409   4.498  18.060  0.00  0.00    +0.000 NA
ATOM     21  C   UNL     1       2.627   5.001  18.081  0.00  0.00    +0.000 A 
BRANCH  17  22
ATOM     22  C   UNL     1       4.935   3.949  18.457  0.00  0.00    +0.000 C 
BRANCH  22  27
ATOM     23  F   UNL     1       7.538   5.184  13.598  0.00  0.00    +0.000 F 
ATOM     24  C   UNL     1       6.956   4.848  14.756  0.00  0.00    +0.000 A 
ATOM     25  C   UNL     1       5.826   4.039  14.746  0.00  0.00    +0.000 A 
ATOM     26  C   UNL     1       5.196   3.714  15.951  0.00  0.00    +0.000 A 
ATOM     27  C   UNL     1       5.695   4.197  17.172  0.00  0.00    +0.000 A 
ATOM     28  C   UNL     1       6.850   4.999  17.157  0.00  0.00    +0.000 A 
ATOM     29  C   UNL     1       7.479   5.323  15.951  0.00  0.00    +0.000 A 
ENDBRANCH  22  27
ENDBRANCH  17  22
ENDBRANCH  16  21
ENDBRANCH   1  16
TORSDOF 4
ENDMDL
MODEL 8
REMARK VINA RESULT:      -8.0      2.067      3.308
REMARK  Name = 
REMARK  4 active torsions:
REMARK  status: ('A' for Active; 'I' for Inactive)
REMARK    1  A    between atoms: C_5  and  C_6
REMARK    2  A    between atoms: C_6  and  N_7
REMARK    3  A    between atoms: C_11  and  C_12
REMARK    4  A    between atoms: C_12  and  N_13
REMARK                            x       y       z     vdW  Elec       q    Type
REMARK                         _______ _______ _______ _____ _____    ______ ____
ROOT
ATOM      1  N   UNL     1       2.829   7.580  18.590  0.00  0.00    +0.000 NA
ATOM      2  C   UNL     1       2.206   7.109  19.835  0.00  0.00    +0.000 C 
ATOM      3  C   UNL     1       1.760   8.284  20.734  0.00  0.00    +0.000 C 
ATOM      4  N   UNL     1       0.871   9.215  20.012  0.00  0.00    +0.000 N 
ATOM      5  C   UNL     1       0.119  10.114  20.721  0.00  0.00    +0.000 A 
ATOM      6  N   UNL     1      -0.275  11.287  20.265  0.00  0.00    +0.000 NA
ATOM      7  C   UNL     1      -1.097  11.935  21.182  0.00  0.00    +0.000 A 
ATOM      8  C   UNL     1      -1.711  13.194  21.021  0.00  0.00    +0.000 A 
ATOM      9  C   UNL     1      -2.541  13.701  22.033  0.00  0.00    +0.000 A 
ATOM     10  C   UNL     1      -2.754  12.978  23.202  0.00  0.00    +0.000 A 
ATOM     11  C   UNL     1      -2.142  11.736  23.394  0.00  0.00    +0.000 A 
ATOM     12  C   UNL     1      -1.324  11.238  22.366  0.00  0.00    +0.000 A 
ATOM     13  S   UNL     1      -0.475   9.758  22.313  0.00  0.00    +0.000 S 
ATOM     14  C   UNL     1       1.404   9.644  18.705  0.00  0.00    +0.000 C 
ATOM     15  C   UNL     1       1.846   8.417  17.862  0.00  0.00    +0.000 C 
ENDROOT
BRANCH   1  16
ATOM     16  C   UNL     1       3.423   6.509  17.772  0.00  0.00    +0.000 C 
BRANCH  16  21
ATOM     17  N   UNL     1       3.386   3.959  17.920  0.00  0.00    +0.000 N 
ATOM     18  N   UNL     1       2.464   2.982  17.990  0.00  0.00    +0.000 NA
ATOM     19  N   UNL     1       1.295   3.590  17.879  0.00  0.00    +0.000 NA
ATOM     20  N   UNL     1       1.460   4.944  17.763  0.00  0.00    +0.000 NA
ATOM     21  C   UNL     1       2.755   5.177  17.828  0.00  0.00    +0.000 A 
BRANCH  17  22
ATOM     22  C   UNL     1       4.788   3.636  18.077  0.00  0.00    +0.000 C 
BRANCH  22  27
ATOM     23  F   UNL     1       7.698   5.288  13.526  0.00  0.00    +0.000 F 
ATOM     24  C   UNL     1       7.044   4.853  14.611  0.00  0.00    +0.000 A 
ATOM     25  C   UNL     1       5.926   4.042  14.456  0.00  0.00    +0.000 A 
ATOM     26  C   UNL     1       5.220   3.613  15.584  0.00  0.00    +0.000 A 
ATOM     27  C   UNL     1       5.630   3.995  16.872  0.00  0.00    +0.000 A 
ATOM     28  C   UNL     1       6.775   4.801  17.002  0.00  0.00    +0.000 A 
ATOM     29  C   UNL     1       7.480   5.228  15.874  0.00  0.00    +0.000 A 
ENDBRANCH  22  27
ENDBRANCH  17  22
ENDBRANCH  16  21
ENDBRANCH   1  16
TORSDOF 4
ENDMDL
MODEL 9
REMARK VINA RESULT:      -8.0      3.453      4.765
REMARK  Name = 
REMARK  4 active torsions:
REMARK  status: ('A' for Active; 'I' for Inactive)
REMARK    1  A    between atoms: C_5  and  C_6
REMARK    2  A    between atoms: C_6  and  N_7
REMARK    3  A    between atoms: C_11  and  C_12
REMARK    4  A    between atoms: C_12  and  N_13
REMARK                            x       y       z     vdW  Elec       q    Type
REMARK                         _______ _______ _______ _____ _____    ______ ____
ROOT
ATOM      1  N   UNL     1       2.948   6.907  17.683  0.00  0.00    +0.000 NA
ATOM      2  C   UNL     1       2.917   8.325  17.297  0.00  0.00    +0.000 C 
ATOM      3  C   UNL     1       1.694   9.057  17.895  0.00  0.00    +0.000 C 
ATOM      4  N   UNL     1       1.631   8.903  19.362  0.00  0.00    +0.000 N 
ATOM      5  C   UNL     1       0.830   9.738  20.093  0.00  0.00    +0.000 A 
ATOM      6  N   UNL     1       0.268   9.423  21.243  0.00  0.00    +0.000 NA
ATOM      7  C   UNL     1      -0.415  10.507  21.786  0.00  0.00    +0.000 A 
ATOM      8  C   UNL     1      -1.114  10.535  23.010  0.00  0.00    +0.000 A 
ATOM      9  C   UNL     1      -1.730  11.722  23.435  0.00  0.00    +0.000 A 
ATOM     10  C   UNL     1      -1.668  12.872  22.653  0.00  0.00    +0.000 A 
ATOM     11  C   UNL     1      -0.996  12.865  21.428  0.00  0.00    +0.000 A 
ATOM     12  C   UNL     1      -0.375  11.671  21.022  0.00  0.00    +0.000 A 
ATOM     13  S   UNL     1       0.524  11.375  19.602  0.00  0.00    +0.000 S 
ATOM     14  C   UNL     1       1.758   7.503  19.812  0.00  0.00    +0.000 C 
ATOM     15  C   UNL     1       2.996   6.827  19.162  0.00  0.00    +0.000 C 
ENDROOT
BRANCH   1  16
ATOM     16  C   UNL     1       3.996   6.123  17.008  0.00  0.00    +0.000 C 
BRANCH  16  21
ATOM     17  N   UNL     1       5.291   4.441  18.428  0.00  0.00    +0.000 N 
ATOM     18  N   UNL     1       6.468   4.387  19.078  0.00  0.00    +0.000 NA
ATOM     19  N   UNL     1       6.998   5.593  18.950  0.00  0.00    +0.000 NA
ATOM     20  N   UNL     1       6.185   6.405  18.206  0.00  0.00    +0.000 NA
ATOM     21  C   UNL     1       5.144   5.679  17.848  0.00  0.00    +0.000 A 
BRANCH  17  22
ATOM     22  C   UNL     1       4.477   3.249  18.319  0.00  0.00    +0.000 C 
BRANCH  22  27
ATOM     23  F   UNL     1       0.564   2.390  22.302  0.00  0.00    +0.000 F 
ATOM     24  C   UNL     1       1.503   2.644  21.381  0.00  0.00    +0.000 A 
ATOM     25  C   UNL     1       1.133   3.193  20.159  0.00  0.00    +0.000 A 
ATOM     26  C   UNL     1       2.105   3.427  19.182  0.00  0.00    +0.000 A 
ATOM     27  C   UNL     1       3.453   3.114  19.425  0.00  0.00    +0.000 A 
ATOM     28  C   UNL     1       3.804   2.576  20.676  0.00  0.00    +0.000 A 
ATOM     29  C   UNL     1       2.830   2.343  21.652  0.00  0.00    +0.000 A 
ENDBRANCH  22  27
ENDBRANCH  17  22
ENDBRANCH  16  21
ENDBRANCH   1  16
TORSDOF 4
ENDMDL
