MODEL 1
REMARK VINA RESULT:      -7.6      0.000      0.000
REMARK  Name = 
REMARK  11 active torsions:
REMARK  status: ('A' for Active; 'I' for Inactive)
REMARK    1  A    between atoms: C_1  and  C_2
REMARK    2  A    between atoms: C_2  and  N_3
REMARK    3  A    between atoms: N_3  and  C_4
REMARK    4  A    between atoms: N_3  and  C_6
REMARK    5  A    between atoms: C_4  and  C_5
REMARK    6  A    between atoms: C_6  and  C_7
REMARK    7  A    between atoms: C_6  and  C_21
REMARK    8  A    between atoms: C_7  and  N_8
REMARK    9  A    between atoms: N_8  and  S_9
REMARK   10  A    between atoms: S_9  and  C_12
REMARK   11  A    between atoms: C_15  and  C_16
REMARK                            x       y       z     vdW  Elec       q    Type
REMARK                         _______ _______ _______ _____ _____    ______ ____
ROOT
ATOM      1  N   UNL     1       4.642   3.045  17.244  0.00  0.00    +0.000 NA
ATOM      2  H   UNL     1       5.272   2.622  17.928  0.00  0.00    +0.000 HD
ENDROOT
BRANCH   1   3
ATOM      3  S   UNL     1       3.085   2.904  17.886  0.00  0.00    +0.000 S 
ATOM      4  O   UNL     1       2.206   2.854  16.740  0.00  0.00    +0.000 OA
ATOM      5  O   UNL     1       3.107   1.856  18.878  0.00  0.00    +0.000 OA
BRANCH   3   6
ATOM      6  C   UNL     1       2.733   4.433  18.720  0.00  0.00    +0.000 A 
ATOM      7  C   UNL     1       2.532   4.496  20.097  0.00  0.00    +0.000 A 
ATOM      8  C   UNL     1       2.168   5.710  20.700  0.00  0.00    +0.000 A 
ATOM      9  C   UNL     1       2.034   6.870  19.928  0.00  0.00    +0.000 A 
ATOM     10  C   UNL     1       2.293   6.804  18.551  0.00  0.00    +0.000 A 
ATOM     11  C   UNL     1       2.632   5.592  17.946  0.00  0.00    +0.000 A 
BRANCH   9  12
ATOM     12  C   UNL     1       1.641   8.202  20.489  0.00  0.00    +0.000 C 
ATOM     13  N   UNL     1       1.728   8.399  21.842  0.00  0.00    +0.000 N 
ATOM     14  O   UNL     1       1.240   9.102  19.771  0.00  0.00    +0.000 OA
ATOM     15  H   UNL     1       2.033   7.726  22.521  0.00  0.00    +0.000 HD
ATOM     16  H   UNL     1       1.441   9.312  22.174  0.00  0.00    +0.000 HD
ENDBRANCH   9  12
ENDBRANCH   3   6
ENDBRANCH   1   3
BRANCH   1  17
ATOM     17  C   UNL     1       5.088   4.383  16.755  0.00  0.00    +0.000 C 
BRANCH  17  18
ATOM     18  C   UNL     1       6.636   4.465  16.409  0.00  0.00    +0.000 C 
BRANCH  18  19
ATOM     19  C   UNL     1       6.765   4.498  14.896  0.00  0.00    +0.000 A 
ATOM     20  C   UNL     1       6.156   3.821  13.854  0.00  0.00    +0.000 A 
ATOM     21  C   UNL     1       6.826   4.210  12.670  0.00  0.00    +0.000 A 
ATOM     22  C   UNL     1       7.740   5.164  13.045  0.00  0.00    +0.000 A 
ATOM     23  O   UNL     1       7.718   5.342  14.391  0.00  0.00    +0.000 OA
ENDBRANCH  18  19
BRANCH  18  24
ATOM     24  N   UNL     1       7.440   5.539  17.094  0.00  0.00    +0.000 NA
BRANCH  24  26
ATOM     25  C   UNL     1       7.595   8.055  17.480  0.00  0.00    +0.000 C 
ATOM     26  C   UNL     1       6.749   6.847  17.066  0.00  0.00    +0.000 C 
ENDBRANCH  24  26
BRANCH  24  27
ATOM     27  C   UNL     1       7.827   5.173  18.480  0.00  0.00    +0.000 C 
ATOM     28  C   UNL     1       6.786   5.379  19.582  0.00  0.00    +0.000 C 
ENDBRANCH  24  27
ENDBRANCH  18  24
ENDBRANCH  17  18
ENDBRANCH   1  17
TORSDOF 9
ENDMDL
MODEL 2
REMARK VINA RESULT:      -7.5      2.698      7.065
REMARK  Name = 
REMARK  11 active torsions:
REMARK  status: ('A' for Active; 'I' for Inactive)
REMARK    1  A    between atoms: C_1  and  C_2
REMARK    2  A    between atoms: C_2  and  N_3
REMARK    3  A    between atoms: N_3  and  C_4
REMARK    4  A    between atoms: N_3  and  C_6
REMARK    5  A    between atoms: C_4  and  C_5
REMARK    6  A    between atoms: C_6  and  C_7
REMARK    7  A    between atoms: C_6  and  C_21
REMARK    8  A    between atoms: C_7  and  N_8
REMARK    9  A    between atoms: N_8  and  S_9
REMARK   10  A    between atoms: S_9  and  C_12
REMARK   11  A    between atoms: C_15  and  C_16
REMARK                            x       y       z     vdW  Elec       q    Type
REMARK                         _______ _______ _______ _____ _____    ______ ____
ROOT
ATOM      1  N   UNL     1       5.554   6.469  17.562  0.00  0.00    +0.000 NA
ATOM      2  H   UNL     1       5.677   7.462  17.766  0.00  0.00    +0.000 HD
ENDROOT
BRANCH   1   3
ATOM      3  S   UNL     1       7.036   5.922  16.962  0.00  0.00    +0.000 S 
ATOM      4  O   UNL     1       7.745   7.114  16.558  0.00  0.00    +0.000 OA
ATOM      5  O   UNL     1       7.587   4.993  17.920  0.00  0.00    +0.000 OA
BRANCH   3   6
ATOM      6  C   UNL     1       6.685   5.018  15.473  0.00  0.00    +0.000 A 
ATOM      7  C   UNL     1       7.409   5.214  14.300  0.00  0.00    +0.000 A 
ATOM      8  C   UNL     1       7.039   4.543  13.124  0.00  0.00    +0.000 A 
ATOM      9  C   UNL     1       5.958   3.652  13.130  0.00  0.00    +0.000 A 
ATOM     10  C   UNL     1       5.273   3.423  14.331  0.00  0.00    +0.000 A 
ATOM     11  C   UNL     1       5.626   4.107  15.496  0.00  0.00    +0.000 A 
BRANCH   9  12
ATOM     12  C   UNL     1       5.492   2.903  11.920  0.00  0.00    +0.000 C 
ATOM     13  N   UNL     1       6.216   1.820  11.493  0.00  0.00    +0.000 N 
ATOM     14  O   UNL     1       4.494   3.242  11.307  0.00  0.00    +0.000 OA
ATOM     15  H   UNL     1       7.055   1.465  11.916  0.00  0.00    +0.000 HD
ATOM     16  H   UNL     1       5.867   1.354  10.665  0.00  0.00    +0.000 HD
ENDBRANCH   9  12
ENDBRANCH   3   6
ENDBRANCH   1   3
BRANCH   1  17
ATOM     17  C   UNL     1       4.910   5.699  18.667  0.00  0.00    +0.000 C 
BRANCH  17  18
ATOM     18  C   UNL     1       3.594   4.921  18.236  0.00  0.00    +0.000 C 
BRANCH  18  19
ATOM     19  C   UNL     1       3.818   3.447  18.530  0.00  0.00    +0.000 A 
ATOM     20  C   UNL     1       3.513   2.268  17.872  0.00  0.00    +0.000 A 
ATOM     21  C   UNL     1       3.868   1.212  18.746  0.00  0.00    +0.000 A 
ATOM     22  C   UNL     1       4.448   1.803  19.843  0.00  0.00    +0.000 A 
ATOM     23  O   UNL     1       4.416   3.156  19.726  0.00  0.00    +0.000 OA
ENDBRANCH  18  19
BRANCH  18  24
ATOM     24  N   UNL     1       2.283   5.436  18.766  0.00  0.00    +0.000 NA
BRANCH  24  26
ATOM     25  C   UNL     1       1.035   4.088  20.536  0.00  0.00    +0.000 C 
ATOM     26  C   UNL     1       1.335   4.338  19.053  0.00  0.00    +0.000 C 
ENDBRANCH  24  26
BRANCH  24  27
ATOM     27  C   UNL     1       2.447   6.319  19.949  0.00  0.00    +0.000 C 
ATOM     28  C   UNL     1       1.956   7.763  19.826  0.00  0.00    +0.000 C 
ENDBRANCH  24  27
ENDBRANCH  18  24
ENDBRANCH  17  18
ENDBRANCH   1  17
TORSDOF 9
ENDMDL
MODEL 3
REMARK VINA RESULT:      -7.4      2.672      7.309
REMARK  Name = 
REMARK  11 active torsions:
REMARK  status: ('A' for Active; 'I' for Inactive)
REMARK    1  A    between atoms: C_1  and  C_2
REMARK    2  A    between atoms: C_2  and  N_3
REMARK    3  A    between atoms: N_3  and  C_4
REMARK    4  A    between atoms: N_3  and  C_6
REMARK    5  A    between atoms: C_4  and  C_5
REMARK    6  A    between atoms: C_6  and  C_7
REMARK    7  A    between atoms: C_6  and  C_21
REMARK    8  A    between atoms: C_7  and  N_8
REMARK    9  A    between atoms: N_8  and  S_9
REMARK   10  A    between atoms: S_9  and  C_12
REMARK   11  A    between atoms: C_15  and  C_16
REMARK                            x       y       z     vdW  Elec       q    Type
REMARK                         _______ _______ _______ _____ _____    ______ ____
ROOT
ATOM      1  N   UNL     1       5.329   5.059  19.013  0.00  0.00    +0.000 NA
ATOM      2  H   UNL     1       5.158   4.054  18.953  0.00  0.00    +0.000 HD
ENDROOT
BRANCH   1   3
ATOM      3  S   UNL     1       6.734   5.354  18.122  0.00  0.00    +0.000 S 
ATOM      4  O   UNL     1       6.846   6.794  18.055  0.00  0.00    +0.000 OA
ATOM      5  O   UNL     1       7.787   4.531  18.667  0.00  0.00    +0.000 OA
BRANCH   3   6
ATOM      6  C   UNL     1       6.417   4.799  16.464  0.00  0.00    +0.000 A 
ATOM      7  C   UNL     1       5.311   4.016  16.144  0.00  0.00    +0.000 A 
ATOM      8  C   UNL     1       5.149   3.526  14.839  0.00  0.00    +0.000 A 
ATOM      9  C   UNL     1       6.083   3.844  13.844  0.00  0.00    +0.000 A 
ATOM     10  C   UNL     1       7.162   4.678  14.168  0.00  0.00    +0.000 A 
ATOM     11  C   UNL     1       7.337   5.148  15.471  0.00  0.00    +0.000 A 
BRANCH   9  12
ATOM     12  C   UNL     1       5.991   3.357  12.431  0.00  0.00    +0.000 C 
ATOM     13  N   UNL     1       7.134   2.938  11.802  0.00  0.00    +0.000 N 
ATOM     14  O   UNL     1       4.928   3.336  11.833  0.00  0.00    +0.000 OA
ATOM     15  H   UNL     1       8.057   2.924  12.196  0.00  0.00    +0.000 HD
ATOM     16  H   UNL     1       7.022   2.628  10.844  0.00  0.00    +0.000 HD
ENDBRANCH   9  12
ENDBRANCH   3   6
ENDBRANCH   1   3
BRANCH   1  17
ATOM     17  C   UNL     1       4.125   5.896  18.734  0.00  0.00    +0.000 C 
BRANCH  17  18
ATOM     18  C   UNL     1       2.950   5.716  19.787  0.00  0.00    +0.000 C 
BRANCH  18  19
ATOM     19  C   UNL     1       2.257   7.060  19.934  0.00  0.00    +0.000 A 
ATOM     20  C   UNL     1       1.588   7.701  20.961  0.00  0.00    +0.000 A 
ATOM     21  C   UNL     1       1.046   8.889  20.414  0.00  0.00    +0.000 A 
ATOM     22  C   UNL     1       1.490   8.948  19.116  0.00  0.00    +0.000 A 
ATOM     23  O   UNL     1       2.219   7.843  18.811  0.00  0.00    +0.000 OA
ENDBRANCH  18  19
BRANCH  18  24
ATOM     24  N   UNL     1       1.990   4.578  19.562  0.00  0.00    +0.000 NA
BRANCH  24  26
ATOM     25  C   UNL     1       2.211   2.856  17.693  0.00  0.00    +0.000 C 
ATOM     26  C   UNL     1       1.823   4.275  18.124  0.00  0.00    +0.000 C 
ENDBRANCH  24  26
BRANCH  24  27
ATOM     27  C   UNL     1       2.356   3.356  20.323  0.00  0.00    +0.000 C 
ATOM     28  C   UNL     1       1.345   2.831  21.344  0.00  0.00    +0.000 C 
ENDBRANCH  24  27
ENDBRANCH  18  24
ENDBRANCH  17  18
ENDBRANCH   1  17
TORSDOF 9
ENDMDL
MODEL 4
REMARK VINA RESULT:      -7.4      2.620      6.957
REMARK  Name = 
REMARK  11 active torsions:
REMARK  status: ('A' for Active; 'I' for Inactive)
REMARK    1  A    between atoms: C_1  and  C_2
REMARK    2  A    between atoms: C_2  and  N_3
REMARK    3  A    between atoms: N_3  and  C_4
REMARK    4  A    between atoms: N_3  and  C_6
REMARK    5  A    between atoms: C_4  and  C_5
REMARK    6  A    between atoms: C_6  and  C_7
REMARK    7  A    between atoms: C_6  and  C_21
REMARK    8  A    between atoms: C_7  and  N_8
REMARK    9  A    between atoms: N_8  and  S_9
REMARK   10  A    between atoms: S_9  and  C_12
REMARK   11  A    between atoms: C_15  and  C_16
REMARK                            x       y       z     vdW  Elec       q    Type
REMARK                         _______ _______ _______ _____ _____    ______ ____
ROOT
ATOM      1  N   UNL     1       5.574   6.682  17.885  0.00  0.00    +0.000 NA
ATOM      2  H   UNL     1       5.704   7.619  18.270  0.00  0.00    +0.000 HD
ENDROOT
BRANCH   1   3
ATOM      3  S   UNL     1       7.061   6.232  17.221  0.00  0.00    +0.000 S 
ATOM      4  O   UNL     1       7.662   7.465  16.768  0.00  0.00    +0.000 OA
ATOM      5  O   UNL     1       7.722   5.360  18.162  0.00  0.00    +0.000 OA
BRANCH   3   6
ATOM      6  C   UNL     1       6.705   5.282  15.762  0.00  0.00    +0.000 A 
ATOM      7  C   UNL     1       7.623   5.148  14.723  0.00  0.00    +0.000 A 
ATOM      8  C   UNL     1       7.265   4.464  13.551  0.00  0.00    +0.000 A 
ATOM      9  C   UNL     1       5.995   3.886  13.431  0.00  0.00    +0.000 A 
ATOM     10  C   UNL     1       5.101   3.981  14.506  0.00  0.00    +0.000 A 
ATOM     11  C   UNL     1       5.447   4.682  15.663  0.00  0.00    +0.000 A 
BRANCH   9  12
ATOM     12  C   UNL     1       5.530   3.147  12.214  0.00  0.00    +0.000 C 
ATOM     13  N   UNL     1       6.375   2.241  11.629  0.00  0.00    +0.000 N 
ATOM     14  O   UNL     1       4.426   3.343  11.733  0.00  0.00    +0.000 OA
ATOM     15  H   UNL     1       7.304   2.012  11.935  0.00  0.00    +0.000 HD
ATOM     16  H   UNL     1       6.019   1.775  10.803  0.00  0.00    +0.000 HD
ENDBRANCH   9  12
ENDBRANCH   3   6
ENDBRANCH   1   3
BRANCH   1  17
ATOM     17  C   UNL     1       4.899   5.732  18.819  0.00  0.00    +0.000 C 
BRANCH  17  18
ATOM     18  C   UNL     1       3.428   5.323  18.379  0.00  0.00    +0.000 C 
BRANCH  18  19
ATOM     19  C   UNL     1       3.355   3.806  18.386  0.00  0.00    +0.000 A 
ATOM     20  C   UNL     1       4.079   2.801  19.002  0.00  0.00    +0.000 A 
ATOM     21  C   UNL     1       3.594   1.575  18.486  0.00  0.00    +0.000 A 
ATOM     22  C   UNL     1       2.547   1.898  17.657  0.00  0.00    +0.000 A 
ATOM     23  O   UNL     1       2.398   3.246  17.583  0.00  0.00    +0.000 OA
ENDBRANCH  18  19
BRANCH  18  24
ATOM     24  N   UNL     1       2.284   5.974  19.110  0.00  0.00    +0.000 NA
BRANCH  24  26
ATOM     25  C   UNL     1       0.972   4.326  20.549  0.00  0.00    +0.000 C 
ATOM     26  C   UNL     1       2.079   5.382  20.450  0.00  0.00    +0.000 C 
ENDBRANCH  24  26
BRANCH  24  27
ATOM     27  C   UNL     1       2.421   7.450  19.196  0.00  0.00    +0.000 C 
ATOM     28  C   UNL     1       2.280   8.250  17.900  0.00  0.00    +0.000 C 
ENDBRANCH  24  27
ENDBRANCH  18  24
ENDBRANCH  17  18
ENDBRANCH   1  17
TORSDOF 9
ENDMDL
MODEL 5
REMARK VINA RESULT:      -7.4      2.728      7.110
REMARK  Name = 
REMARK  11 active torsions:
REMARK  status: ('A' for Active; 'I' for Inactive)
REMARK    1  A    between atoms: C_1  and  C_2
REMARK    2  A    between atoms: C_2  and  N_3
REMARK    3  A    between atoms: N_3  and  C_4
REMARK    4  A    between atoms: N_3  and  C_6
REMARK    5  A    between atoms: C_4  and  C_5
REMARK    6  A    between atoms: C_6  and  C_7
REMARK    7  A    between atoms: C_6  and  C_21
REMARK    8  A    between atoms: C_7  and  N_8
REMARK    9  A    between atoms: N_8  and  S_9
REMARK   10  A    between atoms: S_9  and  C_12
REMARK   11  A    between atoms: C_15  and  C_16
REMARK                            x       y       z     vdW  Elec       q    Type
REMARK                         _______ _______ _______ _____ _____    ______ ____
ROOT
ATOM      1  N   UNL     1       5.628   5.959  18.123  0.00  0.00    +0.000 NA
ATOM      2  H   UNL     1       5.468   6.946  18.332  0.00  0.00    +0.000 HD
ENDROOT
BRANCH   1   3
ATOM      3  S   UNL     1       7.059   5.892  17.227  0.00  0.00    +0.000 S 
ATOM      4  O   UNL     1       7.343   7.262  16.863  0.00  0.00    +0.000 OA
ATOM      5  O   UNL     1       8.004   5.085  17.961  0.00  0.00    +0.000 OA
BRANCH   3   6
ATOM      6  C   UNL     1       6.679   5.040  15.715  0.00  0.00    +0.000 A 
ATOM      7  C   UNL     1       7.428   5.221  14.555  0.00  0.00    +0.000 A 
ATOM      8  C   UNL     1       7.037   4.596  13.360  0.00  0.00    +0.000 A 
ATOM      9  C   UNL     1       5.910   3.765  13.334  0.00  0.00    +0.000 A 
ATOM     10  C   UNL     1       5.198   3.549  14.522  0.00  0.00    +0.000 A 
ATOM     11  C   UNL     1       5.572   4.188  15.706  0.00  0.00    +0.000 A 
BRANCH   9  12
ATOM     12  C   UNL     1       5.419   3.068  12.102  0.00  0.00    +0.000 C 
ATOM     13  N   UNL     1       6.094   1.962  11.657  0.00  0.00    +0.000 N 
ATOM     14  O   UNL     1       4.445   3.470  11.489  0.00  0.00    +0.000 OA
ATOM     15  H   UNL     1       6.910   1.556  12.078  0.00  0.00    +0.000 HD
ATOM     16  H   UNL     1       5.731   1.533  10.814  0.00  0.00    +0.000 HD
ENDBRANCH   9  12
ENDBRANCH   3   6
ENDBRANCH   1   3
BRANCH   1  17
ATOM     17  C   UNL     1       5.489   5.059  19.305  0.00  0.00    +0.000 C 
BRANCH  17  18
ATOM     18  C   UNL     1       3.994   4.870  19.807  0.00  0.00    +0.000 C 
BRANCH  18  19
ATOM     19  C   UNL     1       3.139   5.903  19.094  0.00  0.00    +0.000 A 
ATOM     20  C   UNL     1       2.538   5.977  17.850  0.00  0.00    +0.000 A 
ATOM     21  C   UNL     1       1.993   7.278  17.738  0.00  0.00    +0.000 A 
ATOM     22  C   UNL     1       2.212   7.889  18.949  0.00  0.00    +0.000 A 
ATOM     23  O   UNL     1       2.912   7.069  19.776  0.00  0.00    +0.000 OA
ENDBRANCH  18  19
BRANCH  18  24
ATOM     24  N   UNL     1       3.416   3.481  19.745  0.00  0.00    +0.000 NA
BRANCH  24  26
ATOM     25  C   UNL     1       1.645   2.876  21.479  0.00  0.00    +0.000 C 
ATOM     26  C   UNL     1       1.981   3.465  20.104  0.00  0.00    +0.000 C 
ENDBRANCH  24  26
BRANCH  24  27
ATOM     27  C   UNL     1       3.644   2.820  18.435  0.00  0.00    +0.000 C 
ATOM     28  C   UNL     1       2.440   2.161  17.758  0.00  0.00    +0.000 C 
ENDBRANCH  24  27
ENDBRANCH  18  24
ENDBRANCH  17  18
ENDBRANCH   1  17
TORSDOF 9
ENDMDL
MODEL 6
REMARK VINA RESULT:      -7.3      2.655      7.074
REMARK  Name = 
REMARK  11 active torsions:
REMARK  status: ('A' for Active; 'I' for Inactive)
REMARK    1  A    between atoms: C_1  and  C_2
REMARK    2  A    between atoms: C_2  and  N_3
REMARK    3  A    between atoms: N_3  and  C_4
REMARK    4  A    between atoms: N_3  and  C_6
REMARK    5  A    between atoms: C_4  and  C_5
REMARK    6  A    between atoms: C_6  and  C_7
REMARK    7  A    between atoms: C_6  and  C_21
REMARK    8  A    between atoms: C_7  and  N_8
REMARK    9  A    between atoms: N_8  and  S_9
REMARK   10  A    between atoms: S_9  and  C_12
REMARK   11  A    between atoms: C_15  and  C_16
REMARK                            x       y       z     vdW  Elec       q    Type
REMARK                         _______ _______ _______ _____ _____    ______ ____
ROOT
ATOM      1  N   UNL     1       5.377   6.181  18.313  0.00  0.00    +0.000 NA
ATOM      2  H   UNL     1       5.387   7.028  18.883  0.00  0.00    +0.000 HD
ENDROOT
BRANCH   1   3
ATOM      3  S   UNL     1       6.838   6.166  17.463  0.00  0.00    +0.000 S 
ATOM      4  O   UNL     1       7.059   7.539  17.067  0.00  0.00    +0.000 OA
ATOM      5  O   UNL     1       7.801   5.432  18.248  0.00  0.00    +0.000 OA
BRANCH   3   6
ATOM      6  C   UNL     1       6.551   5.253  15.965  0.00  0.00    +0.000 A 
ATOM      7  C   UNL     1       7.508   5.166  14.957  0.00  0.00    +0.000 A 
ATOM      8  C   UNL     1       7.204   4.510  13.754  0.00  0.00    +0.000 A 
ATOM      9  C   UNL     1       5.950   3.914  13.571  0.00  0.00    +0.000 A 
ATOM     10  C   UNL     1       5.016   3.962  14.616  0.00  0.00    +0.000 A 
ATOM     11  C   UNL     1       5.309   4.635  15.805  0.00  0.00    +0.000 A 
BRANCH   9  12
ATOM     12  C   UNL     1       5.541   3.203  12.319  0.00  0.00    +0.000 C 
ATOM     13  N   UNL     1       6.349   2.208  11.831  0.00  0.00    +0.000 N 
ATOM     14  O   UNL     1       4.518   3.497  11.724  0.00  0.00    +0.000 OA
ATOM     15  H   UNL     1       7.214   1.896  12.234  0.00  0.00    +0.000 HD
ATOM     16  H   UNL     1       6.036   1.766  10.976  0.00  0.00    +0.000 HD
ENDBRANCH   9  12
ENDBRANCH   3   6
ENDBRANCH   1   3
BRANCH   1  17
ATOM     17  C   UNL     1       4.982   4.951  19.061  0.00  0.00    +0.000 C 
BRANCH  17  18
ATOM     18  C   UNL     1       3.524   5.013  19.690  0.00  0.00    +0.000 C 
BRANCH  18  19
ATOM     19  C   UNL     1       2.911   6.344  19.291  0.00  0.00    +0.000 A 
ATOM     20  C   UNL     1       2.291   7.374  19.978  0.00  0.00    +0.000 A 
ATOM     21  C   UNL     1       1.811   8.281  19.003  0.00  0.00    +0.000 A 
ATOM     22  C   UNL     1       2.241   7.802  17.790  0.00  0.00    +0.000 A 
ATOM     23  O   UNL     1       2.901   6.625  17.951  0.00  0.00    +0.000 OA
ENDBRANCH  18  19
BRANCH  18  24
ATOM     24  N   UNL     1       2.613   3.842  19.434  0.00  0.00    +0.000 NA
BRANCH  24  26
ATOM     25  C   UNL     1       3.321   1.765  18.134  0.00  0.00    +0.000 C 
ATOM     26  C   UNL     1       2.862   3.228  18.112  0.00  0.00    +0.000 C 
ENDBRANCH  24  26
BRANCH  24  27
ATOM     27  C   UNL     1       2.669   2.823  20.513  0.00  0.00    +0.000 C 
ATOM     28  C   UNL     1       1.473   2.732  21.462  0.00  0.00    +0.000 C 
ENDBRANCH  24  27
ENDBRANCH  18  24
ENDBRANCH  17  18
ENDBRANCH   1  17
TORSDOF 9
ENDMDL
MODEL 7
REMARK VINA RESULT:      -7.3      2.533      7.033
REMARK  Name = 
REMARK  11 active torsions:
REMARK  status: ('A' for Active; 'I' for Inactive)
REMARK    1  A    between atoms: C_1  and  C_2
REMARK    2  A    between atoms: C_2  and  N_3
REMARK    3  A    between atoms: N_3  and  C_4
REMARK    4  A    between atoms: N_3  and  C_6
REMARK    5  A    between atoms: C_4  and  C_5
REMARK    6  A    between atoms: C_6  and  C_7
REMARK    7  A    between atoms: C_6  and  C_21
REMARK    8  A    between atoms: C_7  and  N_8
REMARK    9  A    between atoms: N_8  and  S_9
REMARK   10  A    between atoms: S_9  and  C_12
REMARK   11  A    between atoms: C_15  and  C_16
REMARK                            x       y       z     vdW  Elec       q    Type
REMARK                         _______ _______ _______ _____ _____    ______ ____
ROOT
ATOM      1  N   UNL     1       5.673   6.595  17.835  0.00  0.00    +0.000 NA
ATOM      2  H   UNL     1       5.993   7.421  18.344  0.00  0.00    +0.000 HD
ENDROOT
BRANCH   1   3
ATOM      3  S   UNL     1       7.060   5.857  17.213  0.00  0.00    +0.000 S 
ATOM      4  O   UNL     1       7.934   6.945  16.840  0.00  0.00    +0.000 OA
ATOM      5  O   UNL     1       7.471   4.831  18.142  0.00  0.00    +0.000 OA
BRANCH   3   6
ATOM      6  C   UNL     1       6.581   5.056  15.701  0.00  0.00    +0.000 A 
ATOM      7  C   UNL     1       5.433   4.275  15.608  0.00  0.00    +0.000 A 
ATOM      8  C   UNL     1       5.142   3.589  14.419  0.00  0.00    +0.000 A 
ATOM      9  C   UNL     1       5.988   3.709  13.309  0.00  0.00    +0.000 A 
ATOM     10  C   UNL     1       7.112   4.543  13.399  0.00  0.00    +0.000 A 
ATOM     11  C   UNL     1       7.414   5.208  14.590  0.00  0.00    +0.000 A 
BRANCH   9  12
ATOM     12  C   UNL     1       5.757   3.007  12.007  0.00  0.00    +0.000 C 
ATOM     13  N   UNL     1       4.509   3.052  11.445  0.00  0.00    +0.000 N 
ATOM     14  O   UNL     1       6.650   2.392  11.449  0.00  0.00    +0.000 OA
ATOM     15  H   UNL     1       3.704   3.518  11.824  0.00  0.00    +0.000 HD
ATOM     16  H   UNL     1       4.400   2.553  10.571  0.00  0.00    +0.000 HD
ENDBRANCH   9  12
ENDBRANCH   3   6
ENDBRANCH   1   3
BRANCH   1  17
ATOM     17  C   UNL     1       4.703   5.754  18.595  0.00  0.00    +0.000 C 
BRANCH  17  18
ATOM     18  C   UNL     1       3.229   5.764  18.003  0.00  0.00    +0.000 C 
BRANCH  18  19
ATOM     19  C   UNL     1       2.668   4.360  18.148  0.00  0.00    +0.000 A 
ATOM     20  C   UNL     1       1.460   3.759  17.838  0.00  0.00    +0.000 A 
ATOM     21  C   UNL     1       1.516   2.444  18.357  0.00  0.00    +0.000 A 
ATOM     22  C   UNL     1       2.780   2.289  18.871  0.00  0.00    +0.000 A 
ATOM     23  O   UNL     1       3.485   3.446  18.757  0.00  0.00    +0.000 OA
ENDBRANCH  18  19
BRANCH  18  24
ATOM     24  N   UNL     1       2.292   6.830  18.505  0.00  0.00    +0.000 NA
BRANCH  24  26
ATOM     25  C   UNL     1       1.588   5.932  20.786  0.00  0.00    +0.000 C 
ATOM     26  C   UNL     1       2.362   6.978  19.975  0.00  0.00    +0.000 C 
ENDBRANCH  24  26
BRANCH  24  27
ATOM     27  C   UNL     1       2.491   8.137  17.829  0.00  0.00    +0.000 C 
ATOM     28  C   UNL     1       1.356   9.159  17.918  0.00  0.00    +0.000 C 
ENDBRANCH  24  27
ENDBRANCH  18  24
ENDBRANCH  17  18
ENDBRANCH   1  17
TORSDOF 9
ENDMDL
MODEL 8
REMARK VINA RESULT:      -7.3      2.648      7.028
REMARK  Name = 
REMARK  11 active torsions:
REMARK  status: ('A' for Active; 'I' for Inactive)
REMARK    1  A    between atoms: C_1  and  C_2
REMARK    2  A    between atoms: C_2  and  N_3
REMARK    3  A    between atoms: N_3  and  C_4
REMARK    4  A    between atoms: N_3  and  C_6
REMARK    5  A    between atoms: C_4  and  C_5
REMARK    6  A    between atoms: C_6  and  C_7
REMARK    7  A    between atoms: C_6  and  C_21
REMARK    8  A    between atoms: C_7  and  N_8
REMARK    9  A    between atoms: N_8  and  S_9
REMARK   10  A    between atoms: S_9  and  C_12
REMARK   11  A    between atoms: C_15  and  C_16
REMARK                            x       y       z     vdW  Elec       q    Type
REMARK                         _______ _______ _______ _____ _____    ______ ____
ROOT
ATOM      1  N   UNL     1       5.612   6.223  18.234  0.00  0.00    +0.000 NA
ATOM      2  H   UNL     1       5.617   7.200  18.531  0.00  0.00    +0.000 HD
ENDROOT
BRANCH   1   3
ATOM      3  S   UNL     1       7.026   5.993  17.337  0.00  0.00    +0.000 S 
ATOM      4  O   UNL     1       7.474   7.322  16.988  0.00  0.00    +0.000 OA
ATOM      5  O   UNL     1       7.867   5.070  18.063  0.00  0.00    +0.000 OA
BRANCH   3   6
ATOM      6  C   UNL     1       6.548   5.209  15.816  0.00  0.00    +0.000 A 
ATOM      7  C   UNL     1       5.284   4.655  15.634  0.00  0.00    +0.000 A 
ATOM      8  C   UNL     1       4.981   3.966  14.449  0.00  0.00    +0.000 A 
ATOM      9  C   UNL     1       5.937   3.857  13.432  0.00  0.00    +0.000 A 
ATOM     10  C   UNL     1       7.187   4.467  13.606  0.00  0.00    +0.000 A 
ATOM     11  C   UNL     1       7.498   5.132  14.794  0.00  0.00    +0.000 A 
BRANCH   9  12
ATOM     12  C   UNL     1       5.699   3.135  12.142  0.00  0.00    +0.000 C 
ATOM     13  N   UNL     1       6.662   2.276  11.679  0.00  0.00    +0.000 N 
ATOM     14  O   UNL     1       4.678   3.303  11.496  0.00  0.00    +0.000 OA
ATOM     15  H   UNL     1       7.539   2.074  12.124  0.00  0.00    +0.000 HD
ATOM     16  H   UNL     1       6.460   1.820  10.798  0.00  0.00    +0.000 HD
ENDBRANCH   9  12
ENDBRANCH   3   6
ENDBRANCH   1   3
BRANCH   1  17
ATOM     17  C   UNL     1       5.305   5.258  19.331  0.00  0.00    +0.000 C 
BRANCH  17  18
ATOM     18  C   UNL     1       3.756   5.107  19.648  0.00  0.00    +0.000 C 
BRANCH  18  19
ATOM     19  C   UNL     1       3.070   6.386  19.200  0.00  0.00    +0.000 A 
ATOM     20  C   UNL     1       2.400   7.408  19.849  0.00  0.00    +0.000 A 
ATOM     21  C   UNL     1       1.867   8.249  18.842  0.00  0.00    +0.000 A 
ATOM     22  C   UNL     1       2.316   7.743  17.646  0.00  0.00    +0.000 A 
ATOM     23  O   UNL     1       3.040   6.611  17.850  0.00  0.00    +0.000 OA
ENDBRANCH  18  19
BRANCH  18  24
ATOM     24  N   UNL     1       3.068   3.863  19.152  0.00  0.00    +0.000 NA
BRANCH  24  26
ATOM     25  C   UNL     1       3.473   1.640  17.967  0.00  0.00    +0.000 C 
ATOM     26  C   UNL     1       3.940   3.071  18.257  0.00  0.00    +0.000 C 
ENDBRANCH  24  26
BRANCH  24  27
ATOM     27  C   UNL     1       2.534   3.022  20.253  0.00  0.00    +0.000 C 
ATOM     28  C   UNL     1       2.026   3.737  21.506  0.00  0.00    +0.000 C 
ENDBRANCH  24  27
ENDBRANCH  18  24
ENDBRANCH  17  18
ENDBRANCH   1  17
TORSDOF 9
ENDMDL
MODEL 9
REMARK VINA RESULT:      -7.3      2.725      7.051
REMARK  Name = 
REMARK  11 active torsions:
REMARK  status: ('A' for Active; 'I' for Inactive)
REMARK    1  A    between atoms: C_1  and  C_2
REMARK    2  A    between atoms: C_2  and  N_3
REMARK    3  A    between atoms: N_3  and  C_4
REMARK    4  A    between atoms: N_3  and  C_6
REMARK    5  A    between atoms: C_4  and  C_5
REMARK    6  A    between atoms: C_6  and  C_7
REMARK    7  A    between atoms: C_6  and  C_21
REMARK    8  A    between atoms: C_7  and  N_8
REMARK    9  A    between atoms: N_8  and  S_9
REMARK   10  A    between atoms: S_9  and  C_12
REMARK   11  A    between atoms: C_15  and  C_16
REMARK                            x       y       z     vdW  Elec       q    Type
REMARK                         _______ _______ _______ _____ _____    ______ ____
ROOT
ATOM      1  N   UNL     1       5.918   5.547  18.722  0.00  0.00    +0.000 NA
ATOM      2  H   UNL     1       6.132   6.238  19.443  0.00  0.00    +0.000 HD
ENDROOT
BRANCH   1   3
ATOM      3  S   UNL     1       7.257   5.507  17.692  0.00  0.00    +0.000 S 
ATOM      4  O   UNL     1       7.610   6.892  17.475  0.00  0.00    +0.000 OA
ATOM      5  O   UNL     1       8.199   4.553  18.226  0.00  0.00    +0.000 OA
BRANCH   3   6
ATOM      6  C   UNL     1       6.684   4.885  16.129  0.00  0.00    +0.000 A 
ATOM      7  C   UNL     1       5.519   4.131  16.014  0.00  0.00    +0.000 A 
ATOM      8  C   UNL     1       5.154   3.585  14.774  0.00  0.00    +0.000 A 
ATOM      9  C   UNL     1       5.941   3.818  13.639  0.00  0.00    +0.000 A 
ATOM     10  C   UNL     1       7.082   4.625  13.759  0.00  0.00    +0.000 A 
ATOM     11  C   UNL     1       7.459   5.150  14.997  0.00  0.00    +0.000 A 
BRANCH   9  12
ATOM     12  C   UNL     1       5.629   3.268  12.283  0.00  0.00    +0.000 C 
ATOM     13  N   UNL     1       6.534   2.429  11.686  0.00  0.00    +0.000 N 
ATOM     14  O   UNL     1       4.598   3.557  11.700  0.00  0.00    +0.000 OA
ATOM     15  H   UNL     1       7.414   2.136  12.071  0.00  0.00    +0.000 HD
ATOM     16  H   UNL     1       6.282   2.092  10.765  0.00  0.00    +0.000 HD
ENDBRANCH   9  12
ENDBRANCH   3   6
ENDBRANCH   1   3
BRANCH   1  17
ATOM     17  C   UNL     1       5.397   4.255  19.257  0.00  0.00    +0.000 C 
BRANCH  17  18
ATOM     18  C   UNL     1       3.976   4.367  19.958  0.00  0.00    +0.000 C 
BRANCH  18  19
ATOM     19  C   UNL     1       3.212   5.483  19.267  0.00  0.00    +0.000 A 
ATOM     20  C   UNL     1       2.755   5.694  17.977  0.00  0.00    +0.000 A 
ATOM     21  C   UNL     1       2.233   7.009  17.942  0.00  0.00    +0.000 A 
ATOM     22  C   UNL     1       2.318   7.488  19.227  0.00  0.00    +0.000 A 
ATOM     23  O   UNL     1       2.916   6.576  20.036  0.00  0.00    +0.000 OA
ENDBRANCH  18  19
BRANCH  18  24
ATOM     24  N   UNL     1       3.175   3.100  20.098  0.00  0.00    +0.000 NA
BRANCH  24  26
ATOM     25  C   UNL     1       1.175   2.705  21.632  0.00  0.00    +0.000 C 
ATOM     26  C   UNL     1       1.750   3.379  20.380  0.00  0.00    +0.000 C 
ENDBRANCH  24  26
BRANCH  24  27
ATOM     27  C   UNL     1       3.318   2.195  18.929  0.00  0.00    +0.000 C 
ATOM     28  C   UNL     1       2.200   2.209  17.884  0.00  0.00    +0.000 C 
ENDBRANCH  24  27
ENDBRANCH  18  24
ENDBRANCH  17  18
ENDBRANCH   1  17
TORSDOF 9
ENDMDL
