MODEL 1
REMARK VINA RESULT:      -7.5      0.000      0.000
REMARK  Name = 
REMARK  7 active torsions:
REMARK  status: ('A' for Active; 'I' for Inactive)
REMARK    1  A    between atoms: C_1  and  C_2
REMARK    2  A    between atoms: C_2  and  N_3
REMARK    3  A    between atoms: C_6  and  N_7
REMARK    4  A    between atoms: N_7  and  C_8
REMARK    5  A    between atoms: C_8  and  C_9
REMARK    6  A    between atoms: N_18  and  C_19
REMARK    7  A    between atoms: C_19  and  C_20
REMARK                            x       y       z     vdW  Elec       q    Type
REMARK                         _______ _______ _______ _____ _____    ______ ____
ROOT
ATOM      1  N   UNL     1      -0.842  11.265  21.826  0.00  0.00    +0.000 N 
ATOM      2  C   UNL     1       0.012  10.201  22.164  0.00  0.00    +0.000 C 
ATOM      3  O   UNL     1       0.425   9.989  23.299  0.00  0.00    +0.000 OA
ATOM      4  N   UNL     1       0.391   9.364  21.149  0.00  0.00    +0.000 N 
ATOM      5  H   UNL     1      -0.204   9.323  20.336  0.00  0.00    +0.000 HD
ENDROOT
BRANCH   1   9
ATOM      6  N   UNL     1      -3.461  13.935  22.035  0.00  0.00    +0.000 NA
ATOM      7  C   UNL     1      -3.649  12.516  22.355  0.00  0.00    +0.000 C 
ATOM      8  C   UNL     1      -2.708  12.085  23.471  0.00  0.00    +0.000 C 
ATOM      9  C   UNL     1      -1.237  12.150  22.992  0.00  0.00    +0.000 C 
ATOM     10  C   UNL     1      -1.010  13.660  22.790  0.00  0.00    +0.000 C 
ATOM     11  C   UNL     1      -2.043  14.313  21.860  0.00  0.00    +0.000 C 
BRANCH   6  13
ATOM     12  C   UNL     1      -5.363  13.427  20.402  0.00  0.00    +0.000 C 
ATOM     13  C   UNL     1      -4.209  14.333  20.824  0.00  0.00    +0.000 C 
ENDBRANCH   6  13
ENDBRANCH   1   9
BRANCH   1  14
ATOM     14  C   UNL     1      -0.526  11.960  20.554  0.00  0.00    +0.000 C 
BRANCH  14  15
ATOM     15  C   UNL     1      -1.156  11.451  19.261  0.00  0.00    +0.000 A 
ATOM     16  C   UNL     1      -0.599  10.436  18.472  0.00  0.00    +0.000 A 
ATOM     17  C   UNL     1      -1.250  10.001  17.301  0.00  0.00    +0.000 A 
ATOM     18  C   UNL     1      -2.463  10.569  16.916  0.00  0.00    +0.000 A 
ATOM     19 BR   UNL     1      -3.299  10.029  15.308  0.00  0.00    +0.000 Br
ATOM     20  C   UNL     1      -3.062  11.537  17.710  0.00  0.00    +0.000 A 
ATOM     21  C   UNL     1      -2.414  11.965  18.879  0.00  0.00    +0.000 A 
ENDBRANCH  14  15
ENDBRANCH   1  14
BRANCH   4  22
ATOM     22  C   UNL     1       1.065   8.133  21.525  0.00  0.00    +0.000 C 
BRANCH  22  23
ATOM     23  C   UNL     1       1.640   7.394  20.353  0.00  0.00    +0.000 A 
ATOM     24  C   UNL     1       2.069   8.098  19.216  0.00  0.00    +0.000 A 
ATOM     25  C   UNL     1       2.685   7.423  18.163  0.00  0.00    +0.000 A 
ATOM     26  C   UNL     1       2.874   6.050  18.246  0.00  0.00    +0.000 A 
ATOM     27  F   UNL     1       3.468   5.401  17.238  0.00  0.00    +0.000 F 
ATOM     28  C   UNL     1       2.472   5.337  19.372  0.00  0.00    +0.000 A 
ATOM     29  C   UNL     1       1.857   6.009  20.427  0.00  0.00    +0.000 A 
ENDBRANCH  22  23
ENDBRANCH   4  22
TORSDOF 6
ENDMDL
MODEL 2
REMARK VINA RESULT:      -7.4      0.210      1.307
REMARK  Name = 
REMARK  7 active torsions:
REMARK  status: ('A' for Active; 'I' for Inactive)
REMARK    1  A    between atoms: C_1  and  C_2
REMARK    2  A    between atoms: C_2  and  N_3
REMARK    3  A    between atoms: C_6  and  N_7
REMARK    4  A    between atoms: N_7  and  C_8
REMARK    5  A    between atoms: C_8  and  C_9
REMARK    6  A    between atoms: N_18  and  C_19
REMARK    7  A    between atoms: C_19  and  C_20
REMARK                            x       y       z     vdW  Elec       q    Type
REMARK                         _______ _______ _______ _____ _____    ______ ____
ROOT
ATOM      1  N   UNL     1      -1.020  11.246  21.980  0.00  0.00    +0.000 N 
ATOM      2  C   UNL     1      -0.177  10.177  22.330  0.00  0.00    +0.000 C 
ATOM      3  O   UNL     1       0.215   9.961  23.472  0.00  0.00    +0.000 OA
ATOM      4  N   UNL     1       0.216   9.341  21.320  0.00  0.00    +0.000 N 
ATOM      5  H   UNL     1      -0.365   9.304  20.496  0.00  0.00    +0.000 HD
ENDROOT
BRANCH   1   9
ATOM      6  N   UNL     1      -3.562  13.995  22.122  0.00  0.00    +0.000 NA
ATOM      7  C   UNL     1      -3.806  12.579  22.417  0.00  0.00    +0.000 C 
ATOM      8  C   UNL     1      -2.922  12.106  23.563  0.00  0.00    +0.000 C 
ATOM      9  C   UNL     1      -1.432  12.130  23.140  0.00  0.00    +0.000 C 
ATOM     10  C   UNL     1      -1.151  13.635  22.965  0.00  0.00    +0.000 C 
ATOM     11  C   UNL     1      -2.127  14.329  22.005  0.00  0.00    +0.000 C 
BRANCH   6  13
ATOM     12  C   UNL     1      -5.440  13.588  20.435  0.00  0.00    +0.000 C 
ATOM     13  C   UNL     1      -4.250  14.429  20.888  0.00  0.00    +0.000 C 
ENDBRANCH   6  13
ENDBRANCH   1   9
BRANCH   1  14
ATOM     14  C   UNL     1      -0.679  11.942  20.715  0.00  0.00    +0.000 C 
BRANCH  14  15
ATOM     15  C   UNL     1      -1.330  11.473  19.417  0.00  0.00    +0.000 A 
ATOM     16  C   UNL     1      -2.564  11.947  18.951  0.00  0.00    +0.000 A 
ATOM     17  C   UNL     1      -3.093  11.485  17.730  0.00  0.00    +0.000 A 
ATOM     18  C   UNL     1      -2.392  10.556  16.963  0.00  0.00    +0.000 A 
ATOM     19 BR   UNL     1      -3.137   9.889  15.359  0.00  0.00    +0.000 Br
ATOM     20  C   UNL     1      -1.143  10.114  17.377  0.00  0.00    +0.000 A 
ATOM     21  C   UNL     1      -0.615  10.580  18.591  0.00  0.00    +0.000 A 
ENDBRANCH  14  15
ENDBRANCH   1  14
BRANCH   4  22
ATOM     22  C   UNL     1       0.877   8.106  21.704  0.00  0.00    +0.000 C 
BRANCH  22  23
ATOM     23  C   UNL     1       1.578   7.431  20.562  0.00  0.00    +0.000 A 
ATOM     24  C   UNL     1       1.754   6.038  20.569  0.00  0.00    +0.000 A 
ATOM     25  C   UNL     1       2.325   5.398  19.470  0.00  0.00    +0.000 A 
ATOM     26  C   UNL     1       2.717   6.146  18.367  0.00  0.00    +0.000 A 
ATOM     27  F   UNL     1       3.261   5.533  17.310  0.00  0.00    +0.000 F 
ATOM     28  C   UNL     1       2.533   7.525  18.335  0.00  0.00    +0.000 A 
ATOM     29  C   UNL     1       1.961   8.168  19.432  0.00  0.00    +0.000 A 
ENDBRANCH  22  23
ENDBRANCH   4  22
TORSDOF 6
ENDMDL
MODEL 3
REMARK VINA RESULT:      -7.0      0.420      1.016
REMARK  Name = 
REMARK  7 active torsions:
REMARK  status: ('A' for Active; 'I' for Inactive)
REMARK    1  A    between atoms: C_1  and  C_2
REMARK    2  A    between atoms: C_2  and  N_3
REMARK    3  A    between atoms: C_6  and  N_7
REMARK    4  A    between atoms: N_7  and  C_8
REMARK    5  A    between atoms: C_8  and  C_9
REMARK    6  A    between atoms: N_18  and  C_19
REMARK    7  A    between atoms: C_19  and  C_20
REMARK                            x       y       z     vdW  Elec       q    Type
REMARK                         _______ _______ _______ _____ _____    ______ ____
ROOT
ATOM      1  N   UNL     1      -0.499  11.207  21.643  0.00  0.00    +0.000 N 
ATOM      2  C   UNL     1       0.335  10.132  21.998  0.00  0.00    +0.000 C 
ATOM      3  O   UNL     1       0.797   9.968  23.122  0.00  0.00    +0.000 OA
ATOM      4  N   UNL     1       0.634   9.229  21.014  0.00  0.00    +0.000 N 
ATOM      5  H   UNL     1      -0.002   9.165  20.234  0.00  0.00    +0.000 HD
ENDROOT
BRANCH   1   9
ATOM      6  N   UNL     1      -3.240  13.740  21.968  0.00  0.00    +0.000 NA
ATOM      7  C   UNL     1      -3.296  12.346  22.422  0.00  0.00    +0.000 C 
ATOM      8  C   UNL     1      -2.199  12.065  23.441  0.00  0.00    +0.000 C 
ATOM      9  C   UNL     1      -0.805  12.168  22.775  0.00  0.00    +0.000 C 
ATOM     10  C   UNL     1      -0.703  13.665  22.425  0.00  0.00    +0.000 C 
ATOM     11  C   UNL     1      -1.881  14.176  21.585  0.00  0.00    +0.000 C 
BRANCH   6  13
ATOM     12  C   UNL     1      -5.298  14.970  21.077  0.00  0.00    +0.000 C 
ATOM     13  C   UNL     1      -4.154  13.989  20.834  0.00  0.00    +0.000 C 
ENDBRANCH   6  13
ENDBRANCH   1   9
BRANCH   1  14
ATOM     14  C   UNL     1      -0.225  11.820  20.320  0.00  0.00    +0.000 C 
BRANCH  14  15
ATOM     15  C   UNL     1      -1.072  11.398  19.123  0.00  0.00    +0.000 A 
ATOM     16  C   UNL     1      -2.242  12.060  18.727  0.00  0.00    +0.000 A 
ATOM     17  C   UNL     1      -2.961  11.628  17.596  0.00  0.00    +0.000 A 
ATOM     18  C   UNL     1      -2.513  10.541  16.848  0.00  0.00    +0.000 A 
ATOM     19 BR   UNL     1      -3.517   9.923  15.370  0.00  0.00    +0.000 Br
ATOM     20  C   UNL     1      -1.327   9.903  17.188  0.00  0.00    +0.000 A 
ATOM     21  C   UNL     1      -0.609  10.339  18.312  0.00  0.00    +0.000 A 
ENDBRANCH  14  15
ENDBRANCH   1  14
BRANCH   4  22
ATOM     22  C   UNL     1       1.284   7.997  21.426  0.00  0.00    +0.000 C 
BRANCH  22  23
ATOM     23  C   UNL     1       1.805   7.190  20.272  0.00  0.00    +0.000 A 
ATOM     24  C   UNL     1       2.186   7.829  19.081  0.00  0.00    +0.000 A 
ATOM     25  C   UNL     1       2.752   7.093  18.041  0.00  0.00    +0.000 A 
ATOM     26  C   UNL     1       2.940   5.725  18.191  0.00  0.00    +0.000 A 
ATOM     27  F   UNL     1       3.488   5.019  17.196  0.00  0.00    +0.000 F 
ATOM     28  C   UNL     1       2.586   5.078  19.371  0.00  0.00    +0.000 A 
ATOM     29  C   UNL     1       2.020   5.811  20.413  0.00  0.00    +0.000 A 
ENDBRANCH  22  23
ENDBRANCH   4  22
TORSDOF 6
ENDMDL
MODEL 4
REMARK VINA RESULT:      -6.7      4.698      9.245
REMARK  Name = 
REMARK  7 active torsions:
REMARK  status: ('A' for Active; 'I' for Inactive)
REMARK    1  A    between atoms: C_1  and  C_2
REMARK    2  A    between atoms: C_2  and  N_3
REMARK    3  A    between atoms: C_6  and  N_7
REMARK    4  A    between atoms: N_7  and  C_8
REMARK    5  A    between atoms: C_8  and  C_9
REMARK    6  A    between atoms: N_18  and  C_19
REMARK    7  A    between atoms: C_19  and  C_20
REMARK                            x       y       z     vdW  Elec       q    Type
REMARK                         _______ _______ _______ _____ _____    ______ ____
ROOT
ATOM      1  N   UNL     1       3.138   5.473  18.384  0.00  0.00    +0.000 N 
ATOM      2  C   UNL     1       2.368   6.610  18.079  0.00  0.00    +0.000 C 
ATOM      3  O   UNL     1       1.403   6.598  17.323  0.00  0.00    +0.000 OA
ATOM      4  N   UNL     1       2.738   7.787  18.672  0.00  0.00    +0.000 N 
ATOM      5  H   UNL     1       3.273   7.728  19.525  0.00  0.00    +0.000 HD
ENDROOT
BRANCH   1   9
ATOM      6  N   UNL     1       1.804   2.309  19.882  0.00  0.00    +0.000 NA
ATOM      7  C   UNL     1       1.006   3.462  19.450  0.00  0.00    +0.000 C 
ATOM      8  C   UNL     1       1.218   3.741  17.968  0.00  0.00    +0.000 C 
ATOM      9  C   UNL     1       2.674   4.198  17.708  0.00  0.00    +0.000 C 
ATOM     10  C   UNL     1       3.493   2.935  18.035  0.00  0.00    +0.000 C 
ATOM     11  C   UNL     1       3.211   2.372  19.436  0.00  0.00    +0.000 C 
BRANCH   6  13
ATOM     12  C   UNL     1       2.192   3.347  22.187  0.00  0.00    +0.000 C 
ATOM     13  C   UNL     1       1.780   2.139  21.350  0.00  0.00    +0.000 C 
ENDBRANCH   6  13
ENDBRANCH   1   9
BRANCH   1  14
ATOM     14  C   UNL     1       4.604   5.689  18.440  0.00  0.00    +0.000 C 
BRANCH  14  15
ATOM     15  C   UNL     1       5.429   5.476  17.174  0.00  0.00    +0.000 A 
ATOM     16  C   UNL     1       6.582   4.680  17.122  0.00  0.00    +0.000 A 
ATOM     17  C   UNL     1       7.280   4.510  15.912  0.00  0.00    +0.000 A 
ATOM     18  C   UNL     1       6.830   5.125  14.745  0.00  0.00    +0.000 A 
ATOM     19 BR   UNL     1       7.808   4.948  13.136  0.00  0.00    +0.000 Br
ATOM     20  C   UNL     1       5.660   5.873  14.759  0.00  0.00    +0.000 A 
ATOM     21  C   UNL     1       4.963   6.036  15.966  0.00  0.00    +0.000 A 
ENDBRANCH  14  15
ENDBRANCH   1  14
BRANCH   4  22
ATOM     22  C   UNL     1       1.814   8.901  18.560  0.00  0.00    +0.000 C 
BRANCH  22  23
ATOM     23  C   UNL     1       1.096   9.204  19.842  0.00  0.00    +0.000 A 
ATOM     24  C   UNL     1       1.435   8.517  21.019  0.00  0.00    +0.000 A 
ATOM     25  C   UNL     1       0.832   8.858  22.229  0.00  0.00    +0.000 A 
ATOM     26  C   UNL     1      -0.105   9.883  22.264  0.00  0.00    +0.000 A 
ATOM     27  F   UNL     1      -0.681  10.215  23.425  0.00  0.00    +0.000 F 
ATOM     28  C   UNL     1      -0.439  10.588  21.112  0.00  0.00    +0.000 A 
ATOM     29  C   UNL     1       0.162  10.250  19.901  0.00  0.00    +0.000 A 
ENDBRANCH  22  23
ENDBRANCH   4  22
TORSDOF 6
ENDMDL
MODEL 5
REMARK VINA RESULT:      -6.7      5.879      8.965
REMARK  Name = 
REMARK  7 active torsions:
REMARK  status: ('A' for Active; 'I' for Inactive)
REMARK    1  A    between atoms: C_1  and  C_2
REMARK    2  A    between atoms: C_2  and  N_3
REMARK    3  A    between atoms: C_6  and  N_7
REMARK    4  A    between atoms: N_7  and  C_8
REMARK    5  A    between atoms: C_8  and  C_9
REMARK    6  A    between atoms: N_18  and  C_19
REMARK    7  A    between atoms: C_19  and  C_20
REMARK                            x       y       z     vdW  Elec       q    Type
REMARK                         _______ _______ _______ _____ _____    ______ ____
ROOT
ATOM      1  N   UNL     1       4.447   5.053  17.841  0.00  0.00    +0.000 N 
ATOM      2  C   UNL     1       5.811   5.322  17.631  0.00  0.00    +0.000 C 
ATOM      3  O   UNL     1       6.597   4.520  17.138  0.00  0.00    +0.000 OA
ATOM      4  N   UNL     1       6.265   6.558  18.007  0.00  0.00    +0.000 N 
ATOM      5  H   UNL     1       5.586   7.301  18.069  0.00  0.00    +0.000 HD
ENDROOT
BRANCH   1   9
ATOM      6  N   UNL     1       1.766   2.833  19.225  0.00  0.00    +0.000 NA
ATOM      7  C   UNL     1       1.599   3.821  18.153  0.00  0.00    +0.000 C 
ATOM      8  C   UNL     1       2.518   3.505  16.981  0.00  0.00    +0.000 C 
ATOM      9  C   UNL     1       4.000   3.675  17.395  0.00  0.00    +0.000 C 
ATOM     10  C   UNL     1       4.200   2.545  18.422  0.00  0.00    +0.000 C 
ATOM     11  C   UNL     1       3.180   2.576  19.569  0.00  0.00    +0.000 C 
BRANCH   6  13
ATOM     12  C   UNL     1       1.889   3.432  21.709  0.00  0.00    +0.000 C 
ATOM     13  C   UNL     1       1.044   3.224  20.455  0.00  0.00    +0.000 C 
ENDBRANCH   6  13
ENDBRANCH   1   9
BRANCH   1  14
ATOM     14  C   UNL     1       3.891   5.538  19.128  0.00  0.00    +0.000 C 
BRANCH  14  15
ATOM     15  C   UNL     1       2.966   6.752  19.120  0.00  0.00    +0.000 A 
ATOM     16  C   UNL     1       2.209   7.159  20.227  0.00  0.00    +0.000 A 
ATOM     17  C   UNL     1       1.394   8.305  20.155  0.00  0.00    +0.000 A 
ATOM     18  C   UNL     1       1.335   9.056  18.982  0.00  0.00    +0.000 A 
ATOM     19 BR   UNL     1       0.188  10.555  18.867  0.00  0.00    +0.000 Br
ATOM     20  C   UNL     1       2.117   8.704  17.890  0.00  0.00    +0.000 A 
ATOM     21  C   UNL     1       2.933   7.565  17.967  0.00  0.00    +0.000 A 
ENDBRANCH  14  15
ENDBRANCH   1  14
BRANCH   4  22
ATOM     22  C   UNL     1       7.600   6.930  17.573  0.00  0.00    +0.000 C 
BRANCH  22  23
ATOM     23  C   UNL     1       7.989   8.319  17.986  0.00  0.00    +0.000 A 
ATOM     24  C   UNL     1       8.895   8.512  19.042  0.00  0.00    +0.000 A 
ATOM     25  C   UNL     1       9.326   9.796  19.371  0.00  0.00    +0.000 A 
ATOM     26  C   UNL     1       8.856  10.884  18.646  0.00  0.00    +0.000 A 
ATOM     27  F   UNL     1       9.273  12.117  18.957  0.00  0.00    +0.000 F 
ATOM     28  C   UNL     1       7.973  10.711  17.585  0.00  0.00    +0.000 A 
ATOM     29  C   UNL     1       7.540   9.428  17.253  0.00  0.00    +0.000 A 
ENDBRANCH  22  23
ENDBRANCH   4  22
TORSDOF 6
ENDMDL
MODEL 6
REMARK VINA RESULT:      -6.7      5.867      8.956
REMARK  Name = 
REMARK  7 active torsions:
REMARK  status: ('A' for Active; 'I' for Inactive)
REMARK    1  A    between atoms: C_1  and  C_2
REMARK    2  A    between atoms: C_2  and  N_3
REMARK    3  A    between atoms: C_6  and  N_7
REMARK    4  A    between atoms: N_7  and  C_8
REMARK    5  A    between atoms: C_8  and  C_9
REMARK    6  A    between atoms: N_18  and  C_19
REMARK    7  A    between atoms: C_19  and  C_20
REMARK                            x       y       z     vdW  Elec       q    Type
REMARK                         _______ _______ _______ _____ _____    ______ ____
ROOT
ATOM      1  N   UNL     1       4.794   5.388  17.778  0.00  0.00    +0.000 N 
ATOM      2  C   UNL     1       6.122   5.779  17.535  0.00  0.00    +0.000 C 
ATOM      3  O   UNL     1       6.986   5.027  17.094  0.00  0.00    +0.000 OA
ATOM      4  N   UNL     1       6.447   7.079  17.814  0.00  0.00    +0.000 N 
ATOM      5  H   UNL     1       5.696   7.751  17.829  0.00  0.00    +0.000 HD
ENDROOT
BRANCH   1   9
ATOM      6  N   UNL     1       1.977   3.195  18.914  0.00  0.00    +0.000 NA
ATOM      7  C   UNL     1       1.985   4.035  17.711  0.00  0.00    +0.000 C 
ATOM      8  C   UNL     1       3.122   3.635  16.781  0.00  0.00    +0.000 C 
ATOM      9  C   UNL     1       4.490   3.942  17.439  0.00  0.00    +0.000 C 
ATOM     10  C   UNL     1       4.528   2.957  18.623  0.00  0.00    +0.000 C 
ATOM     11  C   UNL     1       3.306   3.066  19.546  0.00  0.00    +0.000 C 
BRANCH   6  13
ATOM     12  C   UNL     1       1.555   3.880  21.342  0.00  0.00    +0.000 C 
ATOM     13  C   UNL     1       1.019   3.688  19.926  0.00  0.00    +0.000 C 
ENDBRANCH   6  13
ENDBRANCH   1   9
BRANCH   1  14
ATOM     14  C   UNL     1       4.193   5.907  19.031  0.00  0.00    +0.000 C 
BRANCH  14  15
ATOM     15  C   UNL     1       3.163   7.029  18.945  0.00  0.00    +0.000 A 
ATOM     16  C   UNL     1       2.939   7.792  17.791  0.00  0.00    +0.000 A 
ATOM     17  C   UNL     1       1.953   8.797  17.777  0.00  0.00    +0.000 A 
ATOM     18  C   UNL     1       1.180   9.043  18.911  0.00  0.00    +0.000 A 
ATOM     19 BR   UNL     1      -0.095  10.439  18.910  0.00  0.00    +0.000 Br
ATOM     20  C   UNL     1       1.347   8.265  20.048  0.00  0.00    +0.000 A 
ATOM     21  C   UNL     1       2.325   7.259  20.057  0.00  0.00    +0.000 A 
ENDBRANCH  14  15
ENDBRANCH   1  14
BRANCH   4  22
ATOM     22  C   UNL     1       7.736   7.553  17.341  0.00  0.00    +0.000 C 
BRANCH  22  23
ATOM     23  C   UNL     1       8.131   8.875  17.930  0.00  0.00    +0.000 A 
ATOM     24  C   UNL     1       8.963   8.923  19.060  0.00  0.00    +0.000 A 
ATOM     25  C   UNL     1       9.403  10.149  19.556  0.00  0.00    +0.000 A 
ATOM     26  C   UNL     1       9.016  11.324  18.924  0.00  0.00    +0.000 A 
ATOM     27  F   UNL     1       9.441  12.501  19.395  0.00  0.00    +0.000 F 
ATOM     28  C   UNL     1       8.207  11.296  17.792  0.00  0.00    +0.000 A 
ATOM     29  C   UNL     1       7.766  10.071  17.293  0.00  0.00    +0.000 A 
ENDBRANCH  22  23
ENDBRANCH   4  22
TORSDOF 6
ENDMDL
MODEL 7
REMARK VINA RESULT:      -6.5      4.008      8.814
REMARK  Name = 
REMARK  7 active torsions:
REMARK  status: ('A' for Active; 'I' for Inactive)
REMARK    1  A    between atoms: C_1  and  C_2
REMARK    2  A    between atoms: C_2  and  N_3
REMARK    3  A    between atoms: C_6  and  N_7
REMARK    4  A    between atoms: N_7  and  C_8
REMARK    5  A    between atoms: C_8  and  C_9
REMARK    6  A    between atoms: N_18  and  C_19
REMARK    7  A    between atoms: C_19  and  C_20
REMARK                            x       y       z     vdW  Elec       q    Type
REMARK                         _______ _______ _______ _____ _____    ______ ____
ROOT
ATOM      1  N   UNL     1       1.878   5.463  20.247  0.00  0.00    +0.000 N 
ATOM      2  C   UNL     1       1.325   6.674  20.701  0.00  0.00    +0.000 C 
ATOM      3  O   UNL     1       0.335   6.746  21.421  0.00  0.00    +0.000 OA
ATOM      4  N   UNL     1       1.946   7.827  20.301  0.00  0.00    +0.000 N 
ATOM      5  H   UNL     1       2.915   7.761  20.028  0.00  0.00    +0.000 HD
ENDROOT
BRANCH   1   9
ATOM      6  N   UNL     1       2.577   1.851  19.542  0.00  0.00    +0.000 NA
ATOM      7  C   UNL     1       3.111   2.629  20.665  0.00  0.00    +0.000 C 
ATOM      8  C   UNL     1       1.982   3.179  21.526  0.00  0.00    +0.000 C 
ATOM      9  C   UNL     1       1.156   4.221  20.731  0.00  0.00    +0.000 C 
ATOM     10  C   UNL     1       0.492   3.366  19.634  0.00  0.00    +0.000 C 
ATOM     11  C   UNL     1       1.494   2.543  18.813  0.00  0.00    +0.000 C 
BRANCH   6  13
ATOM     12  C   UNL     1       3.813   2.393  17.369  0.00  0.00    +0.000 C 
ATOM     13  C   UNL     1       3.633   1.478  18.577  0.00  0.00    +0.000 C 
ENDBRANCH   6  13
ENDBRANCH   1   9
BRANCH   1  14
ATOM     14  C   UNL     1       2.323   5.453  18.833  0.00  0.00    +0.000 C 
BRANCH  14  15
ATOM     15  C   UNL     1       3.741   5.911  18.503  0.00  0.00    +0.000 A 
ATOM     16  C   UNL     1       4.886   5.414  19.140  0.00  0.00    +0.000 A 
ATOM     17  C   UNL     1       6.166   5.866  18.767  0.00  0.00    +0.000 A 
ATOM     18  C   UNL     1       6.313   6.810  17.751  0.00  0.00    +0.000 A 
ATOM     19 BR   UNL     1       8.028   7.464  17.299  0.00  0.00    +0.000 Br
ATOM     20  C   UNL     1       5.198   7.276  17.069  0.00  0.00    +0.000 A 
ATOM     21  C   UNL     1       3.923   6.819  17.438  0.00  0.00    +0.000 A 
ENDBRANCH  14  15
ENDBRANCH   1  14
BRANCH   4  22
ATOM     22  C   UNL     1       1.538   9.057  20.956  0.00  0.00    +0.000 C 
BRANCH  22  23
ATOM     23  C   UNL     1       0.577   9.870  20.139  0.00  0.00    +0.000 A 
ATOM     24  C   UNL     1       0.474   9.657  18.754  0.00  0.00    +0.000 A 
ATOM     25  C   UNL     1      -0.479  10.348  18.007  0.00  0.00    +0.000 A 
ATOM     26  C   UNL     1      -1.329  11.246  18.641  0.00  0.00    +0.000 A 
ATOM     27  F   UNL     1      -2.248  11.905  17.927  0.00  0.00    +0.000 F 
ATOM     28  C   UNL     1      -1.255  11.455  20.015  0.00  0.00    +0.000 A 
ATOM     29  C   UNL     1      -0.303  10.766  20.765  0.00  0.00    +0.000 A 
ENDBRANCH  22  23
ENDBRANCH   4  22
TORSDOF 6
ENDMDL
MODEL 8
REMARK VINA RESULT:      -6.5      4.061      8.833
REMARK  Name = 
REMARK  7 active torsions:
REMARK  status: ('A' for Active; 'I' for Inactive)
REMARK    1  A    between atoms: C_1  and  C_2
REMARK    2  A    between atoms: C_2  and  N_3
REMARK    3  A    between atoms: C_6  and  N_7
REMARK    4  A    between atoms: N_7  and  C_8
REMARK    5  A    between atoms: C_8  and  C_9
REMARK    6  A    between atoms: N_18  and  C_19
REMARK    7  A    between atoms: C_19  and  C_20
REMARK                            x       y       z     vdW  Elec       q    Type
REMARK                         _______ _______ _______ _____ _____    ______ ____
ROOT
ATOM      1  N   UNL     1       2.144   6.104  19.800  0.00  0.00    +0.000 N 
ATOM      2  C   UNL     1       1.651   7.396  20.055  0.00  0.00    +0.000 C 
ATOM      3  O   UNL     1       0.986   7.691  21.042  0.00  0.00    +0.000 OA
ATOM      4  N   UNL     1       1.944   8.364  19.132  0.00  0.00    +0.000 N 
ATOM      5  H   UNL     1       2.749   8.215  18.545  0.00  0.00    +0.000 HD
ENDROOT
BRANCH   1   9
ATOM      6  N   UNL     1       2.351   2.365  19.682  0.00  0.00    +0.000 NA
ATOM      7  C   UNL     1       3.407   3.273  20.142  0.00  0.00    +0.000 C 
ATOM      8  C   UNL     1       2.923   4.115  21.315  0.00  0.00    +0.000 C 
ATOM      9  C   UNL     1       1.798   5.077  20.861  0.00  0.00    +0.000 C 
ATOM     10  C   UNL     1       0.647   4.116  20.508  0.00  0.00    +0.000 C 
ATOM     11  C   UNL     1       1.045   3.033  19.496  0.00  0.00    +0.000 C 
BRANCH   6  13
ATOM     12  C   UNL     1       4.105   1.054  18.361  0.00  0.00    +0.000 C 
ATOM     13  C   UNL     1       2.717   1.685  18.421  0.00  0.00    +0.000 C 
ENDBRANCH   6  13
ENDBRANCH   1   9
BRANCH   1  14
ATOM     14  C   UNL     1       2.048   5.649  18.392  0.00  0.00    +0.000 C 
BRANCH  14  15
ATOM     15  C   UNL     1       3.324   5.545  17.562  0.00  0.00    +0.000 A 
ATOM     16  C   UNL     1       4.283   6.563  17.480  0.00  0.00    +0.000 A 
ATOM     17  C   UNL     1       5.450   6.388  16.712  0.00  0.00    +0.000 A 
ATOM     18  C   UNL     1       5.672   5.193  16.028  0.00  0.00    +0.000 A 
ATOM     19 BR   UNL     1       7.207   4.987  14.944  0.00  0.00    +0.000 Br
ATOM     20  C   UNL     1       4.762   4.150  16.138  0.00  0.00    +0.000 A 
ATOM     21  C   UNL     1       3.603   4.325  16.909  0.00  0.00    +0.000 A 
ENDBRANCH  14  15
ENDBRANCH   1  14
BRANCH   4  22
ATOM     22  C   UNL     1       1.654   9.738  19.504  0.00  0.00    +0.000 C 
BRANCH  22  23
ATOM     23  C   UNL     1       0.283  10.185  19.091  0.00  0.00    +0.000 A 
ATOM     24  C   UNL     1      -0.387  11.174  19.829  0.00  0.00    +0.000 A 
ATOM     25  C   UNL     1      -1.623  11.654  19.399  0.00  0.00    +0.000 A 
ATOM     26  C   UNL     1      -2.187  11.150  18.234  0.00  0.00    +0.000 A 
ATOM     27  F   UNL     1      -3.371  11.613  17.816  0.00  0.00    +0.000 F 
ATOM     28  C   UNL     1      -1.530  10.183  17.479  0.00  0.00    +0.000 A 
ATOM     29  C   UNL     1      -0.293   9.701  17.907  0.00  0.00    +0.000 A 
ENDBRANCH  22  23
ENDBRANCH   4  22
TORSDOF 6
ENDMDL
MODEL 9
REMARK VINA RESULT:      -6.5      1.403      1.857
REMARK  Name = 
REMARK  7 active torsions:
REMARK  status: ('A' for Active; 'I' for Inactive)
REMARK    1  A    between atoms: C_1  and  C_2
REMARK    2  A    between atoms: C_2  and  N_3
REMARK    3  A    between atoms: C_6  and  N_7
REMARK    4  A    between atoms: N_7  and  C_8
REMARK    5  A    between atoms: C_8  and  C_9
REMARK    6  A    between atoms: N_18  and  C_19
REMARK    7  A    between atoms: C_19  and  C_20
REMARK                            x       y       z     vdW  Elec       q    Type
REMARK                         _______ _______ _______ _____ _____    ______ ____
ROOT
ATOM      1  N   UNL     1      -2.317  12.372  21.844  0.00  0.00    +0.000 N 
ATOM      2  C   UNL     1      -1.285  11.512  22.260  0.00  0.00    +0.000 C 
ATOM      3  O   UNL     1      -0.918  11.399  23.424  0.00  0.00    +0.000 OA
ATOM      4  N   UNL     1      -0.669  10.768  21.290  0.00  0.00    +0.000 N 
ATOM      5  H   UNL     1      -1.184  10.598  20.440  0.00  0.00    +0.000 HD
ENDROOT
BRANCH   1   9
ATOM      6  N   UNL     1      -5.598  14.178  21.911  0.00  0.00    +0.000 NA
ATOM      7  C   UNL     1      -5.374  12.783  22.304  0.00  0.00    +0.000 C 
ATOM      8  C   UNL     1      -4.366  12.697  23.442  0.00  0.00    +0.000 C 
ATOM      9  C   UNL     1      -2.969  13.162  22.961  0.00  0.00    +0.000 C 
ATOM     10  C   UNL     1      -3.184  14.661  22.682  0.00  0.00    +0.000 C 
ATOM     11  C   UNL     1      -4.347  14.940  21.718  0.00  0.00    +0.000 C 
BRANCH   6  13
ATOM     12  C   UNL     1      -7.549  15.299  20.694  0.00  0.00    +0.000 C 
ATOM     13  C   UNL     1      -6.409  14.283  20.680  0.00  0.00    +0.000 C 
ENDBRANCH   6  13
ENDBRANCH   1   9
BRANCH   1  14
ATOM     14  C   UNL     1      -2.065  13.110  20.582  0.00  0.00    +0.000 C 
BRANCH  14  15
ATOM     15  C   UNL     1      -2.397  12.435  19.254  0.00  0.00    +0.000 A 
ATOM     16  C   UNL     1      -1.443  12.147  18.269  0.00  0.00    +0.000 A 
ATOM     17  C   UNL     1      -1.818  11.500  17.076  0.00  0.00    +0.000 A 
ATOM     18  C   UNL     1      -3.145  11.128  16.863  0.00  0.00    +0.000 A 
ATOM     19 BR   UNL     1      -3.657  10.320  15.231  0.00  0.00    +0.000 Br
ATOM     20  C   UNL     1      -4.098  11.354  17.847  0.00  0.00    +0.000 A 
ATOM     21  C   UNL     1      -3.719  11.993  19.037  0.00  0.00    +0.000 A 
ENDBRANCH  14  15
ENDBRANCH   1  14
BRANCH   4  22
ATOM     22  C   UNL     1       0.218   9.708  21.735  0.00  0.00    +0.000 C 
BRANCH  22  23
ATOM     23  C   UNL     1       0.908   9.002  20.606  0.00  0.00    +0.000 A 
ATOM     24  C   UNL     1       1.034   9.628  19.355  0.00  0.00    +0.000 A 
ATOM     25  C   UNL     1       1.751   9.012  18.331  0.00  0.00    +0.000 A 
ATOM     26  C   UNL     1       2.343   7.776  18.555  0.00  0.00    +0.000 A 
ATOM     27  F   UNL     1       3.036   7.186  17.575  0.00  0.00    +0.000 F 
ATOM     28  C   UNL     1       2.246   7.149  19.793  0.00  0.00    +0.000 A 
ATOM     29  C   UNL     1       1.530   7.763  20.820  0.00  0.00    +0.000 A 
ENDBRANCH  22  23
ENDBRANCH   4  22
TORSDOF 6
ENDMDL
