MODEL 1
REMARK VINA RESULT:      -7.7      0.000      0.000
REMARK  Name = 
REMARK  7 active torsions:
REMARK  status: ('A' for Active; 'I' for Inactive)
REMARK    1  A    between atoms: C_1  and  N_2
REMARK    2  A    between atoms: N_2  and  C_3
REMARK    3  A    between atoms: C_4  and  C_6
REMARK    4  A    between atoms: C_6  and  C_7
REMARK    5  A    between atoms: C_6  and  C_13
REMARK    6  A    between atoms: C_7  and  C_8
REMARK    7  A    between atoms: C_13  and  N_14
REMARK                            x       y       z     vdW  Elec       q    Type
REMARK                         _______ _______ _______ _____ _____    ______ ____
ROOT
ATOM      1  N   UNL     1       4.829   5.609  17.995  0.00  0.00    +0.000 NA
ATOM      2  C   UNL     1       5.950   4.679  17.837  0.00  0.00    +0.000 C 
ATOM      3  C   UNL     1       6.029   4.071  16.441  0.00  0.00    +0.000 C 
ATOM      4  C   UNL     1       6.058   5.152  15.349  0.00  0.00    +0.000 C 
ATOM      5  C   UNL     1       5.050   6.285  15.584  0.00  0.00    +0.000 C 
ATOM      6  C   UNL     1       4.999   6.727  17.050  0.00  0.00    +0.000 C 
ATOM      7  O   UNL     1       7.391   5.743  15.306  0.00  0.00    +0.000 OA
ATOM      8  C   UNL     1       8.146   5.197  14.198  0.00  0.00    +0.000 C 
ATOM      9  C   UNL     1       7.132   4.544  13.335  0.00  0.00    +0.000 A 
ATOM     10  C   UNL     1       7.286   3.971  12.081  0.00  0.00    +0.000 A 
ATOM     11  C   UNL     1       6.175   3.367  11.489  0.00  0.00    +0.000 A 
ATOM     12  C   UNL     1       4.947   3.348  12.160  0.00  0.00    +0.000 A 
ATOM     13  F   UNL     1       3.895   2.749  11.587  0.00  0.00    +0.000 F 
ATOM     14  C   UNL     1       4.800   3.922  13.419  0.00  0.00    +0.000 A 
ATOM     15  C   UNL     1       5.912   4.521  13.995  0.00  0.00    +0.000 A 
ENDROOT
BRANCH   1  16
ATOM     16  C   UNL     1       3.476   5.014  17.892  0.00  0.00    +0.000 C 
BRANCH  16  17
ATOM     17  C   UNL     1       2.390   5.527  18.873  0.00  0.00    +0.000 C 
BRANCH  17  21
ATOM     18  C   UNL     1       1.306   2.520  21.011  0.00  0.00    +0.000 C 
ATOM     19  N   UNL     1       1.541   3.352  19.839  0.00  0.00    +0.000 N 
ATOM     20  C   UNL     1       1.057   2.826  18.572  0.00  0.00    +0.000 C 
ATOM     21  C   UNL     1       2.210   4.558  20.044  0.00  0.00    +0.000 C 
ATOM     22  O   UNL     1       2.534   4.894  21.189  0.00  0.00    +0.000 OA
ENDBRANCH  17  21
BRANCH  17  23
ATOM     23  C   UNL     1       2.828   6.856  19.523  0.00  0.00    +0.000 C 
BRANCH  23  24
ATOM     24  C   UNL     1       1.981   8.068  19.269  0.00  0.00    +0.000 A 
ATOM     25  C   UNL     1       1.225   8.719  20.227  0.00  0.00    +0.000 A 
ATOM     26  S   UNL     1       0.354  10.018  19.529  0.00  0.00    +0.000 S 
ATOM     27  C   UNL     1       1.037   9.620  18.010  0.00  0.00    +0.000 A 
ATOM     28  N   UNL     1       1.866   8.594  17.988  0.00  0.00    +0.000 NA
ENDBRANCH  23  24
ENDBRANCH  17  23
ENDBRANCH  16  17
ENDBRANCH   1  16
TORSDOF 5
ENDMDL
MODEL 2
REMARK VINA RESULT:      -7.4      1.245      1.448
REMARK  Name = 
REMARK  7 active torsions:
REMARK  status: ('A' for Active; 'I' for Inactive)
REMARK    1  A    between atoms: C_1  and  N_2
REMARK    2  A    between atoms: N_2  and  C_3
REMARK    3  A    between atoms: C_4  and  C_6
REMARK    4  A    between atoms: C_6  and  C_7
REMARK    5  A    between atoms: C_6  and  C_13
REMARK    6  A    between atoms: C_7  and  C_8
REMARK    7  A    between atoms: C_13  and  N_14
REMARK                            x       y       z     vdW  Elec       q    Type
REMARK                         _______ _______ _______ _____ _____    ______ ____
ROOT
ATOM      1  N   UNL     1       5.672   5.342  18.086  0.00  0.00    +0.000 NA
ATOM      2  C   UNL     1       6.886   4.608  17.721  0.00  0.00    +0.000 C 
ATOM      3  C   UNL     1       6.844   4.055  16.301  0.00  0.00    +0.000 C 
ATOM      4  C   UNL     1       6.539   5.153  15.270  0.00  0.00    +0.000 C 
ATOM      5  C   UNL     1       5.416   6.105  15.705  0.00  0.00    +0.000 C 
ATOM      6  C   UNL     1       5.522   6.496  17.182  0.00  0.00    +0.000 C 
ATOM      7  O   UNL     1       7.743   5.950  15.061  0.00  0.00    +0.000 OA
ATOM      8  C   UNL     1       8.395   5.559  13.829  0.00  0.00    +0.000 C 
ATOM      9  C   UNL     1       7.375   4.774  13.093  0.00  0.00    +0.000 A 
ATOM     10  C   UNL     1       7.423   4.264  11.804  0.00  0.00    +0.000 A 
ATOM     11  C   UNL     1       6.340   3.505  11.353  0.00  0.00    +0.000 A 
ATOM     12  C   UNL     1       5.247   3.275  12.195  0.00  0.00    +0.000 A 
ATOM     13  F   UNL     1       4.225   2.530  11.753  0.00  0.00    +0.000 F 
ATOM     14  C   UNL     1       5.207   3.786  13.488  0.00  0.00    +0.000 A 
ATOM     15  C   UNL     1       6.287   4.541  13.923  0.00  0.00    +0.000 A 
ENDROOT
BRANCH   1  16
ATOM     16  C   UNL     1       4.426   4.542  18.154  0.00  0.00    +0.000 C 
BRANCH  16  17
ATOM     17  C   UNL     1       3.079   5.309  18.122  0.00  0.00    +0.000 C 
BRANCH  17  21
ATOM     18  C   UNL     1       0.742   2.393  19.029  0.00  0.00    +0.000 C 
ATOM     19  N   UNL     1       1.831   3.355  19.127  0.00  0.00    +0.000 N 
ATOM     20  C   UNL     1       2.732   3.191  20.257  0.00  0.00    +0.000 C 
ATOM     21  C   UNL     1       1.896   4.337  18.139  0.00  0.00    +0.000 C 
ATOM     22  O   UNL     1       1.077   4.334  17.213  0.00  0.00    +0.000 OA
ENDBRANCH  17  21
BRANCH  17  23
ATOM     23  C   UNL     1       2.908   6.163  19.395  0.00  0.00    +0.000 C 
BRANCH  23  24
ATOM     24  C   UNL     1       2.226   7.492  19.256  0.00  0.00    +0.000 A 
ATOM     25  C   UNL     1       2.196   8.247  18.096  0.00  0.00    +0.000 A 
ATOM     26  S   UNL     1       1.372   9.725  18.359  0.00  0.00    +0.000 S 
ATOM     27  C   UNL     1       1.119   9.260  19.988  0.00  0.00    +0.000 A 
ATOM     28  N   UNL     1       1.601   8.085  20.346  0.00  0.00    +0.000 NA
ENDBRANCH  23  24
ENDBRANCH  17  23
ENDBRANCH  16  17
ENDBRANCH   1  16
TORSDOF 5
ENDMDL
MODEL 3
REMARK VINA RESULT:      -7.4      1.057      1.149
REMARK  Name = 
REMARK  7 active torsions:
REMARK  status: ('A' for Active; 'I' for Inactive)
REMARK    1  A    between atoms: C_1  and  N_2
REMARK    2  A    between atoms: N_2  and  C_3
REMARK    3  A    between atoms: C_4  and  C_6
REMARK    4  A    between atoms: C_6  and  C_7
REMARK    5  A    between atoms: C_6  and  C_13
REMARK    6  A    between atoms: C_7  and  C_8
REMARK    7  A    between atoms: C_13  and  N_14
REMARK                            x       y       z     vdW  Elec       q    Type
REMARK                         _______ _______ _______ _____ _____    ______ ____
ROOT
ATOM      1  N   UNL     1       5.065   5.516  17.590  0.00  0.00    +0.000 NA
ATOM      2  C   UNL     1       6.217   4.626  17.420  0.00  0.00    +0.000 C 
ATOM      3  C   UNL     1       6.273   3.980  16.041  0.00  0.00    +0.000 C 
ATOM      4  C   UNL     1       6.221   5.027  14.917  0.00  0.00    +0.000 C 
ATOM      5  C   UNL     1       5.177   6.126  15.154  0.00  0.00    +0.000 C 
ATOM      6  C   UNL     1       5.158   6.610  16.608  0.00  0.00    +0.000 C 
ATOM      7  O   UNL     1       7.528   5.668  14.811  0.00  0.00    +0.000 OA
ATOM      8  C   UNL     1       8.266   5.119  13.694  0.00  0.00    +0.000 C 
ATOM      9  C   UNL     1       7.251   4.400  12.886  0.00  0.00    +0.000 A 
ATOM     10  C   UNL     1       7.386   3.795  11.645  0.00  0.00    +0.000 A 
ATOM     11  C   UNL     1       6.280   3.130  11.110  0.00  0.00    +0.000 A 
ATOM     12  C   UNL     1       5.077   3.084  11.823  0.00  0.00    +0.000 A 
ATOM     13  F   UNL     1       4.032   2.427  11.305  0.00  0.00    +0.000 F 
ATOM     14  C   UNL     1       4.950   3.690  13.069  0.00  0.00    +0.000 A 
ATOM     15  C   UNL     1       6.055   4.350  13.589  0.00  0.00    +0.000 A 
ENDROOT
BRANCH   1  16
ATOM     16  C   UNL     1       3.733   4.866  17.551  0.00  0.00    +0.000 C 
BRANCH  16  17
ATOM     17  C   UNL     1       2.822   5.024  18.796  0.00  0.00    +0.000 C 
BRANCH  17  21
ATOM     18  C   UNL     1       2.285   2.399  21.554  0.00  0.00    +0.000 C 
ATOM     19  N   UNL     1       1.983   3.407  20.547  0.00  0.00    +0.000 N 
ATOM     20  C   UNL     1       0.587   3.801  20.432  0.00  0.00    +0.000 C 
ATOM     21  C   UNL     1       3.054   3.886  19.792  0.00  0.00    +0.000 C 
ATOM     22  O   UNL     1       4.199   3.483  20.025  0.00  0.00    +0.000 OA
ENDBRANCH  17  21
BRANCH  17  23
ATOM     23  C   UNL     1       3.178   6.309  19.572  0.00  0.00    +0.000 C 
BRANCH  23  24
ATOM     24  C   UNL     1       2.341   7.528  19.322  0.00  0.00    +0.000 A 
ATOM     25  C   UNL     1       2.252   8.191  18.111  0.00  0.00    +0.000 A 
ATOM     26  S   UNL     1       1.243   9.568  18.249  0.00  0.00    +0.000 S 
ATOM     27  C   UNL     1       1.003   9.190  19.901  0.00  0.00    +0.000 A 
ATOM     28  N   UNL     1       1.616   8.113  20.353  0.00  0.00    +0.000 NA
ENDBRANCH  23  24
ENDBRANCH  17  23
ENDBRANCH  16  17
ENDBRANCH   1  16
TORSDOF 5
ENDMDL
MODEL 4
REMARK VINA RESULT:      -7.1      4.104      7.830
REMARK  Name = 
REMARK  7 active torsions:
REMARK  status: ('A' for Active; 'I' for Inactive)
REMARK    1  A    between atoms: C_1  and  N_2
REMARK    2  A    between atoms: N_2  and  C_3
REMARK    3  A    between atoms: C_4  and  C_6
REMARK    4  A    between atoms: C_6  and  C_7
REMARK    5  A    between atoms: C_6  and  C_13
REMARK    6  A    between atoms: C_7  and  C_8
REMARK    7  A    between atoms: C_13  and  N_14
REMARK                            x       y       z     vdW  Elec       q    Type
REMARK                         _______ _______ _______ _____ _____    ______ ____
ROOT
ATOM      1  N   UNL     1       2.657   7.787  19.001  0.00  0.00    +0.000 NA
ATOM      2  C   UNL     1       2.806   8.998  18.190  0.00  0.00    +0.000 C 
ATOM      3  C   UNL     1       1.472   9.638  17.822  0.00  0.00    +0.000 C 
ATOM      4  C   UNL     1       0.611   9.915  19.064  0.00  0.00    +0.000 C 
ATOM      5  C   UNL     1       0.599   8.757  20.071  0.00  0.00    +0.000 C 
ATOM      6  C   UNL     1       1.988   8.139  20.266  0.00  0.00    +0.000 C 
ATOM      7  O   UNL     1       1.134  11.094  19.746  0.00  0.00    +0.000 OA
ATOM      8  C   UNL     1       0.321  12.252  19.440  0.00  0.00    +0.000 C 
ATOM      9  C   UNL     1      -0.928  11.696  18.865  0.00  0.00    +0.000 A 
ATOM     10  C   UNL     1      -2.099  12.351  18.514  0.00  0.00    +0.000 A 
ATOM     11  C   UNL     1      -3.128  11.603  17.937  0.00  0.00    +0.000 A 
ATOM     12  C   UNL     1      -2.961  10.230  17.724  0.00  0.00    +0.000 A 
ATOM     13  F   UNL     1      -3.951   9.530  17.153  0.00  0.00    +0.000 F 
ATOM     14  C   UNL     1      -1.783   9.579  18.076  0.00  0.00    +0.000 A 
ATOM     15  C   UNL     1      -0.770  10.334  18.651  0.00  0.00    +0.000 A 
ENDROOT
BRANCH   1  16
ATOM     16  C   UNL     1       1.992   6.641  18.338  0.00  0.00    +0.000 C 
BRANCH  16  17
ATOM     17  C   UNL     1       2.660   5.248  18.471  0.00  0.00    +0.000 C 
BRANCH  17  21
ATOM     18  C   UNL     1       0.631   2.005  18.860  0.00  0.00    +0.000 C 
ATOM     19  N   UNL     1       1.541   3.097  19.179  0.00  0.00    +0.000 N 
ATOM     20  C   UNL     1       2.244   2.994  20.449  0.00  0.00    +0.000 C 
ATOM     21  C   UNL     1       1.641   4.129  18.247  0.00  0.00    +0.000 C 
ATOM     22  O   UNL     1       1.006   4.065  17.188  0.00  0.00    +0.000 OA
ENDBRANCH  17  21
BRANCH  17  23
ATOM     23  C   UNL     1       3.720   5.045  17.368  0.00  0.00    +0.000 C 
BRANCH  23  24
ATOM     24  C   UNL     1       5.098   5.582  17.619  0.00  0.00    +0.000 A 
ATOM     25  C   UNL     1       5.629   6.709  17.017  0.00  0.00    +0.000 A 
ATOM     26  S   UNL     1       7.247   6.957  17.520  0.00  0.00    +0.000 S 
ATOM     27  C   UNL     1       7.128   5.553  18.494  0.00  0.00    +0.000 A 
ATOM     28  N   UNL     1       5.972   4.919  18.471  0.00  0.00    +0.000 NA
ENDBRANCH  23  24
ENDBRANCH  17  23
ENDBRANCH  16  17
ENDBRANCH   1  16
TORSDOF 5
ENDMDL
MODEL 5
REMARK VINA RESULT:      -6.7      3.667      7.660
REMARK  Name = 
REMARK  7 active torsions:
REMARK  status: ('A' for Active; 'I' for Inactive)
REMARK    1  A    between atoms: C_1  and  N_2
REMARK    2  A    between atoms: N_2  and  C_3
REMARK    3  A    between atoms: C_4  and  C_6
REMARK    4  A    between atoms: C_6  and  C_7
REMARK    5  A    between atoms: C_6  and  C_13
REMARK    6  A    between atoms: C_7  and  C_8
REMARK    7  A    between atoms: C_13  and  N_14
REMARK                            x       y       z     vdW  Elec       q    Type
REMARK                         _______ _______ _______ _____ _____    ______ ____
ROOT
ATOM      1  N   UNL     1       2.815   7.527  18.950  0.00  0.00    +0.000 NA
ATOM      2  C   UNL     1       3.073   8.731  18.155  0.00  0.00    +0.000 C 
ATOM      3  C   UNL     1       1.798   9.417  17.679  0.00  0.00    +0.000 C 
ATOM      4  C   UNL     1       0.847   9.726  18.845  0.00  0.00    +0.000 C 
ATOM      5  C   UNL     1       0.710   8.570  19.845  0.00  0.00    +0.000 C 
ATOM      6  C   UNL     1       2.055   7.905  20.155  0.00  0.00    +0.000 C 
ATOM      7  O   UNL     1       1.352  10.887  19.570  0.00  0.00    +0.000 OA
ATOM      8  C   UNL     1       0.609  12.072  19.199  0.00  0.00    +0.000 C 
ATOM      9  C   UNL     1      -0.607  11.560  18.521  0.00  0.00    +0.000 A 
ATOM     10  C   UNL     1      -1.721  12.256  18.075  0.00  0.00    +0.000 A 
ATOM     11  C   UNL     1      -2.723  11.543  17.412  0.00  0.00    +0.000 A 
ATOM     12  C   UNL     1      -2.588  10.165  17.212  0.00  0.00    +0.000 A 
ATOM     13  F   UNL     1      -3.550   9.500  16.559  0.00  0.00    +0.000 F 
ATOM     14  C   UNL     1      -1.467   9.474  17.660  0.00  0.00    +0.000 A 
ATOM     15  C   UNL     1      -0.479  10.193  18.319  0.00  0.00    +0.000 A 
ENDROOT
BRANCH   1  16
ATOM     16  C   UNL     1       2.167   6.404  18.231  0.00  0.00    +0.000 C 
BRANCH  16  17
ATOM     17  C   UNL     1       2.810   5.000  18.366  0.00  0.00    +0.000 C 
BRANCH  17  21
ATOM     18  C   UNL     1       0.731   2.604  20.540  0.00  0.00    +0.000 C 
ATOM     19  N   UNL     1       1.654   3.672  20.177  0.00  0.00    +0.000 N 
ATOM     20  C   UNL     1       2.343   4.324  21.280  0.00  0.00    +0.000 C 
ATOM     21  C   UNL     1       1.777   3.966  18.820  0.00  0.00    +0.000 C 
ATOM     22  O   UNL     1       1.151   3.302  17.987  0.00  0.00    +0.000 OA
ENDBRANCH  17  21
BRANCH  17  23
ATOM     23  C   UNL     1       3.302   4.492  16.994  0.00  0.00    +0.000 C 
BRANCH  23  24
ATOM     24  C   UNL     1       4.729   4.766  16.621  0.00  0.00    +0.000 A 
ATOM     25  C   UNL     1       5.354   4.287  15.483  0.00  0.00    +0.000 A 
ATOM     26  S   UNL     1       6.996   4.770  15.448  0.00  0.00    +0.000 S 
ATOM     27  C   UNL     1       6.761   5.572  16.943  0.00  0.00    +0.000 A 
ATOM     28  N   UNL     1       5.550   5.507  17.461  0.00  0.00    +0.000 NA
ENDBRANCH  23  24
ENDBRANCH  17  23
ENDBRANCH  16  17
ENDBRANCH   1  16
TORSDOF 5
ENDMDL
MODEL 6
REMARK VINA RESULT:      -6.7      8.407     11.001
REMARK  Name = 
REMARK  7 active torsions:
REMARK  status: ('A' for Active; 'I' for Inactive)
REMARK    1  A    between atoms: C_1  and  N_2
REMARK    2  A    between atoms: N_2  and  C_3
REMARK    3  A    between atoms: C_4  and  C_6
REMARK    4  A    between atoms: C_6  and  C_7
REMARK    5  A    between atoms: C_6  and  C_13
REMARK    6  A    between atoms: C_7  and  C_8
REMARK    7  A    between atoms: C_13  and  N_14
REMARK                            x       y       z     vdW  Elec       q    Type
REMARK                         _______ _______ _______ _____ _____    ______ ____
ROOT
ATOM      1  N   UNL     1       2.075  13.588  21.081  0.00  0.00    +0.000 NA
ATOM      2  C   UNL     1       2.242  13.355  19.645  0.00  0.00    +0.000 C 
ATOM      3  C   UNL     1       1.520  14.386  18.785  0.00  0.00    +0.000 C 
ATOM      4  C   UNL     1       1.924  15.822  19.156  0.00  0.00    +0.000 C 
ATOM      5  C   UNL     1       1.989  16.066  20.670  0.00  0.00    +0.000 C 
ATOM      6  C   UNL     1       2.646  14.903  21.421  0.00  0.00    +0.000 C 
ATOM      7  O   UNL     1       3.246  16.097  18.602  0.00  0.00    +0.000 OA
ATOM      8  C   UNL     1       3.129  16.889  17.397  0.00  0.00    +0.000 C 
ATOM      9  C   UNL     1       1.743  17.416  17.423  0.00  0.00    +0.000 A 
ATOM     10  C   UNL     1       1.137  18.332  16.575  0.00  0.00    +0.000 A 
ATOM     11  C   UNL     1      -0.212  18.631  16.781  0.00  0.00    +0.000 A 
ATOM     12  C   UNL     1      -0.917  18.012  17.819  0.00  0.00    +0.000 A 
ATOM     13  F   UNL     1      -2.215  18.296  17.992  0.00  0.00    +0.000 F 
ATOM     14  C   UNL     1      -0.304  17.092  18.664  0.00  0.00    +0.000 A 
ATOM     15  C   UNL     1       1.038  16.805  18.451  0.00  0.00    +0.000 A 
ENDROOT
BRANCH   1  16
ATOM     16  C   UNL     1       0.696  13.444  21.605  0.00  0.00    +0.000 C 
BRANCH  16  17
ATOM     17  C   UNL     1      -0.221  12.391  20.931  0.00  0.00    +0.000 C 
BRANCH  17  21
ATOM     18  C   UNL     1      -0.423   8.822  22.349  0.00  0.00    +0.000 C 
ATOM     19  N   UNL     1      -0.066   9.927  21.470  0.00  0.00    +0.000 N 
ATOM     20  C   UNL     1       0.682   9.577  20.272  0.00  0.00    +0.000 C 
ATOM     21  C   UNL     1      -0.467  11.203  21.864  0.00  0.00    +0.000 C 
ATOM     22  O   UNL     1      -1.132  11.348  22.896  0.00  0.00    +0.000 OA
ENDBRANCH  17  21
BRANCH  17  23
ATOM     23  C   UNL     1      -1.622  12.981  20.662  0.00  0.00    +0.000 C 
BRANCH  23  24
ATOM     24  C   UNL     1      -2.412  12.405  19.525  0.00  0.00    +0.000 A 
ATOM     25  C   UNL     1      -3.776  12.173  19.548  0.00  0.00    +0.000 A 
ATOM     26  S   UNL     1      -4.291  11.454  18.082  0.00  0.00    +0.000 S 
ATOM     27  C   UNL     1      -2.673  11.498  17.526  0.00  0.00    +0.000 A 
ATOM     28  N   UNL     1      -1.781  12.011  18.352  0.00  0.00    +0.000 NA
ENDBRANCH  23  24
ENDBRANCH  17  23
ENDBRANCH  16  17
ENDBRANCH   1  16
TORSDOF 5
ENDMDL
MODEL 7
REMARK VINA RESULT:      -6.5      1.920      3.584
REMARK  Name = 
REMARK  7 active torsions:
REMARK  status: ('A' for Active; 'I' for Inactive)
REMARK    1  A    between atoms: C_1  and  N_2
REMARK    2  A    between atoms: N_2  and  C_3
REMARK    3  A    between atoms: C_4  and  C_6
REMARK    4  A    between atoms: C_6  and  C_7
REMARK    5  A    between atoms: C_6  and  C_13
REMARK    6  A    between atoms: C_7  and  C_8
REMARK    7  A    between atoms: C_13  and  N_14
REMARK                            x       y       z     vdW  Elec       q    Type
REMARK                         _______ _______ _______ _____ _____    ______ ____
ROOT
ATOM      1  N   UNL     1       5.174   6.136  17.720  0.00  0.00    +0.000 NA
ATOM      2  C   UNL     1       6.149   5.049  17.616  0.00  0.00    +0.000 C 
ATOM      3  C   UNL     1       6.076   4.306  16.288  0.00  0.00    +0.000 C 
ATOM      4  C   UNL     1       6.196   5.263  15.091  0.00  0.00    +0.000 C 
ATOM      5  C   UNL     1       5.363   6.543  15.247  0.00  0.00    +0.000 C 
ATOM      6  C   UNL     1       5.446   7.125  16.662  0.00  0.00    +0.000 C 
ATOM      7  O   UNL     1       7.593   5.655  14.941  0.00  0.00    +0.000 OA
ATOM      8  C   UNL     1       8.211   4.907  13.867  0.00  0.00    +0.000 C 
ATOM      9  C   UNL     1       7.077   4.322  13.112  0.00  0.00    +0.000 A 
ATOM     10  C   UNL     1       7.090   3.616  11.918  0.00  0.00    +0.000 A 
ATOM     11  C   UNL     1       5.879   3.119  11.431  0.00  0.00    +0.000 A 
ATOM     12  C   UNL     1       4.695   3.336  12.144  0.00  0.00    +0.000 A 
ATOM     13  F   UNL     1       3.544   2.837  11.672  0.00  0.00    +0.000 F 
ATOM     14  C   UNL     1       4.689   4.042  13.342  0.00  0.00    +0.000 A 
ATOM     15  C   UNL     1       5.899   4.533  13.815  0.00  0.00    +0.000 A 
ENDROOT
BRANCH   1  16
ATOM     16  C   UNL     1       3.748   5.729  17.727  0.00  0.00    +0.000 C 
BRANCH  16  17
ATOM     17  C   UNL     1       2.830   6.349  18.812  0.00  0.00    +0.000 C 
BRANCH  17  21
ATOM     18  C   UNL     1       1.208   9.835  18.864  0.00  0.00    +0.000 C 
ATOM     19  N   UNL     1       1.713   8.553  19.336  0.00  0.00    +0.000 N 
ATOM     20  C   UNL     1       1.476   8.250  20.740  0.00  0.00    +0.000 C 
ATOM     21  C   UNL     1       2.375   7.753  18.407  0.00  0.00    +0.000 C 
ATOM     22  O   UNL     1       2.472   8.126  17.232  0.00  0.00    +0.000 OA
ENDBRANCH  17  21
BRANCH  17  23
ATOM     23  C   UNL     1       1.526   5.535  18.952  0.00  0.00    +0.000 C 
BRANCH  23  24
ATOM     24  C   UNL     1       1.586   4.254  19.731  0.00  0.00    +0.000 A 
ATOM     25  C   UNL     1       1.790   4.169  21.096  0.00  0.00    +0.000 A 
ATOM     26  S   UNL     1       1.852   2.532  21.596  0.00  0.00    +0.000 S 
ATOM     27  C   UNL     1       1.611   2.057  19.969  0.00  0.00    +0.000 A 
ATOM     28  N   UNL     1       1.485   3.028  19.085  0.00  0.00    +0.000 NA
ENDBRANCH  23  24
ENDBRANCH  17  23
ENDBRANCH  16  17
ENDBRANCH   1  16
TORSDOF 5
ENDMDL
MODEL 8
REMARK VINA RESULT:      -6.5      4.599      6.611
REMARK  Name = 
REMARK  7 active torsions:
REMARK  status: ('A' for Active; 'I' for Inactive)
REMARK    1  A    between atoms: C_1  and  N_2
REMARK    2  A    between atoms: N_2  and  C_3
REMARK    3  A    between atoms: C_4  and  C_6
REMARK    4  A    between atoms: C_6  and  C_7
REMARK    5  A    between atoms: C_6  and  C_13
REMARK    6  A    between atoms: C_7  and  C_8
REMARK    7  A    between atoms: C_13  and  N_14
REMARK                            x       y       z     vdW  Elec       q    Type
REMARK                         _______ _______ _______ _____ _____    ______ ____
ROOT
ATOM      1  N   UNL     1       1.544   8.966  19.404  0.00  0.00    +0.000 NA
ATOM      2  C   UNL     1       2.154   8.288  20.551  0.00  0.00    +0.000 C 
ATOM      3  C   UNL     1       2.094   6.769  20.447  0.00  0.00    +0.000 C 
ATOM      4  C   UNL     1       2.699   6.263  19.127  0.00  0.00    +0.000 C 
ATOM      5  C   UNL     1       2.271   7.085  17.904  0.00  0.00    +0.000 C 
ATOM      6  C   UNL     1       2.277   8.591  18.182  0.00  0.00    +0.000 C 
ATOM      7  O   UNL     1       4.154   6.326  19.222  0.00  0.00    +0.000 OA
ATOM      8  C   UNL     1       4.697   5.012  19.488  0.00  0.00    +0.000 C 
ATOM      9  C   UNL     1       3.588   4.075  19.182  0.00  0.00    +0.000 A 
ATOM     10  C   UNL     1       3.597   2.688  19.146  0.00  0.00    +0.000 A 
ATOM     11  C   UNL     1       2.396   2.027  18.878  0.00  0.00    +0.000 A 
ATOM     12  C   UNL     1       1.226   2.761  18.657  0.00  0.00    +0.000 A 
ATOM     13  F   UNL     1       0.079   2.110  18.420  0.00  0.00    +0.000 F 
ATOM     14  C   UNL     1       1.224   4.151  18.698  0.00  0.00    +0.000 A 
ATOM     15  C   UNL     1       2.423   4.797  18.963  0.00  0.00    +0.000 A 
ENDROOT
BRANCH   1  16
ATOM     16  C   UNL     1       0.084   8.773  19.240  0.00  0.00    +0.000 C 
BRANCH  16  17
ATOM     17  C   UNL     1      -0.789  10.038  19.036  0.00  0.00    +0.000 C 
BRANCH  17  21
ATOM     18  C   UNL     1       0.575  12.961  21.131  0.00  0.00    +0.000 C 
ATOM     19  N   UNL     1      -0.071  11.698  20.801  0.00  0.00    +0.000 N 
ATOM     20  C   UNL     1      -0.681  10.983  21.911  0.00  0.00    +0.000 C 
ATOM     21  C   UNL     1      -0.034  11.298  19.466  0.00  0.00    +0.000 C 
ATOM     22  O   UNL     1       0.493  12.029  18.619  0.00  0.00    +0.000 OA
ENDBRANCH  17  21
BRANCH  17  23
ATOM     23  C   UNL     1      -1.097  10.252  17.540  0.00  0.00    +0.000 C 
BRANCH  23  24
ATOM     24  C   UNL     1      -2.471  10.732  17.174  0.00  0.00    +0.000 A 
ATOM     25  C   UNL     1      -3.428  11.155  18.079  0.00  0.00    +0.000 A 
ATOM     26  S   UNL     1      -4.882  11.565  17.274  0.00  0.00    +0.000 S 
ATOM     27  C   UNL     1      -4.141  11.148  15.788  0.00  0.00    +0.000 A 
ATOM     28  N   UNL     1      -2.892  10.730  15.850  0.00  0.00    +0.000 NA
ENDBRANCH  23  24
ENDBRANCH  17  23
ENDBRANCH  16  17
ENDBRANCH   1  16
TORSDOF 5
ENDMDL
MODEL 9
REMARK VINA RESULT:      -6.4      3.060      7.208
REMARK  Name = 
REMARK  7 active torsions:
REMARK  status: ('A' for Active; 'I' for Inactive)
REMARK    1  A    between atoms: C_1  and  N_2
REMARK    2  A    between atoms: N_2  and  C_3
REMARK    3  A    between atoms: C_4  and  C_6
REMARK    4  A    between atoms: C_6  and  C_7
REMARK    5  A    between atoms: C_6  and  C_13
REMARK    6  A    between atoms: C_7  and  C_8
REMARK    7  A    between atoms: C_13  and  N_14
REMARK                            x       y       z     vdW  Elec       q    Type
REMARK                         _______ _______ _______ _____ _____    ______ ____
ROOT
ATOM      1  N   UNL     1       4.422   3.388  17.039  0.00  0.00    +0.000 NA
ATOM      2  C   UNL     1       4.930   3.765  18.360  0.00  0.00    +0.000 C 
ATOM      3  C   UNL     1       4.351   5.080  18.869  0.00  0.00    +0.000 C 
ATOM      4  C   UNL     1       2.815   5.070  18.857  0.00  0.00    +0.000 C 
ATOM      5  C   UNL     1       2.217   4.469  17.578  0.00  0.00    +0.000 C 
ATOM      6  C   UNL     1       2.962   3.209  17.122  0.00  0.00    +0.000 C 
ATOM      7  O   UNL     1       2.341   4.277  19.987  0.00  0.00    +0.000 OA
ATOM      8  C   UNL     1       1.909   5.144  21.062  0.00  0.00    +0.000 C 
ATOM      9  C   UNL     1       1.770   6.482  20.437  0.00  0.00    +0.000 A 
ATOM     10  C   UNL     1       1.267   7.655  20.980  0.00  0.00    +0.000 A 
ATOM     11  C   UNL     1       1.290   8.810  20.194  0.00  0.00    +0.000 A 
ATOM     12  C   UNL     1       1.813   8.765  18.897  0.00  0.00    +0.000 A 
ATOM     13  F   UNL     1       1.844   9.885  18.163  0.00  0.00    +0.000 F 
ATOM     14  C   UNL     1       2.318   7.585  18.360  0.00  0.00    +0.000 A 
ATOM     15  C   UNL     1       2.287   6.444  19.150  0.00  0.00    +0.000 A 
ENDROOT
BRANCH   1  16
ATOM     16  C   UNL     1       4.794   4.288  15.921  0.00  0.00    +0.000 C 
BRANCH  16  17
ATOM     17  C   UNL     1       6.172   4.995  15.997  0.00  0.00    +0.000 C 
BRANCH  17  21
ATOM     18  C   UNL     1       7.101   4.149  12.363  0.00  0.00    +0.000 C 
ATOM     19  N   UNL     1       6.335   4.215  13.600  0.00  0.00    +0.000 N 
ATOM     20  C   UNL     1       5.078   3.482  13.614  0.00  0.00    +0.000 C 
ATOM     21  C   UNL     1       6.873   4.976  14.637  0.00  0.00    +0.000 C 
ATOM     22  O   UNL     1       7.974   5.519  14.494  0.00  0.00    +0.000 OA
ENDBRANCH  17  21
BRANCH  17  23
ATOM     23  C   UNL     1       5.997   6.492  16.331  0.00  0.00    +0.000 C 
BRANCH  23  24
ATOM     24  C   UNL     1       6.965   7.105  17.300  0.00  0.00    +0.000 A 
ATOM     25  C   UNL     1       7.346   8.436  17.301  0.00  0.00    +0.000 A 
ATOM     26  S   UNL     1       8.509   8.730  18.522  0.00  0.00    +0.000 S 
ATOM     27  C   UNL     1       8.428   7.076  18.956  0.00  0.00    +0.000 A 
ATOM     28  N   UNL     1       7.596   6.325  18.260  0.00  0.00    +0.000 NA
ENDBRANCH  23  24
ENDBRANCH  17  23
ENDBRANCH  16  17
ENDBRANCH   1  16
TORSDOF 5
ENDMDL
