MODEL 1
REMARK VINA RESULT:      -7.7      0.000      0.000
REMARK  Name = 
REMARK  5 active torsions:
REMARK  status: ('A' for Active; 'I' for Inactive)
REMARK    1  A    between atoms: C_1  and  N_2
REMARK    2  A    between atoms: N_2  and  C_3
REMARK    3  A    between atoms: C_3  and  C_4
REMARK    4  A    between atoms: C_9  and  C_10
REMARK    5  A    between atoms: C_10  and  C_11
REMARK                            x       y       z     vdW  Elec       q    Type
REMARK                         _______ _______ _______ _____ _____    ______ ____
ROOT
ATOM      1  C   UNL     1       4.015   6.196  17.420  0.00  0.00    +0.000 C 
ENDROOT
BRANCH   1   2
ATOM      2  C   UNL     1       3.000   5.893  18.521  0.00  0.00    +0.000 A 
ATOM      3  C   UNL     1       2.616   6.884  19.443  0.00  0.00    +0.000 A 
ATOM      4  C   UNL     1       1.713   6.609  20.467  0.00  0.00    +0.000 A 
ATOM      5  C   UNL     1       1.166   5.337  20.592  0.00  0.00    +0.000 A 
ATOM      6  C   UNL     1       1.505   4.324  19.690  0.00  0.00    +0.000 A 
ATOM      7  C   UNL     1       0.923   3.050  19.834  0.00  0.00    +0.000 A 
ATOM      8  C   UNL     1       1.225   2.018  18.952  0.00  0.00    +0.000 A 
ATOM      9  C   UNL     1       2.127   2.244  17.921  0.00  0.00    +0.000 A 
ATOM     10  C   UNL     1       2.724   3.501  17.773  0.00  0.00    +0.000 A 
ATOM     11  C   UNL     1       2.431   4.580  18.644  0.00  0.00    +0.000 A 
ENDBRANCH   1   2
BRANCH   1  17
ATOM     12  C   UNL     1       6.103   4.924  16.516  0.00  0.00    +0.000 A 
ATOM     13  C   UNL     1       7.420   4.472  16.755  0.00  0.00    +0.000 A 
ATOM     14  C   UNL     1       8.062   4.703  17.968  0.00  0.00    +0.000 A 
ATOM     15  C   UNL     1       7.401   5.394  18.972  0.00  0.00    +0.000 A 
ATOM     16  C   UNL     1       6.098   5.844  18.764  0.00  0.00    +0.000 A 
ATOM     17  C   UNL     1       5.424   5.627  17.541  0.00  0.00    +0.000 A 
BRANCH  12  18
ATOM     18  C   UNL     1       5.532   4.661  15.136  0.00  0.00    +0.000 C 
BRANCH  18  20
ATOM     19  C   UNL     1       5.885   3.661  12.956  0.00  0.00    +0.000 C 
ATOM     20  N   UNL     1       6.243   3.628  14.369  0.00  0.00    +0.000 NA
ATOM     21  H   UNL     1       7.243   3.803  14.460  0.00  0.00    +0.000 HD
ENDBRANCH  18  20
ENDBRANCH  12  18
ENDBRANCH   1  17
TORSDOF 4
ENDMDL
MODEL 2
REMARK VINA RESULT:      -7.7      2.318      5.203
REMARK  Name = 
REMARK  5 active torsions:
REMARK  status: ('A' for Active; 'I' for Inactive)
REMARK    1  A    between atoms: C_1  and  N_2
REMARK    2  A    between atoms: N_2  and  C_3
REMARK    3  A    between atoms: C_3  and  C_4
REMARK    4  A    between atoms: C_9  and  C_10
REMARK    5  A    between atoms: C_10  and  C_11
REMARK                            x       y       z     vdW  Elec       q    Type
REMARK                         _______ _______ _______ _____ _____    ______ ____
ROOT
ATOM      1  C   UNL     1       2.593   6.002  20.175  0.00  0.00    +0.000 C 
ENDROOT
BRANCH   1   2
ATOM      2  C   UNL     1       2.178   7.314  19.511  0.00  0.00    +0.000 A 
ATOM      3  C   UNL     1       2.560   7.606  18.189  0.00  0.00    +0.000 A 
ATOM      4  C   UNL     1       2.210   8.812  17.585  0.00  0.00    +0.000 A 
ATOM      5  C   UNL     1       1.466   9.754  18.285  0.00  0.00    +0.000 A 
ATOM      6  C   UNL     1       1.051   9.501  19.597  0.00  0.00    +0.000 A 
ATOM      7  C   UNL     1       0.285  10.469  20.275  0.00  0.00    +0.000 A 
ATOM      8  C   UNL     1      -0.157  10.252  21.576  0.00  0.00    +0.000 A 
ATOM      9  C   UNL     1       0.175   9.068  22.221  0.00  0.00    +0.000 A 
ATOM     10  C   UNL     1       0.947   8.103  21.564  0.00  0.00    +0.000 A 
ATOM     11  C   UNL     1       1.403   8.282  20.235  0.00  0.00    +0.000 A 
ENDBRANCH   1   2
BRANCH   1  17
ATOM     12  C   UNL     1       3.785   4.200  18.716  0.00  0.00    +0.000 A 
ATOM     13  C   UNL     1       3.677   2.995  17.986  0.00  0.00    +0.000 A 
ATOM     14  C   UNL     1       2.465   2.321  17.865  0.00  0.00    +0.000 A 
ATOM     15  C   UNL     1       1.331   2.835  18.473  0.00  0.00    +0.000 A 
ATOM     16  C   UNL     1       1.409   4.027  19.194  0.00  0.00    +0.000 A 
ATOM     17  C   UNL     1       2.627   4.730  19.336  0.00  0.00    +0.000 A 
BRANCH  12  18
ATOM     18  C   UNL     1       5.168   4.810  18.824  0.00  0.00    +0.000 C 
BRANCH  18  20
ATOM     19  C   UNL     1       7.409   4.781  17.899  0.00  0.00    +0.000 C 
ATOM     20  N   UNL     1       6.245   3.982  18.263  0.00  0.00    +0.000 NA
ATOM     21  H   UNL     1       6.520   3.303  18.972  0.00  0.00    +0.000 HD
ENDBRANCH  18  20
ENDBRANCH  12  18
ENDBRANCH   1  17
TORSDOF 4
ENDMDL
MODEL 3
REMARK VINA RESULT:      -7.5      2.416      5.420
REMARK  Name = 
REMARK  5 active torsions:
REMARK  status: ('A' for Active; 'I' for Inactive)
REMARK    1  A    between atoms: C_1  and  N_2
REMARK    2  A    between atoms: N_2  and  C_3
REMARK    3  A    between atoms: C_3  and  C_4
REMARK    4  A    between atoms: C_9  and  C_10
REMARK    5  A    between atoms: C_10  and  C_11
REMARK                            x       y       z     vdW  Elec       q    Type
REMARK                         _______ _______ _______ _____ _____    ______ ____
ROOT
ATOM      1  C   UNL     1       2.690   6.395  20.010  0.00  0.00    +0.000 C 
ENDROOT
BRANCH   1   2
ATOM      2  C   UNL     1       2.066   7.683  19.475  0.00  0.00    +0.000 A 
ATOM      3  C   UNL     1       2.227   8.058  18.129  0.00  0.00    +0.000 A 
ATOM      4  C   UNL     1       1.685   9.245  17.639  0.00  0.00    +0.000 A 
ATOM      5  C   UNL     1       0.965  10.083  18.481  0.00  0.00    +0.000 A 
ATOM      6  C   UNL     1       0.766   9.745  19.824  0.00  0.00    +0.000 A 
ATOM      7  C   UNL     1       0.019  10.608  20.648  0.00  0.00    +0.000 A 
ATOM      8  C   UNL     1      -0.212  10.303  21.985  0.00  0.00    +0.000 A 
ATOM      9  C   UNL     1       0.316   9.135  22.519  0.00  0.00    +0.000 A 
ATOM     10  C   UNL     1       1.072   8.274  21.715  0.00  0.00    +0.000 A 
ATOM     11  C   UNL     1       1.316   8.544  20.346  0.00  0.00    +0.000 A 
ENDBRANCH   1   2
BRANCH   1  17
ATOM     12  C   UNL     1       2.592   4.412  18.320  0.00  0.00    +0.000 A 
ATOM     13  C   UNL     1       2.035   3.158  17.985  0.00  0.00    +0.000 A 
ATOM     14  C   UNL     1       1.081   2.544  18.792  0.00  0.00    +0.000 A 
ATOM     15  C   UNL     1       0.662   3.170  19.956  0.00  0.00    +0.000 A 
ATOM     16  C   UNL     1       1.191   4.413  20.305  0.00  0.00    +0.000 A 
ATOM     17  C   UNL     1       2.163   5.056  19.507  0.00  0.00    +0.000 A 
BRANCH  12  18
ATOM     18  C   UNL     1       3.662   4.953  17.393  0.00  0.00    +0.000 C 
BRANCH  18  20
ATOM     19  C   UNL     1       5.455   3.917  16.132  0.00  0.00    +0.000 C 
ATOM     20  N   UNL     1       4.944   4.236  17.460  0.00  0.00    +0.000 NA
ATOM     21  H   UNL     1       5.616   4.837  17.935  0.00  0.00    +0.000 HD
ENDBRANCH  18  20
ENDBRANCH  12  18
ENDBRANCH   1  17
TORSDOF 4
ENDMDL
MODEL 4
REMARK VINA RESULT:      -7.5      0.989      2.656
REMARK  Name = 
REMARK  5 active torsions:
REMARK  status: ('A' for Active; 'I' for Inactive)
REMARK    1  A    between atoms: C_1  and  N_2
REMARK    2  A    between atoms: N_2  and  C_3
REMARK    3  A    between atoms: C_3  and  C_4
REMARK    4  A    between atoms: C_9  and  C_10
REMARK    5  A    between atoms: C_10  and  C_11
REMARK                            x       y       z     vdW  Elec       q    Type
REMARK                         _______ _______ _______ _____ _____    ______ ____
ROOT
ATOM      1  C   UNL     1       3.448   3.945  16.982  0.00  0.00    +0.000 C 
ENDROOT
BRANCH   1   2
ATOM      2  C   UNL     1       2.671   3.920  18.298  0.00  0.00    +0.000 A 
ATOM      3  C   UNL     1       2.260   2.703  18.870  0.00  0.00    +0.000 A 
ATOM      4  C   UNL     1       1.526   2.672  20.055  0.00  0.00    +0.000 A 
ATOM      5  C   UNL     1       1.192   3.857  20.700  0.00  0.00    +0.000 A 
ATOM      6  C   UNL     1       1.593   5.090  20.177  0.00  0.00    +0.000 A 
ATOM      7  C   UNL     1       1.251   6.272  20.862  0.00  0.00    +0.000 A 
ATOM      8  C   UNL     1       1.640   7.518  20.381  0.00  0.00    +0.000 A 
ATOM      9  C   UNL     1       2.364   7.598  19.200  0.00  0.00    +0.000 A 
ATOM     10  C   UNL     1       2.700   6.433  18.501  0.00  0.00    +0.000 A 
ATOM     11  C   UNL     1       2.333   5.145  18.966  0.00  0.00    +0.000 A 
ENDBRANCH   1   2
BRANCH   1  17
ATOM     12  C   UNL     1       5.797   4.206  15.882  0.00  0.00    +0.000 A 
ATOM     13  C   UNL     1       7.177   4.452  16.062  0.00  0.00    +0.000 A 
ATOM     14  C   UNL     1       7.723   4.663  17.325  0.00  0.00    +0.000 A 
ATOM     15  C   UNL     1       6.900   4.635  18.440  0.00  0.00    +0.000 A 
ATOM     16  C   UNL     1       5.535   4.386  18.291  0.00  0.00    +0.000 A 
ATOM     17  C   UNL     1       4.955   4.172  17.021  0.00  0.00    +0.000 A 
BRANCH  12  18
ATOM     18  C   UNL     1       5.313   4.048  14.455  0.00  0.00    +0.000 C 
BRANCH  18  20
ATOM     19  C   UNL     1       5.762   3.267  12.204  0.00  0.00    +0.000 C 
ATOM     20  N   UNL     1       6.327   3.541  13.520  0.00  0.00    +0.000 NA
ATOM     21  H   UNL     1       7.050   4.253  13.425  0.00  0.00    +0.000 HD
ENDBRANCH  18  20
ENDBRANCH  12  18
ENDBRANCH   1  17
TORSDOF 4
ENDMDL
MODEL 5
REMARK VINA RESULT:      -7.3      2.054      6.173
REMARK  Name = 
REMARK  5 active torsions:
REMARK  status: ('A' for Active; 'I' for Inactive)
REMARK    1  A    between atoms: C_1  and  N_2
REMARK    2  A    between atoms: N_2  and  C_3
REMARK    3  A    between atoms: C_3  and  C_4
REMARK    4  A    between atoms: C_9  and  C_10
REMARK    5  A    between atoms: C_10  and  C_11
REMARK                            x       y       z     vdW  Elec       q    Type
REMARK                         _______ _______ _______ _____ _____    ______ ____
ROOT
ATOM      1  C   UNL     1       3.204   5.670  17.940  0.00  0.00    +0.000 C 
ENDROOT
BRANCH   1   2
ATOM      2  C   UNL     1       4.719   5.468  17.970  0.00  0.00    +0.000 A 
ATOM      3  C   UNL     1       5.441   5.604  19.169  0.00  0.00    +0.000 A 
ATOM      4  C   UNL     1       6.826   5.449  19.201  0.00  0.00    +0.000 A 
ATOM      5  C   UNL     1       7.522   5.149  18.036  0.00  0.00    +0.000 A 
ATOM      6  C   UNL     1       6.844   4.989  16.822  0.00  0.00    +0.000 A 
ATOM      7  C   UNL     1       7.576   4.671  15.662  0.00  0.00    +0.000 A 
ATOM      8  C   UNL     1       6.939   4.492  14.438  0.00  0.00    +0.000 A 
ATOM      9  C   UNL     1       5.562   4.645  14.358  0.00  0.00    +0.000 A 
ATOM     10  C   UNL     1       4.823   4.974  15.500  0.00  0.00    +0.000 A 
ATOM     11  C   UNL     1       5.434   5.151  16.766  0.00  0.00    +0.000 A 
ENDBRANCH   1   2
BRANCH   1  17
ATOM     12  C   UNL     1       1.876   4.837  20.023  0.00  0.00    +0.000 A 
ATOM     13  C   UNL     1       1.031   3.853  20.582  0.00  0.00    +0.000 A 
ATOM     14  C   UNL     1       0.619   2.742  19.851  0.00  0.00    +0.000 A 
ATOM     15  C   UNL     1       1.044   2.590  18.540  0.00  0.00    +0.000 A 
ATOM     16  C   UNL     1       1.885   3.543  17.967  0.00  0.00    +0.000 A 
ATOM     17  C   UNL     1       2.314   4.681  18.685  0.00  0.00    +0.000 A 
BRANCH  12  18
ATOM     18  C   UNL     1       2.209   6.029  20.898  0.00  0.00    +0.000 C 
BRANCH  18  20
ATOM     19  C   UNL     1       1.160   8.200  21.153  0.00  0.00    +0.000 C 
ATOM     20  N   UNL     1       1.942   7.334  20.278  0.00  0.00    +0.000 NA
ATOM     21  H   UNL     1       2.838   7.781  20.089  0.00  0.00    +0.000 HD
ENDBRANCH  18  20
ENDBRANCH  12  18
ENDBRANCH   1  17
TORSDOF 4
ENDMDL
MODEL 6
REMARK VINA RESULT:      -7.3      2.191      6.013
REMARK  Name = 
REMARK  5 active torsions:
REMARK  status: ('A' for Active; 'I' for Inactive)
REMARK    1  A    between atoms: C_1  and  N_2
REMARK    2  A    between atoms: N_2  and  C_3
REMARK    3  A    between atoms: C_3  and  C_4
REMARK    4  A    between atoms: C_9  and  C_10
REMARK    5  A    between atoms: C_10  and  C_11
REMARK                            x       y       z     vdW  Elec       q    Type
REMARK                         _______ _______ _______ _____ _____    ______ ____
ROOT
ATOM      1  C   UNL     1       3.220   5.143  18.117  0.00  0.00    +0.000 C 
ENDROOT
BRANCH   1   2
ATOM      2  C   UNL     1       4.747   5.139  18.044  0.00  0.00    +0.000 A 
ATOM      3  C   UNL     1       5.524   5.372  19.193  0.00  0.00    +0.000 A 
ATOM      4  C   UNL     1       6.916   5.399  19.130  0.00  0.00    +0.000 A 
ATOM      5  C   UNL     1       7.565   5.186  17.920  0.00  0.00    +0.000 A 
ATOM      6  C   UNL     1       6.834   4.935  16.754  0.00  0.00    +0.000 A 
ATOM      7  C   UNL     1       7.520   4.709  15.546  0.00  0.00    +0.000 A 
ATOM      8  C   UNL     1       6.831   4.444  14.367  0.00  0.00    +0.000 A 
ATOM      9  C   UNL     1       5.443   4.416  14.380  0.00  0.00    +0.000 A 
ATOM     10  C   UNL     1       4.746   4.653  15.570  0.00  0.00    +0.000 A 
ATOM     11  C   UNL     1       5.414   4.912  16.793  0.00  0.00    +0.000 A 
ENDBRANCH   1   2
BRANCH   1  17
ATOM     12  C   UNL     1       1.945   6.134  20.163  0.00  0.00    +0.000 A 
ATOM     13  C   UNL     1       1.351   7.267  20.763  0.00  0.00    +0.000 A 
ATOM     14  C   UNL     1       1.322   8.502  20.122  0.00  0.00    +0.000 A 
ATOM     15  C   UNL     1       1.889   8.634  18.864  0.00  0.00    +0.000 A 
ATOM     16  C   UNL     1       2.476   7.529  18.246  0.00  0.00    +0.000 A 
ATOM     17  C   UNL     1       2.522   6.266  18.877  0.00  0.00    +0.000 A 
BRANCH  12  18
ATOM     18  C   UNL     1       1.965   4.860  20.984  0.00  0.00    +0.000 C 
BRANCH  18  20
ATOM     19  C   UNL     1       1.475   2.543  20.462  0.00  0.00    +0.000 C 
ATOM     20  N   UNL     1       0.927   3.885  20.620  0.00  0.00    +0.000 NA
ATOM     21  H   UNL     1       0.234   3.871  21.367  0.00  0.00    +0.000 HD
ENDBRANCH  18  20
ENDBRANCH  12  18
ENDBRANCH   1  17
TORSDOF 4
ENDMDL
MODEL 7
REMARK VINA RESULT:      -7.3      3.317      6.627
REMARK  Name = 
REMARK  5 active torsions:
REMARK  status: ('A' for Active; 'I' for Inactive)
REMARK    1  A    between atoms: C_1  and  N_2
REMARK    2  A    between atoms: N_2  and  C_3
REMARK    3  A    between atoms: C_3  and  C_4
REMARK    4  A    between atoms: C_9  and  C_10
REMARK    5  A    between atoms: C_10  and  C_11
REMARK                            x       y       z     vdW  Elec       q    Type
REMARK                         _______ _______ _______ _____ _____    ______ ____
ROOT
ATOM      1  C   UNL     1       2.604   6.510  19.934  0.00  0.00    +0.000 C 
ENDROOT
BRANCH   1   2
ATOM      2  C   UNL     1       2.652   5.353  18.936  0.00  0.00    +0.000 A 
ATOM      3  C   UNL     1       1.579   4.451  18.825  0.00  0.00    +0.000 A 
ATOM      4  C   UNL     1       1.626   3.377  17.938  0.00  0.00    +0.000 A 
ATOM      5  C   UNL     1       2.745   3.181  17.137  0.00  0.00    +0.000 A 
ATOM      6  C   UNL     1       3.831   4.062  17.203  0.00  0.00    +0.000 A 
ATOM      7  C   UNL     1       4.944   3.845  16.368  0.00  0.00    +0.000 A 
ATOM      8  C   UNL     1       6.038   4.703  16.394  0.00  0.00    +0.000 A 
ATOM      9  C   UNL     1       6.038   5.782  17.268  0.00  0.00    +0.000 A 
ATOM     10  C   UNL     1       4.945   6.002  18.113  0.00  0.00    +0.000 A 
ATOM     11  C   UNL     1       3.807   5.158  18.105  0.00  0.00    +0.000 A 
ENDBRANCH   1   2
BRANCH   1  17
ATOM     12  C   UNL     1       1.301   8.728  20.358  0.00  0.00    +0.000 A 
ATOM     13  C   UNL     1       0.796   9.935  19.824  0.00  0.00    +0.000 A 
ATOM     14  C   UNL     1       0.954  10.262  18.480  0.00  0.00    +0.000 A 
ATOM     15  C   UNL     1       1.624   9.388  17.637  0.00  0.00    +0.000 A 
ATOM     16  C   UNL     1       2.126   8.187  18.138  0.00  0.00    +0.000 A 
ATOM     17  C   UNL     1       1.983   7.833  19.498  0.00  0.00    +0.000 A 
BRANCH  12  18
ATOM     18  C   UNL     1       1.116   8.510  21.847  0.00  0.00    +0.000 C 
BRANCH  18  20
ATOM     19  C   UNL     1      -0.395   9.787  23.249  0.00  0.00    +0.000 C 
ATOM     20  N   UNL     1       0.921   9.743  22.623  0.00  0.00    +0.000 NA
ATOM     21  H   UNL     1       1.633   9.771  23.352  0.00  0.00    +0.000 HD
ENDBRANCH  18  20
ENDBRANCH  12  18
ENDBRANCH   1  17
TORSDOF 4
ENDMDL
MODEL 8
REMARK VINA RESULT:      -7.3      3.038      5.897
REMARK  Name = 
REMARK  5 active torsions:
REMARK  status: ('A' for Active; 'I' for Inactive)
REMARK    1  A    between atoms: C_1  and  N_2
REMARK    2  A    between atoms: N_2  and  C_3
REMARK    3  A    between atoms: C_3  and  C_4
REMARK    4  A    between atoms: C_9  and  C_10
REMARK    5  A    between atoms: C_10  and  C_11
REMARK                            x       y       z     vdW  Elec       q    Type
REMARK                         _______ _______ _______ _____ _____    ______ ____
ROOT
ATOM      1  C   UNL     1       2.830   6.499  19.802  0.00  0.00    +0.000 C 
ENDROOT
BRANCH   1   2
ATOM      2  C   UNL     1       2.172   7.792  19.322  0.00  0.00    +0.000 A 
ATOM      3  C   UNL     1       2.367   8.257  18.010  0.00  0.00    +0.000 A 
ATOM      4  C   UNL     1       1.794   9.450  17.572  0.00  0.00    +0.000 A 
ATOM      5  C   UNL     1       1.007  10.204  18.435  0.00  0.00    +0.000 A 
ATOM      6  C   UNL     1       0.773   9.774  19.745  0.00  0.00    +0.000 A 
ATOM      7  C   UNL     1      -0.041  10.552  20.590  0.00  0.00    +0.000 A 
ATOM      8  C   UNL     1      -0.309  10.155  21.895  0.00  0.00    +0.000 A 
ATOM      9  C   UNL     1       0.248   8.977  22.377  0.00  0.00    +0.000 A 
ATOM     10  C   UNL     1       1.070   8.199  21.553  0.00  0.00    +0.000 A 
ATOM     11  C   UNL     1       1.354   8.565  20.214  0.00  0.00    +0.000 A 
ENDBRANCH   1   2
BRANCH   1  17
ATOM     12  C   UNL     1       1.865   4.186  19.083  0.00  0.00    +0.000 A 
ATOM     13  C   UNL     1       1.898   3.115  18.162  0.00  0.00    +0.000 A 
ATOM     14  C   UNL     1       2.791   3.097  17.094  0.00  0.00    +0.000 A 
ATOM     15  C   UNL     1       3.671   4.154  16.920  0.00  0.00    +0.000 A 
ATOM     16  C   UNL     1       3.664   5.220  17.819  0.00  0.00    +0.000 A 
ATOM     17  C   UNL     1       2.766   5.265  18.909  0.00  0.00    +0.000 A 
BRANCH  12  18
ATOM     18  C   UNL     1       0.811   4.119  20.170  0.00  0.00    +0.000 C 
BRANCH  18  20
ATOM     19  C   UNL     1       2.088   2.927  21.852  0.00  0.00    +0.000 C 
ATOM     20  N   UNL     1       0.890   2.923  21.021  0.00  0.00    +0.000 NA
ATOM     21  H   UNL     1       0.070   2.913  21.626  0.00  0.00    +0.000 HD
ENDBRANCH  18  20
ENDBRANCH  12  18
ENDBRANCH   1  17
TORSDOF 4
ENDMDL
MODEL 9
REMARK VINA RESULT:      -7.2      1.617      3.155
REMARK  Name = 
REMARK  5 active torsions:
REMARK  status: ('A' for Active; 'I' for Inactive)
REMARK    1  A    between atoms: C_1  and  N_2
REMARK    2  A    between atoms: N_2  and  C_3
REMARK    3  A    between atoms: C_3  and  C_4
REMARK    4  A    between atoms: C_9  and  C_10
REMARK    5  A    between atoms: C_10  and  C_11
REMARK                            x       y       z     vdW  Elec       q    Type
REMARK                         _______ _______ _______ _____ _____    ______ ____
ROOT
ATOM      1  C   UNL     1       4.638   3.549  17.053  0.00  0.00    +0.000 C 
ENDROOT
BRANCH   1   2
ATOM      2  C   UNL     1       3.789   4.569  17.812  0.00  0.00    +0.000 A 
ATOM      3  C   UNL     1       3.843   5.937  17.488  0.00  0.00    +0.000 A 
ATOM      4  C   UNL     1       3.095   6.877  18.194  0.00  0.00    +0.000 A 
ATOM      5  C   UNL     1       2.269   6.472  19.237  0.00  0.00    +0.000 A 
ATOM      6  C   UNL     1       2.172   5.121  19.585  0.00  0.00    +0.000 A 
ATOM      7  C   UNL     1       1.316   4.741  20.636  0.00  0.00    +0.000 A 
ATOM      8  C   UNL     1       1.181   3.407  21.006  0.00  0.00    +0.000 A 
ATOM      9  C   UNL     1       1.915   2.436  20.336  0.00  0.00    +0.000 A 
ATOM     10  C   UNL     1       2.780   2.800  19.298  0.00  0.00    +0.000 A 
ATOM     11  C   UNL     1       2.932   4.147  18.884  0.00  0.00    +0.000 A 
ENDBRANCH   1   2
BRANCH   1  17
ATOM     12  C   UNL     1       6.889   4.559  16.211  0.00  0.00    +0.000 A 
ATOM     13  C   UNL     1       7.678   4.960  15.109  0.00  0.00    +0.000 A 
ATOM     14  C   UNL     1       7.211   4.858  13.801  0.00  0.00    +0.000 A 
ATOM     15  C   UNL     1       5.943   4.351  13.564  0.00  0.00    +0.000 A 
ATOM     16  C   UNL     1       5.141   3.955  14.635  0.00  0.00    +0.000 A 
ATOM     17  C   UNL     1       5.591   4.044  15.971  0.00  0.00    +0.000 A 
BRANCH  12  18
ATOM     18  C   UNL     1       7.527   4.665  17.581  0.00  0.00    +0.000 C 
BRANCH  18  20
ATOM     19  C   UNL     1       7.633   7.075  17.822  0.00  0.00    +0.000 C 
ATOM     20  N   UNL     1       7.098   5.833  18.364  0.00  0.00    +0.000 NA
ATOM     21  H   UNL     1       6.080   5.873  18.335  0.00  0.00    +0.000 HD
ENDBRANCH  18  20
ENDBRANCH  12  18
ENDBRANCH   1  17
TORSDOF 4
ENDMDL
