MODEL 1
REMARK VINA RESULT:      -9.2      0.000      0.000
REMARK  Name = 
REMARK  9 active torsions:
REMARK  status: ('A' for Active; 'I' for Inactive)
REMARK    1  A    between atoms: C_1  and  C_2
REMARK    2  A    between atoms: C_2  and  C_12
REMARK    3  A    between atoms: C_3  and  C_4
REMARK    4  A    between atoms: C_4  and  C_5
REMARK    5  A    between atoms: C_16  and  O_17
REMARK    6  A    between atoms: O_17  and  C_18
REMARK    7  A    between atoms: C_18  and  C_19
REMARK    8  A    between atoms: C_21  and  C_22
REMARK    9  A    between atoms: C_29  and  C_30
REMARK                            x       y       z     vdW  Elec       q    Type
REMARK                         _______ _______ _______ _____ _____    ______ ____
ROOT
ATOM      1  C   UNL     1       2.509   6.308  19.875  0.00  0.00    +0.000 A 
ATOM      2  C   UNL     1       1.655   5.445  20.568  0.00  0.00    +0.000 A 
ATOM      3  C   UNL     1       2.052   4.138  20.853  0.00  0.00    +0.000 A 
ATOM      4  C   UNL     1       3.303   3.687  20.436  0.00  0.00    +0.000 A 
ATOM      5  C   UNL     1       4.143   4.526  19.705  0.00  0.00    +0.000 A 
ATOM      6  C   UNL     1       3.752   5.836  19.428  0.00  0.00    +0.000 A 
ENDROOT
BRANCH   1   8
ATOM      7  C   UNL     1       2.492   8.248  18.284  0.00  0.00    +0.000 C 
ATOM      8  C   UNL     1       2.127   7.711  19.640  0.00  0.00    +0.000 C 
ATOM      9  C   UNL     1       1.480   8.385  20.608  0.00  0.00    +0.000 C 
BRANCH   9  10
ATOM     10  C   UNL     1       1.009   9.819  20.527  0.00  0.00    +0.000 C 
BRANCH  10  11
ATOM     11  C   UNL     1      -0.398  10.093  21.075  0.00  0.00    +0.000 C 
ATOM     12  S   UNL     1      -1.288  11.370  20.119  0.00  0.00    +0.000 S 
ATOM     13  C   UNL     1      -1.278  12.499  21.449  0.00  0.00    +0.000 C 
ATOM     14  O   UNL     1      -1.695  13.642  21.376  0.00  0.00    +0.000 OA
ATOM     15  N   UNL     1      -0.774  11.920  22.562  0.00  0.00    +0.000 N 
ATOM     16  C   UNL     1      -0.378  10.618  22.497  0.00  0.00    +0.000 C 
ATOM     17  O   UNL     1      -0.052   9.968  23.479  0.00  0.00    +0.000 OA
ATOM     18  H   UNL     1      -0.793  12.414  23.439  0.00  0.00    +0.000 HD
ENDBRANCH  10  11
ENDBRANCH   9  10
ENDBRANCH   1   8
BRANCH   5  19
ATOM     19  O   UNL     1       5.340   3.979  19.346  0.00  0.00    +0.000 OA
BRANCH  19  20
ATOM     20  C   UNL     1       6.433   4.895  19.228  0.00  0.00    +0.000 C 
BRANCH  20  21
ATOM     21  C   UNL     1       6.684   5.232  17.803  0.00  0.00    +0.000 A 
ATOM     22  N   UNL     1       6.348   4.354  16.794  0.00  0.00    +0.000 NA
ATOM     23  C   UNL     1       6.721   4.972  15.691  0.00  0.00    +0.000 A 
ATOM     24  O   UNL     1       7.280   6.205  15.904  0.00  0.00    +0.000 OA
ATOM     25  C   UNL     1       7.235   6.371  17.255  0.00  0.00    +0.000 A 
ATOM     26  C   UNL     1       7.737   7.645  17.795  0.00  0.00    +0.000 C 
BRANCH  23  27
ATOM     27  C   UNL     1       6.598   4.549  14.303  0.00  0.00    +0.000 A 
ATOM     28  C   UNL     1       5.474   3.824  13.884  0.00  0.00    +0.000 A 
ATOM     29  C   UNL     1       5.347   3.417  12.553  0.00  0.00    +0.000 A 
ATOM     30  C   UNL     1       6.345   3.730  11.631  0.00  0.00    +0.000 A 
ATOM     31  C   UNL     1       7.465   4.453  12.033  0.00  0.00    +0.000 A 
ATOM     32  C   UNL     1       7.592   4.858  13.361  0.00  0.00    +0.000 A 
ENDBRANCH  23  27
ENDBRANCH  20  21
ENDBRANCH  19  20
ENDBRANCH   5  19
TORSDOF 7
ENDMDL
MODEL 2
REMARK VINA RESULT:      -8.9      1.652      1.966
REMARK  Name = 
REMARK  9 active torsions:
REMARK  status: ('A' for Active; 'I' for Inactive)
REMARK    1  A    between atoms: C_1  and  C_2
REMARK    2  A    between atoms: C_2  and  C_12
REMARK    3  A    between atoms: C_3  and  C_4
REMARK    4  A    between atoms: C_4  and  C_5
REMARK    5  A    between atoms: C_16  and  O_17
REMARK    6  A    between atoms: O_17  and  C_18
REMARK    7  A    between atoms: C_18  and  C_19
REMARK    8  A    between atoms: C_21  and  C_22
REMARK    9  A    between atoms: C_29  and  C_30
REMARK                            x       y       z     vdW  Elec       q    Type
REMARK                         _______ _______ _______ _____ _____    ______ ____
ROOT
ATOM      1  C   UNL     1       2.256   6.514  19.849  0.00  0.00    +0.000 A 
ATOM      2  C   UNL     1       1.458   5.678  20.636  0.00  0.00    +0.000 A 
ATOM      3  C   UNL     1       1.873   4.379  20.930  0.00  0.00    +0.000 A 
ATOM      4  C   UNL     1       3.085   3.908  20.430  0.00  0.00    +0.000 A 
ATOM      5  C   UNL     1       3.866   4.718  19.607  0.00  0.00    +0.000 A 
ATOM      6  C   UNL     1       3.458   6.021  19.320  0.00  0.00    +0.000 A 
ENDROOT
BRANCH   1   8
ATOM      7  C   UNL     1       2.208   8.433  18.234  0.00  0.00    +0.000 C 
ATOM      8  C   UNL     1       1.861   7.911  19.601  0.00  0.00    +0.000 C 
ATOM      9  C   UNL     1       1.219   8.592  20.567  0.00  0.00    +0.000 C 
BRANCH   9  10
ATOM     10  C   UNL     1       0.736  10.021  20.473  0.00  0.00    +0.000 C 
BRANCH  10  11
ATOM     11  C   UNL     1       0.585  10.584  19.053  0.00  0.00    +0.000 C 
ATOM     12  S   UNL     1       1.434  12.188  18.840  0.00  0.00    +0.000 S 
ATOM     13  C   UNL     1      -0.064  13.053  18.620  0.00  0.00    +0.000 C 
ATOM     14  O   UNL     1      -0.142  14.263  18.503  0.00  0.00    +0.000 OA
ATOM     15  N   UNL     1      -1.108  12.194  18.571  0.00  0.00    +0.000 N 
ATOM     16  C   UNL     1      -0.859  10.859  18.685  0.00  0.00    +0.000 C 
ATOM     17  O   UNL     1      -1.711  10.002  18.504  0.00  0.00    +0.000 OA
ATOM     18  H   UNL     1      -2.030  12.533  18.352  0.00  0.00    +0.000 HD
ENDBRANCH  10  11
ENDBRANCH   9  10
ENDBRANCH   1   8
BRANCH   5  19
ATOM     19  O   UNL     1       5.029   4.153  19.172  0.00  0.00    +0.000 OA
BRANCH  19  20
ATOM     20  C   UNL     1       6.180   5.004  19.191  0.00  0.00    +0.000 C 
BRANCH  20  21
ATOM     21  C   UNL     1       6.609   5.337  17.807  0.00  0.00    +0.000 A 
ATOM     22  N   UNL     1       6.315   4.500  16.751  0.00  0.00    +0.000 NA
ATOM     23  C   UNL     1       6.853   5.100  15.707  0.00  0.00    +0.000 A 
ATOM     24  O   UNL     1       7.480   6.282  16.003  0.00  0.00    +0.000 OA
ATOM     25  C   UNL     1       7.303   6.434  17.345  0.00  0.00    +0.000 A 
ATOM     26  C   UNL     1       7.843   7.658  17.962  0.00  0.00    +0.000 C 
BRANCH  23  27
ATOM     27  C   UNL     1       6.847   4.705  14.305  0.00  0.00    +0.000 A 
ATOM     28  C   UNL     1       7.729   5.311  13.398  0.00  0.00    +0.000 A 
ATOM     29  C   UNL     1       7.732   4.935  12.052  0.00  0.00    +0.000 A 
ATOM     30  C   UNL     1       6.852   3.952  11.601  0.00  0.00    +0.000 A 
ATOM     31  C   UNL     1       5.975   3.338  12.492  0.00  0.00    +0.000 A 
ATOM     32  C   UNL     1       5.971   3.715  13.835  0.00  0.00    +0.000 A 
ENDBRANCH  23  27
ENDBRANCH  20  21
ENDBRANCH  19  20
ENDBRANCH   5  19
TORSDOF 7
ENDMDL
MODEL 3
REMARK VINA RESULT:      -8.8      2.770      5.308
REMARK  Name = 
REMARK  9 active torsions:
REMARK  status: ('A' for Active; 'I' for Inactive)
REMARK    1  A    between atoms: C_1  and  C_2
REMARK    2  A    between atoms: C_2  and  C_12
REMARK    3  A    between atoms: C_3  and  C_4
REMARK    4  A    between atoms: C_4  and  C_5
REMARK    5  A    between atoms: C_16  and  O_17
REMARK    6  A    between atoms: O_17  and  C_18
REMARK    7  A    between atoms: C_18  and  C_19
REMARK    8  A    between atoms: C_21  and  C_22
REMARK    9  A    between atoms: C_29  and  C_30
REMARK                            x       y       z     vdW  Elec       q    Type
REMARK                         _______ _______ _______ _____ _____    ______ ____
ROOT
ATOM      1  C   UNL     1       2.935   5.181  18.571  0.00  0.00    +0.000 A 
ATOM      2  C   UNL     1       3.073   3.836  18.215  0.00  0.00    +0.000 A 
ATOM      3  C   UNL     1       3.981   3.458  17.225  0.00  0.00    +0.000 A 
ATOM      4  C   UNL     1       4.748   4.427  16.581  0.00  0.00    +0.000 A 
ATOM      5  C   UNL     1       4.585   5.774  16.898  0.00  0.00    +0.000 A 
ATOM      6  C   UNL     1       3.685   6.154  17.895  0.00  0.00    +0.000 A 
ENDROOT
BRANCH   1   8
ATOM      7  C   UNL     1       1.255   4.450  20.285  0.00  0.00    +0.000 C 
ATOM      8  C   UNL     1       2.036   5.578  19.669  0.00  0.00    +0.000 C 
ATOM      9  C   UNL     1       1.994   6.868  20.048  0.00  0.00    +0.000 C 
BRANCH   9  10
ATOM     10  C   UNL     1       1.140   7.439  21.157  0.00  0.00    +0.000 C 
BRANCH  10  11
ATOM     11  C   UNL     1       1.298   8.943  21.415  0.00  0.00    +0.000 C 
ATOM     12  S   UNL     1       0.679   9.442  23.060  0.00  0.00    +0.000 S 
ATOM     13  C   UNL     1      -0.629  10.376  22.383  0.00  0.00    +0.000 C 
ATOM     14  O   UNL     1      -1.491  10.924  23.048  0.00  0.00    +0.000 OA
ATOM     15  N   UNL     1      -0.532  10.426  21.035  0.00  0.00    +0.000 N 
ATOM     16  C   UNL     1       0.511   9.789  20.433  0.00  0.00    +0.000 C 
ATOM     17  O   UNL     1       0.767   9.902  19.244  0.00  0.00    +0.000 OA
ATOM     18  H   UNL     1      -1.159  11.009  20.506  0.00  0.00    +0.000 HD
ENDBRANCH  10  11
ENDBRANCH   9  10
ENDBRANCH   1   8
BRANCH   5  19
ATOM     19  O   UNL     1       5.385   6.634  16.203  0.00  0.00    +0.000 OA
BRANCH  19  20
ATOM     20  C   UNL     1       6.783   6.330  16.212  0.00  0.00    +0.000 C 
BRANCH  20  21
ATOM     21  C   UNL     1       7.483   7.108  17.268  0.00  0.00    +0.000 A 
ATOM     22  N   UNL     1       7.746   8.452  17.105  0.00  0.00    +0.000 NA
ATOM     23  C   UNL     1       8.374   8.794  18.212  0.00  0.00    +0.000 A 
ATOM     24  O   UNL     1       8.541   7.764  19.100  0.00  0.00    +0.000 OA
ATOM     25  C   UNL     1       7.952   6.694  18.496  0.00  0.00    +0.000 A 
ATOM     26  C   UNL     1       7.936   5.424  19.241  0.00  0.00    +0.000 C 
BRANCH  23  27
ATOM     27  C   UNL     1       8.880  10.095  18.628  0.00  0.00    +0.000 A 
ATOM     28  C   UNL     1       8.872  11.174  17.733  0.00  0.00    +0.000 A 
ATOM     29  C   UNL     1       9.352  12.426  18.126  0.00  0.00    +0.000 A 
ATOM     30  C   UNL     1       9.847  12.609  19.417  0.00  0.00    +0.000 A 
ATOM     31  C   UNL     1       9.855  11.547  20.318  0.00  0.00    +0.000 A 
ATOM     32  C   UNL     1       9.377  10.298  19.925  0.00  0.00    +0.000 A 
ENDBRANCH  23  27
ENDBRANCH  20  21
ENDBRANCH  19  20
ENDBRANCH   5  19
TORSDOF 7
ENDMDL
MODEL 4
REMARK VINA RESULT:      -8.8      1.278      1.697
REMARK  Name = 
REMARK  9 active torsions:
REMARK  status: ('A' for Active; 'I' for Inactive)
REMARK    1  A    between atoms: C_1  and  C_2
REMARK    2  A    between atoms: C_2  and  C_12
REMARK    3  A    between atoms: C_3  and  C_4
REMARK    4  A    between atoms: C_4  and  C_5
REMARK    5  A    between atoms: C_16  and  O_17
REMARK    6  A    between atoms: O_17  and  C_18
REMARK    7  A    between atoms: C_18  and  C_19
REMARK    8  A    between atoms: C_21  and  C_22
REMARK    9  A    between atoms: C_29  and  C_30
REMARK                            x       y       z     vdW  Elec       q    Type
REMARK                         _______ _______ _______ _____ _____    ______ ____
ROOT
ATOM      1  C   UNL     1       2.489   5.937  19.675  0.00  0.00    +0.000 A 
ATOM      2  C   UNL     1       1.563   4.889  19.711  0.00  0.00    +0.000 A 
ATOM      3  C   UNL     1       1.995   3.565  19.646  0.00  0.00    +0.000 A 
ATOM      4  C   UNL     1       3.355   3.283  19.535  0.00  0.00    +0.000 A 
ATOM      5  C   UNL     1       4.281   4.322  19.452  0.00  0.00    +0.000 A 
ATOM      6  C   UNL     1       3.853   5.648  19.528  0.00  0.00    +0.000 A 
ENDROOT
BRANCH   1   8
ATOM      7  C   UNL     1       1.633   7.723  21.215  0.00  0.00    +0.000 C 
ATOM      8  C   UNL     1       2.045   7.334  19.822  0.00  0.00    +0.000 C 
ATOM      9  C   UNL     1       2.062   8.144  18.748  0.00  0.00    +0.000 C 
BRANCH   9  10
ATOM     10  C   UNL     1       1.653   9.599  18.728  0.00  0.00    +0.000 C 
BRANCH  10  11
ATOM     11  C   UNL     1       0.345   9.936  19.456  0.00  0.00    +0.000 C 
ATOM     12  S   UNL     1      -0.999  10.398  18.308  0.00  0.00    +0.000 S 
ATOM     13  C   UNL     1      -1.041  12.045  18.877  0.00  0.00    +0.000 C 
ATOM     14  O   UNL     1      -1.743  12.916  18.394  0.00  0.00    +0.000 OA
ATOM     15  N   UNL     1      -0.214  12.205  19.936  0.00  0.00    +0.000 N 
ATOM     16  C   UNL     1       0.484  11.125  20.386  0.00  0.00    +0.000 C 
ATOM     17  O   UNL     1       1.136  11.134  21.419  0.00  0.00    +0.000 OA
ATOM     18  H   UNL     1      -0.201  13.078  20.437  0.00  0.00    +0.000 HD
ENDBRANCH  10  11
ENDBRANCH   9  10
ENDBRANCH   1   8
BRANCH   5  19
ATOM     19  O   UNL     1       5.584   3.930  19.341  0.00  0.00    +0.000 OA
BRANCH  19  20
ATOM     20  C   UNL     1       6.547   4.986  19.269  0.00  0.00    +0.000 C 
BRANCH  20  21
ATOM     21  C   UNL     1       6.840   5.333  17.854  0.00  0.00    +0.000 A 
ATOM     22  N   UNL     1       6.539   4.459  16.830  0.00  0.00    +0.000 NA
ATOM     23  C   UNL     1       6.943   5.085  15.742  0.00  0.00    +0.000 A 
ATOM     24  O   UNL     1       7.489   6.319  15.979  0.00  0.00    +0.000 OA
ATOM     25  C   UNL     1       7.403   6.477  17.329  0.00  0.00    +0.000 A 
ATOM     26  C   UNL     1       7.883   7.750  17.892  0.00  0.00    +0.000 C 
BRANCH  23  27
ATOM     27  C   UNL     1       6.864   4.669  14.349  0.00  0.00    +0.000 A 
ATOM     28  C   UNL     1       7.730   5.226  13.397  0.00  0.00    +0.000 A 
ATOM     29  C   UNL     1       7.663   4.830  12.058  0.00  0.00    +0.000 A 
ATOM     30  C   UNL     1       6.727   3.875  11.661  0.00  0.00    +0.000 A 
ATOM     31  C   UNL     1       5.864   3.311  12.596  0.00  0.00    +0.000 A 
ATOM     32  C   UNL     1       5.930   3.707  13.931  0.00  0.00    +0.000 A 
ENDBRANCH  23  27
ENDBRANCH  20  21
ENDBRANCH  19  20
ENDBRANCH   5  19
TORSDOF 7
ENDMDL
MODEL 5
REMARK VINA RESULT:      -8.7      2.921     11.191
REMARK  Name = 
REMARK  9 active torsions:
REMARK  status: ('A' for Active; 'I' for Inactive)
REMARK    1  A    between atoms: C_1  and  C_2
REMARK    2  A    between atoms: C_2  and  C_12
REMARK    3  A    between atoms: C_3  and  C_4
REMARK    4  A    between atoms: C_4  and  C_5
REMARK    5  A    between atoms: C_16  and  O_17
REMARK    6  A    between atoms: O_17  and  C_18
REMARK    7  A    between atoms: C_18  and  C_19
REMARK    8  A    between atoms: C_21  and  C_22
REMARK    9  A    between atoms: C_29  and  C_30
REMARK                            x       y       z     vdW  Elec       q    Type
REMARK                         _______ _______ _______ _____ _____    ______ ____
ROOT
ATOM      1  C   UNL     1       2.561   7.115  19.002  0.00  0.00    +0.000 A 
ATOM      2  C   UNL     1       2.507   7.814  17.792  0.00  0.00    +0.000 A 
ATOM      3  C   UNL     1       1.862   9.048  17.718  0.00  0.00    +0.000 A 
ATOM      4  C   UNL     1       1.258   9.584  18.855  0.00  0.00    +0.000 A 
ATOM      5  C   UNL     1       1.267   8.874  20.054  0.00  0.00    +0.000 A 
ATOM      6  C   UNL     1       1.921   7.644  20.132  0.00  0.00    +0.000 A 
ENDROOT
BRANCH   1   8
ATOM      7  C   UNL     1       2.860   4.938  20.213  0.00  0.00    +0.000 C 
ATOM      8  C   UNL     1       3.308   5.849  19.104  0.00  0.00    +0.000 C 
ATOM      9  C   UNL     1       4.287   5.593  18.217  0.00  0.00    +0.000 C 
BRANCH   9  10
ATOM     10  C   UNL     1       5.139   4.345  18.174  0.00  0.00    +0.000 C 
BRANCH  10  11
ATOM     11  C   UNL     1       6.620   4.558  17.832  0.00  0.00    +0.000 C 
ATOM     12  S   UNL     1       7.359   5.952  18.751  0.00  0.00    +0.000 S 
ATOM     13  C   UNL     1       7.581   6.904  17.306  0.00  0.00    +0.000 C 
ATOM     14  O   UNL     1       7.995   8.050  17.301  0.00  0.00    +0.000 OA
ATOM     15  N   UNL     1       7.256   6.185  16.207  0.00  0.00    +0.000 N 
ATOM     16  C   UNL     1       6.837   4.899  16.371  0.00  0.00    +0.000 C 
ATOM     17  O   UNL     1       6.667   4.128  15.438  0.00  0.00    +0.000 OA
ATOM     18  H   UNL     1       7.423   6.565  15.290  0.00  0.00    +0.000 HD
ENDBRANCH  10  11
ENDBRANCH   9  10
ENDBRANCH   1   8
BRANCH   5  19
ATOM     19  O   UNL     1       0.644   9.491  21.099  0.00  0.00    +0.000 OA
BRANCH  19  20
ATOM     20  C   UNL     1       0.853  10.903  21.203  0.00  0.00    +0.000 C 
BRANCH  20  21
ATOM     21  C   UNL     1      -0.444  11.628  21.200  0.00  0.00    +0.000 A 
ATOM     22  N   UNL     1      -1.343  11.481  22.236  0.00  0.00    +0.000 NA
ATOM     23  C   UNL     1      -2.360  12.246  21.890  0.00  0.00    +0.000 A 
ATOM     24  O   UNL     1      -2.191  12.893  20.695  0.00  0.00    +0.000 OA
ATOM     25  C   UNL     1      -0.956  12.506  20.269  0.00  0.00    +0.000 A 
ATOM     26  C   UNL     1      -0.467  13.081  19.005  0.00  0.00    +0.000 C 
BRANCH  23  27
ATOM     27  C   UNL     1      -3.601  12.518  22.602  0.00  0.00    +0.000 A 
ATOM     28  C   UNL     1      -3.672  12.331  23.991  0.00  0.00    +0.000 A 
ATOM     29  C   UNL     1      -4.859  12.593  24.682  0.00  0.00    +0.000 A 
ATOM     30  C   UNL     1      -5.984  13.041  23.990  0.00  0.00    +0.000 A 
ATOM     31  C   UNL     1      -5.925  13.235  22.612  0.00  0.00    +0.000 A 
ATOM     32  C   UNL     1      -4.742  12.972  21.923  0.00  0.00    +0.000 A 
ENDBRANCH  23  27
ENDBRANCH  20  21
ENDBRANCH  19  20
ENDBRANCH   5  19
TORSDOF 7
ENDMDL
MODEL 6
REMARK VINA RESULT:      -8.6      4.022     10.759
REMARK  Name = 
REMARK  9 active torsions:
REMARK  status: ('A' for Active; 'I' for Inactive)
REMARK    1  A    between atoms: C_1  and  C_2
REMARK    2  A    between atoms: C_2  and  C_12
REMARK    3  A    between atoms: C_3  and  C_4
REMARK    4  A    between atoms: C_4  and  C_5
REMARK    5  A    between atoms: C_16  and  O_17
REMARK    6  A    between atoms: O_17  and  C_18
REMARK    7  A    between atoms: C_18  and  C_19
REMARK    8  A    between atoms: C_21  and  C_22
REMARK    9  A    between atoms: C_29  and  C_30
REMARK                            x       y       z     vdW  Elec       q    Type
REMARK                         _______ _______ _______ _____ _____    ______ ____
ROOT
ATOM      1  C   UNL     1       2.645   7.186  18.716  0.00  0.00    +0.000 A 
ATOM      2  C   UNL     1       2.614   8.009  17.586  0.00  0.00    +0.000 A 
ATOM      3  C   UNL     1       1.985   9.253  17.637  0.00  0.00    +0.000 A 
ATOM      4  C   UNL     1       1.376   9.674  18.817  0.00  0.00    +0.000 A 
ATOM      5  C   UNL     1       1.362   8.842  19.935  0.00  0.00    +0.000 A 
ATOM      6  C   UNL     1       1.999   7.601  19.890  0.00  0.00    +0.000 A 
ENDROOT
BRANCH   1   8
ATOM      7  C   UNL     1       3.909   5.508  17.345  0.00  0.00    +0.000 C 
ATOM      8  C   UNL     1       3.375   5.906  18.693  0.00  0.00    +0.000 C 
ATOM      9  C   UNL     1       3.530   5.219  19.838  0.00  0.00    +0.000 C 
BRANCH   9  10
ATOM     10  C   UNL     1       4.258   3.903  19.991  0.00  0.00    +0.000 C 
BRANCH  10  11
ATOM     11  C   UNL     1       3.370   2.669  20.205  0.00  0.00    +0.000 C 
ATOM     12  S   UNL     1       2.664   2.032  18.646  0.00  0.00    +0.000 S 
ATOM     13  C   UNL     1       1.036   2.453  19.107  0.00  0.00    +0.000 C 
ATOM     14  O   UNL     1       0.067   2.327  18.379  0.00  0.00    +0.000 OA
ATOM     15  N   UNL     1       1.003   2.907  20.381  0.00  0.00    +0.000 N 
ATOM     16  C   UNL     1       2.169   2.960  21.083  0.00  0.00    +0.000 C 
ATOM     17  O   UNL     1       2.219   3.211  22.278  0.00  0.00    +0.000 OA
ATOM     18  H   UNL     1       0.120   3.099  20.824  0.00  0.00    +0.000 HD
ENDBRANCH  10  11
ENDBRANCH   9  10
ENDBRANCH   1   8
BRANCH   5  19
ATOM     19  O   UNL     1       0.734   9.355  21.032  0.00  0.00    +0.000 OA
BRANCH  19  20
ATOM     20  C   UNL     1       0.958  10.746  21.285  0.00  0.00    +0.000 C 
BRANCH  20  21
ATOM     21  C   UNL     1      -0.326  11.495  21.266  0.00  0.00    +0.000 A 
ATOM     22  N   UNL     1      -1.242  11.363  22.289  0.00  0.00    +0.000 NA
ATOM     23  C   UNL     1      -2.239  12.148  21.931  0.00  0.00    +0.000 A 
ATOM     24  O   UNL     1      -2.041  12.795  20.740  0.00  0.00    +0.000 OA
ATOM     25  C   UNL     1      -0.807  12.385  20.331  0.00  0.00    +0.000 A 
ATOM     26  C   UNL     1      -0.290  12.954  19.074  0.00  0.00    +0.000 C 
BRANCH  23  27
ATOM     27  C   UNL     1      -3.484  12.441  22.627  0.00  0.00    +0.000 A 
ATOM     28  C   UNL     1      -4.606  12.879  21.909  0.00  0.00    +0.000 A 
ATOM     29  C   UNL     1      -5.806  13.160  22.569  0.00  0.00    +0.000 A 
ATOM     30  C   UNL     1      -5.892  13.007  23.953  0.00  0.00    +0.000 A 
ATOM     31  C   UNL     1      -4.787  12.569  24.677  0.00  0.00    +0.000 A 
ATOM     32  C   UNL     1      -3.590  12.290  24.019  0.00  0.00    +0.000 A 
ENDBRANCH  23  27
ENDBRANCH  20  21
ENDBRANCH  19  20
ENDBRANCH   5  19
TORSDOF 7
ENDMDL
MODEL 7
REMARK VINA RESULT:      -8.5      3.994     10.800
REMARK  Name = 
REMARK  9 active torsions:
REMARK  status: ('A' for Active; 'I' for Inactive)
REMARK    1  A    between atoms: C_1  and  C_2
REMARK    2  A    between atoms: C_2  and  C_12
REMARK    3  A    between atoms: C_3  and  C_4
REMARK    4  A    between atoms: C_4  and  C_5
REMARK    5  A    between atoms: C_16  and  O_17
REMARK    6  A    between atoms: O_17  and  C_18
REMARK    7  A    between atoms: C_18  and  C_19
REMARK    8  A    between atoms: C_21  and  C_22
REMARK    9  A    between atoms: C_29  and  C_30
REMARK                            x       y       z     vdW  Elec       q    Type
REMARK                         _______ _______ _______ _____ _____    ______ ____
ROOT
ATOM      1  C   UNL     1       2.174   7.620  18.857  0.00  0.00    +0.000 A 
ATOM      2  C   UNL     1       1.981   7.538  20.240  0.00  0.00    +0.000 A 
ATOM      3  C   UNL     1       1.258   8.525  20.911  0.00  0.00    +0.000 A 
ATOM      4  C   UNL     1       0.734   9.604  20.202  0.00  0.00    +0.000 A 
ATOM      5  C   UNL     1       0.961   9.718  18.831  0.00  0.00    +0.000 A 
ATOM      6  C   UNL     1       1.674   8.727  18.156  0.00  0.00    +0.000 A 
ENDROOT
BRANCH   1   8
ATOM      7  C   UNL     1       4.165   6.947  17.486  0.00  0.00    +0.000 C 
ATOM      8  C   UNL     1       2.868   6.542  18.132  0.00  0.00    +0.000 C 
ATOM      9  C   UNL     1       2.330   5.309  18.117  0.00  0.00    +0.000 C 
BRANCH   9  10
ATOM     10  C   UNL     1       2.914   4.094  17.434  0.00  0.00    +0.000 C 
BRANCH  10  11
ATOM     11  C   UNL     1       3.021   2.829  18.296  0.00  0.00    +0.000 C 
ATOM     12  S   UNL     1       1.411   2.308  18.982  0.00  0.00    +0.000 S 
ATOM     13  C   UNL     1       1.895   2.656  20.621  0.00  0.00    +0.000 C 
ATOM     14  O   UNL     1       1.154   2.569  21.584  0.00  0.00    +0.000 OA
ATOM     15  N   UNL     1       3.202   3.003  20.668  0.00  0.00    +0.000 N 
ATOM     16  C   UNL     1       3.913   3.023  19.507  0.00  0.00    +0.000 C 
ATOM     17  O   UNL     1       5.125   3.176  19.467  0.00  0.00    +0.000 OA
ATOM     18  H   UNL     1       3.654   3.140  21.557  0.00  0.00    +0.000 HD
ENDBRANCH  10  11
ENDBRANCH   9  10
ENDBRANCH   1   8
BRANCH   5  19
ATOM     19  O   UNL     1       0.405  10.815  18.240  0.00  0.00    +0.000 OA
BRANCH  19  20
ATOM     20  C   UNL     1      -0.317  11.692  19.111  0.00  0.00    +0.000 C 
BRANCH  20  21
ATOM     21  C   UNL     1      -1.778  11.602  18.853  0.00  0.00    +0.000 A 
ATOM     22  N   UNL     1      -2.681  12.307  19.621  0.00  0.00    +0.000 NA
ATOM     23  C   UNL     1      -3.855  11.977  19.122  0.00  0.00    +0.000 A 
ATOM     24  O   UNL     1      -3.789  11.101  18.070  0.00  0.00    +0.000 OA
ATOM     25  C   UNL     1      -2.456  10.881  17.893  0.00  0.00    +0.000 A 
ATOM     26  C   UNL     1      -2.059   9.996  16.786  0.00  0.00    +0.000 C 
BRANCH  23  27
ATOM     27  C   UNL     1      -5.186  12.426  19.505  0.00  0.00    +0.000 A 
ATOM     28  C   UNL     1      -5.450  12.803  20.830  0.00  0.00    +0.000 A 
ATOM     29  C   UNL     1      -6.723  13.238  21.205  0.00  0.00    +0.000 A 
ATOM     30  C   UNL     1      -7.745  13.299  20.257  0.00  0.00    +0.000 A 
ATOM     31  C   UNL     1      -7.496  12.934  18.937  0.00  0.00    +0.000 A 
ATOM     32  C   UNL     1      -6.226  12.498  18.564  0.00  0.00    +0.000 A 
ENDBRANCH  23  27
ENDBRANCH  20  21
ENDBRANCH  19  20
ENDBRANCH   5  19
TORSDOF 7
ENDMDL
MODEL 8
REMARK VINA RESULT:      -8.4      3.033     10.901
REMARK  Name = 
REMARK  9 active torsions:
REMARK  status: ('A' for Active; 'I' for Inactive)
REMARK    1  A    between atoms: C_1  and  C_2
REMARK    2  A    between atoms: C_2  and  C_12
REMARK    3  A    between atoms: C_3  and  C_4
REMARK    4  A    between atoms: C_4  and  C_5
REMARK    5  A    between atoms: C_16  and  O_17
REMARK    6  A    between atoms: O_17  and  C_18
REMARK    7  A    between atoms: C_18  and  C_19
REMARK    8  A    between atoms: C_21  and  C_22
REMARK    9  A    between atoms: C_29  and  C_30
REMARK                            x       y       z     vdW  Elec       q    Type
REMARK                         _______ _______ _______ _____ _____    ______ ____
ROOT
ATOM      1  C   UNL     1       2.224   6.730  19.076  0.00  0.00    +0.000 A 
ATOM      2  C   UNL     1       1.962   6.432  20.417  0.00  0.00    +0.000 A 
ATOM      3  C   UNL     1       1.396   7.392  21.255  0.00  0.00    +0.000 A 
ATOM      4  C   UNL     1       1.098   8.659  20.757  0.00  0.00    +0.000 A 
ATOM      5  C   UNL     1       1.397   8.980  19.434  0.00  0.00    +0.000 A 
ATOM      6  C   UNL     1       1.954   8.018  18.590  0.00  0.00    +0.000 A 
ENDROOT
BRANCH   1   8
ATOM      7  C   UNL     1       1.759   4.631  17.783  0.00  0.00    +0.000 C 
ATOM      8  C   UNL     1       2.748   5.697  18.166  0.00  0.00    +0.000 C 
ATOM      9  C   UNL     1       4.019   5.786  17.736  0.00  0.00    +0.000 C 
BRANCH   9  10
ATOM     10  C   UNL     1       4.707   4.822  16.797  0.00  0.00    +0.000 C 
BRANCH  10  11
ATOM     11  C   UNL     1       6.233   4.731  16.931  0.00  0.00    +0.000 C 
ATOM     12  S   UNL     1       6.833   5.342  18.544  0.00  0.00    +0.000 S 
ATOM     13  C   UNL     1       7.649   6.705  17.826  0.00  0.00    +0.000 C 
ATOM     14  O   UNL     1       8.209   7.580  18.464  0.00  0.00    +0.000 OA
ATOM     15  N   UNL     1       7.596   6.635  16.476  0.00  0.00    +0.000 N 
ATOM     16  C   UNL     1       6.961   5.575  15.903  0.00  0.00    +0.000 C 
ATOM     17  O   UNL     1       6.989   5.347  14.703  0.00  0.00    +0.000 OA
ATOM     18  H   UNL     1       8.105   7.300  15.916  0.00  0.00    +0.000 HD
ENDBRANCH  10  11
ENDBRANCH   9  10
ENDBRANCH   1   8
BRANCH   5  19
ATOM     19  O   UNL     1       1.067  10.249  19.056  0.00  0.00    +0.000 OA
BRANCH  19  20
ATOM     20  C   UNL     1       1.184  11.252  20.070  0.00  0.00    +0.000 C 
BRANCH  20  21
ATOM     21  C   UNL     1      -0.120  11.929  20.292  0.00  0.00    +0.000 A 
ATOM     22  N   UNL     1      -0.887  11.649  21.403  0.00  0.00    +0.000 NA
ATOM     23  C   UNL     1      -1.954  12.410  21.258  0.00  0.00    +0.000 A 
ATOM     24  O   UNL     1      -1.941  13.180  20.125  0.00  0.00    +0.000 OA
ATOM     25  C   UNL     1      -0.756  12.879  19.522  0.00  0.00    +0.000 A 
ATOM     26  C   UNL     1      -0.432  13.595  18.276  0.00  0.00    +0.000 C 
BRANCH  23  27
ATOM     27  C   UNL     1      -3.107  12.567  22.132  0.00  0.00    +0.000 A 
ATOM     28  C   UNL     1      -2.980  12.355  23.513  0.00  0.00    +0.000 A 
ATOM     29  C   UNL     1      -4.082  12.507  24.359  0.00  0.00    +0.000 A 
ATOM     30  C   UNL     1      -5.321  12.869  23.831  0.00  0.00    +0.000 A 
ATOM     31  C   UNL     1      -5.460  13.087  22.463  0.00  0.00    +0.000 A 
ATOM     32  C   UNL     1      -4.361  12.934  21.619  0.00  0.00    +0.000 A 
ENDBRANCH  23  27
ENDBRANCH  20  21
ENDBRANCH  19  20
ENDBRANCH   5  19
TORSDOF 7
ENDMDL
MODEL 9
REMARK VINA RESULT:      -8.4      3.535      9.917
REMARK  Name = 
REMARK  9 active torsions:
REMARK  status: ('A' for Active; 'I' for Inactive)
REMARK    1  A    between atoms: C_1  and  C_2
REMARK    2  A    between atoms: C_2  and  C_12
REMARK    3  A    between atoms: C_3  and  C_4
REMARK    4  A    between atoms: C_4  and  C_5
REMARK    5  A    between atoms: C_16  and  O_17
REMARK    6  A    between atoms: O_17  and  C_18
REMARK    7  A    between atoms: C_18  and  C_19
REMARK    8  A    between atoms: C_21  and  C_22
REMARK    9  A    between atoms: C_29  and  C_30
REMARK                            x       y       z     vdW  Elec       q    Type
REMARK                         _______ _______ _______ _____ _____    ______ ____
ROOT
ATOM      1  C   UNL     1       2.961   6.027  18.976  0.00  0.00    +0.000 A 
ATOM      2  C   UNL     1       2.379   5.067  19.809  0.00  0.00    +0.000 A 
ATOM      3  C   UNL     1       1.464   5.447  20.792  0.00  0.00    +0.000 A 
ATOM      4  C   UNL     1       1.135   6.792  20.950  0.00  0.00    +0.000 A 
ATOM      5  C   UNL     1       1.745   7.761  20.154  0.00  0.00    +0.000 A 
ATOM      6  C   UNL     1       2.652   7.382  19.163  0.00  0.00    +0.000 A 
ENDROOT
BRANCH   1   8
ATOM      7  C   UNL     1       3.686   4.210  17.404  0.00  0.00    +0.000 C 
ATOM      8  C   UNL     1       3.866   5.623  17.886  0.00  0.00    +0.000 C 
ATOM      9  C   UNL     1       4.743   6.519  17.396  0.00  0.00    +0.000 C 
BRANCH   9  10
ATOM     10  C   UNL     1       5.729   6.274  16.278  0.00  0.00    +0.000 C 
BRANCH  10  11
ATOM     11  C   UNL     1       7.199   6.139  16.700  0.00  0.00    +0.000 C 
ATOM     12  S   UNL     1       7.497   4.671  17.745  0.00  0.00    +0.000 S 
ATOM     13  C   UNL     1       7.880   5.635  19.147  0.00  0.00    +0.000 C 
ATOM     14  O   UNL     1       8.106   5.174  20.251  0.00  0.00    +0.000 OA
ATOM     15  N   UNL     1       7.918   6.949  18.825  0.00  0.00    +0.000 N 
ATOM     16  C   UNL     1       7.676   7.311  17.535  0.00  0.00    +0.000 C 
ATOM     17  O   UNL     1       7.833   8.449  17.119  0.00  0.00    +0.000 OA
ATOM     18  H   UNL     1       8.221   7.625  19.506  0.00  0.00    +0.000 HD
ENDBRANCH  10  11
ENDBRANCH   9  10
ENDBRANCH   1   8
BRANCH   5  19
ATOM     19  O   UNL     1       1.351   9.044  20.398  0.00  0.00    +0.000 OA
BRANCH  19  20
ATOM     20  C   UNL     1       0.953   9.802  19.252  0.00  0.00    +0.000 C 
BRANCH  20  21
ATOM     21  C   UNL     1      -0.321  10.521  19.515  0.00  0.00    +0.000 A 
ATOM     22  N   UNL     1      -1.296  10.620  18.543  0.00  0.00    +0.000 NA
ATOM     23  C   UNL     1      -2.253  11.320  19.118  0.00  0.00    +0.000 A 
ATOM     24  O   UNL     1      -1.978  11.690  20.408  0.00  0.00    +0.000 OA
ATOM     25  C   UNL     1      -0.748  11.159  20.659  0.00  0.00    +0.000 A 
ATOM     26  C   UNL     1      -0.191  11.357  22.008  0.00  0.00    +0.000 C 
BRANCH  23  27
ATOM     27  C   UNL     1      -3.550  11.724  18.594  0.00  0.00    +0.000 A 
ATOM     28  C   UNL     1      -4.491  12.337  19.434  0.00  0.00    +0.000 A 
ATOM     29  C   UNL     1      -5.737  12.730  18.938  0.00  0.00    +0.000 A 
ATOM     30  C   UNL     1      -6.053  12.511  17.597  0.00  0.00    +0.000 A 
ATOM     31  C   UNL     1      -5.127  11.909  16.750  0.00  0.00    +0.000 A 
ATOM     32  C   UNL     1      -3.884  11.515  17.246  0.00  0.00    +0.000 A 
ENDBRANCH  23  27
ENDBRANCH  20  21
ENDBRANCH  19  20
ENDBRANCH   5  19
TORSDOF 7
ENDMDL
