MODEL 1
REMARK VINA RESULT:      -7.1      0.000      0.000
REMARK  Name = 
REMARK  8 active torsions:
REMARK  status: ('A' for Active; 'I' for Inactive)
REMARK    1  A    between atoms: C_1  and  N_2
REMARK    2  A    between atoms: N_2  and  C_3
REMARK    3  A    between atoms: N_2  and  C_4
REMARK    4  A    between atoms: C_7  and  C_8
REMARK    5  A    between atoms: C_8  and  N_9
REMARK    6  A    between atoms: N_9  and  C_10
REMARK    7  A    between atoms: C_17  and  C_18
REMARK    8  A    between atoms: C_23  and  N_24
REMARK                            x       y       z     vdW  Elec       q    Type
REMARK                         _______ _______ _______ _____ _____    ______ ____
ROOT
ATOM      1  N   UNL     1      -1.291  10.772  18.224  0.00  0.00    +0.000 N 
ATOM      2  C   UNL     1      -1.850   9.946  17.144  0.00  0.00    +0.000 C 
ATOM      3  C   UNL     1      -2.171  11.482  19.034  0.00  0.00    +0.000 A 
ATOM      4  N   UNL     1      -3.421  11.529  18.702  0.00  0.00    +0.000 NA
ATOM      5  C   UNL     1      -4.373  12.269  19.322  0.00  0.00    +0.000 A 
ATOM      6  O   UNL     1      -5.390  12.619  18.731  0.00  0.00    +0.000 OA
ATOM      7  C   UNL     1      -4.261  12.638  20.744  0.00  0.00    +0.000 A 
ATOM      8  C   UNL     1      -5.439  13.052  21.402  0.00  0.00    +0.000 A 
ATOM      9  C   UNL     1      -5.415  13.522  22.718  0.00  0.00    +0.000 A 
ATOM     10  C   UNL     1      -4.192  13.508  23.394  0.00  0.00    +0.000 A 
ATOM     11  C   UNL     1      -3.026  13.073  22.730  0.00  0.00    +0.000 A 
ATOM     12  C   UNL     1      -3.025  12.650  21.386  0.00  0.00    +0.000 A 
ATOM     13  S   UNL     1      -1.549  12.289  20.465  0.00  0.00    +0.000 S 
ENDROOT
BRANCH   9  14
ATOM     14  C   UNL     1      -6.663  14.081  23.364  0.00  0.00    +0.000 C 
ATOM     15  F   UNL     1      -6.439  15.216  24.080  0.00  0.00    +0.000 F 
ATOM     16  F   UNL     1      -7.625  14.390  22.454  0.00  0.00    +0.000 F 
ATOM     17  F   UNL     1      -7.225  13.195  24.228  0.00  0.00    +0.000 F 
ENDBRANCH   9  14
BRANCH  11  18
ATOM     18  N   UNL     1      -1.798  13.097  23.504  0.00  0.00    +0.000 N 
ATOM     19  O   UNL     1      -1.184  12.026  23.604  0.00  0.00    +0.000 OA
ATOM     20  O   UNL     1      -1.422  14.191  23.939  0.00  0.00    +0.000 OA
ENDBRANCH  11  18
BRANCH   1  21
ATOM     21  C   UNL     1       0.161  10.985  18.143  0.00  0.00    +0.000 C 
BRANCH  21  25
ATOM     22  C   UNL     1       2.230   7.371  19.509  0.00  0.00    +0.000 A 
ATOM     23  C   UNL     1       2.382   7.854  18.200  0.00  0.00    +0.000 A 
ATOM     24  C   UNL     1       1.755   9.028  17.762  0.00  0.00    +0.000 A 
ATOM     25  C   UNL     1       0.951   9.780  18.623  0.00  0.00    +0.000 A 
ATOM     26  C   UNL     1       0.895   9.385  19.964  0.00  0.00    +0.000 A 
ATOM     27  C   UNL     1       1.522   8.204  20.392  0.00  0.00    +0.000 A 
BRANCH  22  29
ATOM     28  C   UNL     1       3.776   5.490  19.112  0.00  0.00    +0.000 C 
ATOM     29  N   UNL     1       2.749   6.135  19.931  0.00  0.00    +0.000 N 
ATOM     30  C   UNL     1       1.789   5.226  20.563  0.00  0.00    +0.000 C 
ENDBRANCH  22  29
ENDBRANCH  21  25
ENDBRANCH   1  21
TORSDOF 5
ENDMDL
MODEL 2
REMARK VINA RESULT:      -6.8      2.546      4.336
REMARK  Name = 
REMARK  8 active torsions:
REMARK  status: ('A' for Active; 'I' for Inactive)
REMARK    1  A    between atoms: C_1  and  N_2
REMARK    2  A    between atoms: N_2  and  C_3
REMARK    3  A    between atoms: N_2  and  C_4
REMARK    4  A    between atoms: C_7  and  C_8
REMARK    5  A    between atoms: C_8  and  N_9
REMARK    6  A    between atoms: N_9  and  C_10
REMARK    7  A    between atoms: C_17  and  C_18
REMARK    8  A    between atoms: C_23  and  N_24
REMARK                            x       y       z     vdW  Elec       q    Type
REMARK                         _______ _______ _______ _____ _____    ______ ____
ROOT
ATOM      1  N   UNL     1       1.081  11.718  18.888  0.00  0.00    +0.000 N 
ATOM      2  C   UNL     1       1.810  12.557  19.851  0.00  0.00    +0.000 C 
ATOM      3  C   UNL     1      -0.304  11.652  18.987  0.00  0.00    +0.000 A 
ATOM      4  N   UNL     1      -0.880  12.182  20.018  0.00  0.00    +0.000 NA
ATOM      5  C   UNL     1      -2.201  12.099  20.312  0.00  0.00    +0.000 A 
ATOM      6  O   UNL     1      -2.603  12.219  21.464  0.00  0.00    +0.000 OA
ATOM      7  C   UNL     1      -3.217  11.921  19.259  0.00  0.00    +0.000 A 
ATOM      8  C   UNL     1      -4.553  12.235  19.588  0.00  0.00    +0.000 A 
ATOM      9  C   UNL     1      -5.600  11.998  18.693  0.00  0.00    +0.000 A 
ATOM     10  C   UNL     1      -5.278  11.499  17.428  0.00  0.00    +0.000 A 
ATOM     11  C   UNL     1      -3.936  11.208  17.107  0.00  0.00    +0.000 A 
ATOM     12  C   UNL     1      -2.877  11.388  18.018  0.00  0.00    +0.000 A 
ATOM     13  S   UNL     1      -1.212  10.846  17.716  0.00  0.00    +0.000 S 
ENDROOT
BRANCH   9  14
ATOM     14  C   UNL     1      -7.038  12.219  19.107  0.00  0.00    +0.000 C 
ATOM     15  F   UNL     1      -7.185  13.174  20.065  0.00  0.00    +0.000 F 
ATOM     16  F   UNL     1      -7.825  12.602  18.066  0.00  0.00    +0.000 F 
ATOM     17  F   UNL     1      -7.598  11.089  19.614  0.00  0.00    +0.000 F 
ENDBRANCH   9  14
BRANCH  11  18
ATOM     18  N   UNL     1      -3.692  10.688  15.773  0.00  0.00    +0.000 N 
ATOM     19  O   UNL     1      -3.651  11.517  14.853  0.00  0.00    +0.000 OA
ATOM     20  O   UNL     1      -3.469   9.477  15.668  0.00  0.00    +0.000 OA
ENDBRANCH  11  18
BRANCH   1  21
ATOM     21  C   UNL     1       1.929  10.809  18.104  0.00  0.00    +0.000 C 
BRANCH  21  25
ATOM     22  C   UNL     1       2.161   6.748  19.734  0.00  0.00    +0.000 A 
ATOM     23  C   UNL     1       1.625   7.809  20.480  0.00  0.00    +0.000 A 
ATOM     24  C   UNL     1       1.512   9.104  19.957  0.00  0.00    +0.000 A 
ATOM     25  C   UNL     1       1.924   9.393  18.653  0.00  0.00    +0.000 A 
ATOM     26  C   UNL     1       2.336   8.323  17.853  0.00  0.00    +0.000 A 
ATOM     27  C   UNL     1       2.451   7.029  18.387  0.00  0.00    +0.000 A 
BRANCH  22  29
ATOM     28  C   UNL     1       3.589   4.740  19.859  0.00  0.00    +0.000 C 
ATOM     29  N   UNL     1       2.394   5.474  20.279  0.00  0.00    +0.000 N 
ATOM     30  C   UNL     1       1.201   4.653  20.504  0.00  0.00    +0.000 C 
ENDBRANCH  22  29
ENDBRANCH  21  25
ENDBRANCH   1  21
TORSDOF 5
ENDMDL
MODEL 3
REMARK VINA RESULT:      -6.8      0.502      1.098
REMARK  Name = 
REMARK  8 active torsions:
REMARK  status: ('A' for Active; 'I' for Inactive)
REMARK    1  A    between atoms: C_1  and  N_2
REMARK    2  A    between atoms: N_2  and  C_3
REMARK    3  A    between atoms: N_2  and  C_4
REMARK    4  A    between atoms: C_7  and  C_8
REMARK    5  A    between atoms: C_8  and  N_9
REMARK    6  A    between atoms: N_9  and  C_10
REMARK    7  A    between atoms: C_17  and  C_18
REMARK    8  A    between atoms: C_23  and  N_24
REMARK                            x       y       z     vdW  Elec       q    Type
REMARK                         _______ _______ _______ _____ _____    ______ ____
ROOT
ATOM      1  N   UNL     1      -1.013  10.634  18.372  0.00  0.00    +0.000 N 
ATOM      2  C   UNL     1      -1.476   9.759  17.284  0.00  0.00    +0.000 C 
ATOM      3  C   UNL     1      -1.958  11.389  19.058  0.00  0.00    +0.000 A 
ATOM      4  N   UNL     1      -3.169  11.429  18.606  0.00  0.00    +0.000 NA
ATOM      5  C   UNL     1      -4.168  12.206  19.095  0.00  0.00    +0.000 A 
ATOM      6  O   UNL     1      -5.119  12.533  18.393  0.00  0.00    +0.000 OA
ATOM      7  C   UNL     1      -4.188  12.643  20.502  0.00  0.00    +0.000 A 
ATOM      8  C   UNL     1      -5.418  13.097  21.023  0.00  0.00    +0.000 A 
ATOM      9  C   UNL     1      -5.515  13.631  22.311  0.00  0.00    +0.000 A 
ATOM     10  C   UNL     1      -4.362  13.642  23.101  0.00  0.00    +0.000 A 
ATOM     11  C   UNL     1      -3.143  13.166  22.574  0.00  0.00    +0.000 A 
ATOM     12  C   UNL     1      -3.019  12.678  21.258  0.00  0.00    +0.000 A 
ATOM     13  S   UNL     1      -1.466  12.261  20.502  0.00  0.00    +0.000 S 
ENDROOT
BRANCH   9  14
ATOM     14  C   UNL     1      -6.811  14.231  22.806  0.00  0.00    +0.000 C 
ATOM     15  F   UNL     1      -7.917  13.664  22.252  0.00  0.00    +0.000 F 
ATOM     16  F   UNL     1      -6.958  14.112  24.152  0.00  0.00    +0.000 F 
ATOM     17  F   UNL     1      -6.892  15.560  22.529  0.00  0.00    +0.000 F 
ENDBRANCH   9  14
BRANCH  11  18
ATOM     18  N   UNL     1      -1.995  13.219  23.461  0.00  0.00    +0.000 N 
ATOM     19  O   UNL     1      -1.522  12.132  23.822  0.00  0.00    +0.000 OA
ATOM     20  O   UNL     1      -1.532  14.334  23.726  0.00  0.00    +0.000 OA
ENDBRANCH  11  18
BRANCH   1  21
ATOM     21  C   UNL     1       0.442  10.832  18.421  0.00  0.00    +0.000 C 
BRANCH  21  25
ATOM     22  C   UNL     1       2.386   7.013  19.342  0.00  0.00    +0.000 A 
ATOM     23  C   UNL     1       2.564   7.648  18.103  0.00  0.00    +0.000 A 
ATOM     24  C   UNL     1       1.977   8.886  17.809  0.00  0.00    +0.000 A 
ATOM     25  C   UNL     1       1.191   9.552  18.753  0.00  0.00    +0.000 A 
ATOM     26  C   UNL     1       1.111   8.998  20.035  0.00  0.00    +0.000 A 
ATOM     27  C   UNL     1       1.697   7.754  20.318  0.00  0.00    +0.000 A 
BRANCH  22  29
ATOM     28  C   UNL     1       2.311   4.993  20.756  0.00  0.00    +0.000 C 
ATOM     29  N   UNL     1       2.863   5.719  19.612  0.00  0.00    +0.000 N 
ATOM     30  C   UNL     1       4.292   5.507  19.365  0.00  0.00    +0.000 C 
ENDBRANCH  22  29
ENDBRANCH  21  25
ENDBRANCH   1  21
TORSDOF 5
ENDMDL
MODEL 4
REMARK VINA RESULT:      -6.7      3.335      4.876
REMARK  Name = 
REMARK  8 active torsions:
REMARK  status: ('A' for Active; 'I' for Inactive)
REMARK    1  A    between atoms: C_1  and  N_2
REMARK    2  A    between atoms: N_2  and  C_3
REMARK    3  A    between atoms: N_2  and  C_4
REMARK    4  A    between atoms: C_7  and  C_8
REMARK    5  A    between atoms: C_8  and  N_9
REMARK    6  A    between atoms: N_9  and  C_10
REMARK    7  A    between atoms: C_17  and  C_18
REMARK    8  A    between atoms: C_23  and  N_24
REMARK                            x       y       z     vdW  Elec       q    Type
REMARK                         _______ _______ _______ _____ _____    ______ ____
ROOT
ATOM      1  N   UNL     1       1.764   8.030  19.625  0.00  0.00    +0.000 N 
ATOM      2  C   UNL     1       2.250   6.920  20.458  0.00  0.00    +0.000 C 
ATOM      3  C   UNL     1       1.008   9.027  20.231  0.00  0.00    +0.000 A 
ATOM      4  N   UNL     1       0.616   8.855  21.452  0.00  0.00    +0.000 NA
ATOM      5  C   UNL     1      -0.217   9.678  22.137  0.00  0.00    +0.000 A 
ATOM      6  O   UNL     1      -0.886   9.264  23.078  0.00  0.00    +0.000 OA
ATOM      7  C   UNL     1      -0.314  11.114  21.821  0.00  0.00    +0.000 A 
ATOM      8  C   UNL     1      -0.881  11.956  22.802  0.00  0.00    +0.000 A 
ATOM      9  C   UNL     1      -1.113  13.312  22.554  0.00  0.00    +0.000 A 
ATOM     10  C   UNL     1      -0.704  13.831  21.323  0.00  0.00    +0.000 A 
ATOM     11  C   UNL     1      -0.121  12.981  20.360  0.00  0.00    +0.000 A 
ATOM     12  C   UNL     1       0.067  11.601  20.573  0.00  0.00    +0.000 A 
ATOM     13  S   UNL     1       0.611  10.472  19.314  0.00  0.00    +0.000 S 
ENDROOT
BRANCH   9  14
ATOM     14  C   UNL     1      -1.837  14.171  23.566  0.00  0.00    +0.000 C 
ATOM     15  F   UNL     1      -2.302  15.341  23.050  0.00  0.00    +0.000 F 
ATOM     16  F   UNL     1      -2.914  13.541  24.107  0.00  0.00    +0.000 F 
ATOM     17  F   UNL     1      -1.033  14.513  24.608  0.00  0.00    +0.000 F 
ENDBRANCH   9  14
BRANCH  11  18
ATOM     18  N   UNL     1       0.269  13.601  19.106  0.00  0.00    +0.000 N 
ATOM     19  O   UNL     1       1.422  14.050  19.044  0.00  0.00    +0.000 OA
ATOM     20  O   UNL     1      -0.547  13.568  18.178  0.00  0.00    +0.000 OA
ENDBRANCH  11  18
BRANCH   1  21
ATOM     21  C   UNL     1       1.887   7.808  18.177  0.00  0.00    +0.000 C 
BRANCH  21  25
ATOM     22  C   UNL     1       5.162   5.176  16.932  0.00  0.00    +0.000 A 
ATOM     23  C   UNL     1       5.342   6.561  17.061  0.00  0.00    +0.000 A 
ATOM     24  C   UNL     1       4.313   7.409  17.494  0.00  0.00    +0.000 A 
ATOM     25  C   UNL     1       3.055   6.902  17.827  0.00  0.00    +0.000 A 
ATOM     26  C   UNL     1       2.898   5.512  17.830  0.00  0.00    +0.000 A 
ATOM     27  C   UNL     1       3.933   4.671  17.390  0.00  0.00    +0.000 A 
BRANCH  22  29
ATOM     28  C   UNL     1       7.514   4.433  16.878  0.00  0.00    +0.000 C 
ATOM     29  N   UNL     1       6.140   4.327  16.386  0.00  0.00    +0.000 N 
ATOM     30  C   UNL     1       6.007   4.047  14.954  0.00  0.00    +0.000 C 
ENDBRANCH  22  29
ENDBRANCH  21  25
ENDBRANCH   1  21
TORSDOF 5
ENDMDL
MODEL 5
REMARK VINA RESULT:      -6.7      3.345      4.928
REMARK  Name = 
REMARK  8 active torsions:
REMARK  status: ('A' for Active; 'I' for Inactive)
REMARK    1  A    between atoms: C_1  and  N_2
REMARK    2  A    between atoms: N_2  and  C_3
REMARK    3  A    between atoms: N_2  and  C_4
REMARK    4  A    between atoms: C_7  and  C_8
REMARK    5  A    between atoms: C_8  and  N_9
REMARK    6  A    between atoms: N_9  and  C_10
REMARK    7  A    between atoms: C_17  and  C_18
REMARK    8  A    between atoms: C_23  and  N_24
REMARK                            x       y       z     vdW  Elec       q    Type
REMARK                         _______ _______ _______ _____ _____    ______ ____
ROOT
ATOM      1  N   UNL     1       1.838   7.946  19.486  0.00  0.00    +0.000 N 
ATOM      2  C   UNL     1       2.368   6.848  20.308  0.00  0.00    +0.000 C 
ATOM      3  C   UNL     1       1.079   8.929  20.111  0.00  0.00    +0.000 A 
ATOM      4  N   UNL     1       0.722   8.751  21.342  0.00  0.00    +0.000 NA
ATOM      5  C   UNL     1      -0.109   9.558  22.046  0.00  0.00    +0.000 A 
ATOM      6  O   UNL     1      -0.745   9.133  23.005  0.00  0.00    +0.000 OA
ATOM      7  C   UNL     1      -0.243  10.992  21.732  0.00  0.00    +0.000 A 
ATOM      8  C   UNL     1      -0.800  11.825  22.726  0.00  0.00    +0.000 A 
ATOM      9  C   UNL     1      -1.066  13.175  22.483  0.00  0.00    +0.000 A 
ATOM     10  C   UNL     1      -0.699  13.700  21.241  0.00  0.00    +0.000 A 
ATOM     11  C   UNL     1      -0.124  12.860  20.264  0.00  0.00    +0.000 A 
ATOM     12  C   UNL     1       0.097  11.485  20.474  0.00  0.00    +0.000 A 
ATOM     13  S   UNL     1       0.630  10.365  19.202  0.00  0.00    +0.000 S 
ENDROOT
BRANCH   9  14
ATOM     14  C   UNL     1      -1.781  14.021  23.513  0.00  0.00    +0.000 C 
ATOM     15  F   UNL     1      -0.980  14.420  24.537  0.00  0.00    +0.000 F 
ATOM     16  F   UNL     1      -2.306  15.156  22.979  0.00  0.00    +0.000 F 
ATOM     17  F   UNL     1      -2.818  13.353  24.085  0.00  0.00    +0.000 F 
ENDBRANCH   9  14
BRANCH  11  18
ATOM     18  N   UNL     1       0.221  13.486  19.001  0.00  0.00    +0.000 N 
ATOM     19  O   UNL     1       1.363  13.958  18.909  0.00  0.00    +0.000 OA
ATOM     20  O   UNL     1      -0.617  13.435  18.094  0.00  0.00    +0.000 OA
ENDBRANCH  11  18
BRANCH   1  21
ATOM     21  C   UNL     1       1.929   7.725  18.036  0.00  0.00    +0.000 C 
BRANCH  21  25
ATOM     22  C   UNL     1       5.442   5.252  17.171  0.00  0.00    +0.000 A 
ATOM     23  C   UNL     1       4.186   4.680  17.426  0.00  0.00    +0.000 A 
ATOM     24  C   UNL     1       3.047   5.461  17.668  0.00  0.00    +0.000 A 
ATOM     25  C   UNL     1       3.115   6.856  17.655  0.00  0.00    +0.000 A 
ATOM     26  C   UNL     1       4.327   7.441  17.274  0.00  0.00    +0.000 A 
ATOM     27  C   UNL     1       5.464   6.651  17.038  0.00  0.00    +0.000 A 
BRANCH  22  29
ATOM     28  C   UNL     1       7.699   4.710  18.007  0.00  0.00    +0.000 C 
ATOM     29  N   UNL     1       6.616   4.490  17.047  0.00  0.00    +0.000 N 
ATOM     30  C   UNL     1       7.044   4.204  15.675  0.00  0.00    +0.000 C 
ENDBRANCH  22  29
ENDBRANCH  21  25
ENDBRANCH   1  21
TORSDOF 5
ENDMDL
MODEL 6
REMARK VINA RESULT:      -6.7      2.711      3.810
REMARK  Name = 
REMARK  8 active torsions:
REMARK  status: ('A' for Active; 'I' for Inactive)
REMARK    1  A    between atoms: C_1  and  N_2
REMARK    2  A    between atoms: N_2  and  C_3
REMARK    3  A    between atoms: N_2  and  C_4
REMARK    4  A    between atoms: C_7  and  C_8
REMARK    5  A    between atoms: C_8  and  N_9
REMARK    6  A    between atoms: N_9  and  C_10
REMARK    7  A    between atoms: C_17  and  C_18
REMARK    8  A    between atoms: C_23  and  N_24
REMARK                            x       y       z     vdW  Elec       q    Type
REMARK                         _______ _______ _______ _____ _____    ______ ____
ROOT
ATOM      1  N   UNL     1       0.404  12.127  18.975  0.00  0.00    +0.000 N 
ATOM      2  C   UNL     1       1.609  12.596  18.273  0.00  0.00    +0.000 C 
ATOM      3  C   UNL     1       0.038  12.766  20.154  0.00  0.00    +0.000 A 
ATOM      4  N   UNL     1       0.856  13.621  20.679  0.00  0.00    +0.000 NA
ATOM      5  C   UNL     1       0.694  14.235  21.877  0.00  0.00    +0.000 A 
ATOM      6  O   UNL     1       1.655  14.663  22.506  0.00  0.00    +0.000 OA
ATOM      7  C   UNL     1      -0.644  14.468  22.450  0.00  0.00    +0.000 A 
ATOM      8  C   UNL     1      -0.753  15.435  23.471  0.00  0.00    +0.000 A 
ATOM      9  C   UNL     1      -1.956  15.651  24.149  0.00  0.00    +0.000 A 
ATOM     10  C   UNL     1      -3.076  14.923  23.739  0.00  0.00    +0.000 A 
ATOM     11  C   UNL     1      -2.957  13.972  22.703  0.00  0.00    +0.000 A 
ATOM     12  C   UNL     1      -1.738  13.704  22.049  0.00  0.00    +0.000 A 
ATOM     13  S   UNL     1      -1.512  12.380  20.886  0.00  0.00    +0.000 S 
ENDROOT
BRANCH   9  14
ATOM     14  C   UNL     1      -2.023  16.598  25.326  0.00  0.00    +0.000 C 
ATOM     15  F   UNL     1      -1.550  16.059  26.482  0.00  0.00    +0.000 F 
ATOM     16  F   UNL     1      -1.309  17.736  25.118  0.00  0.00    +0.000 F 
ATOM     17  F   UNL     1      -3.298  16.989  25.588  0.00  0.00    +0.000 F 
ENDBRANCH   9  14
BRANCH  11  18
ATOM     18  N   UNL     1      -4.168  13.257  22.344  0.00  0.00    +0.000 N 
ATOM     19  O   UNL     1      -4.767  13.651  21.334  0.00  0.00    +0.000 OA
ATOM     20  O   UNL     1      -4.468  12.270  23.025  0.00  0.00    +0.000 OA
ENDBRANCH  11  18
BRANCH   1  21
ATOM     21  C   UNL     1      -0.117  10.838  18.500  0.00  0.00    +0.000 C 
BRANCH  21  25
ATOM     22  C   UNL     1       2.318   7.337  19.507  0.00  0.00    +0.000 A 
ATOM     23  C   UNL     1       2.314   7.881  18.213  0.00  0.00    +0.000 A 
ATOM     24  C   UNL     1       1.568   9.022  17.888  0.00  0.00    +0.000 A 
ATOM     25  C   UNL     1       0.797   9.677  18.851  0.00  0.00    +0.000 A 
ATOM     26  C   UNL     1       0.893   9.227  20.172  0.00  0.00    +0.000 A 
ATOM     27  C   UNL     1       1.638   8.080  20.488  0.00  0.00    +0.000 A 
BRANCH  22  29
ATOM     28  C   UNL     1       4.015   5.641  18.936  0.00  0.00    +0.000 C 
ATOM     29  N   UNL     1       2.960   6.127  19.824  0.00  0.00    +0.000 N 
ATOM     30  C   UNL     1       2.105   5.090  20.408  0.00  0.00    +0.000 C 
ENDBRANCH  22  29
ENDBRANCH  21  25
ENDBRANCH   1  21
TORSDOF 5
ENDMDL
MODEL 7
REMARK VINA RESULT:      -6.6      4.491      8.822
REMARK  Name = 
REMARK  8 active torsions:
REMARK  status: ('A' for Active; 'I' for Inactive)
REMARK    1  A    between atoms: C_1  and  N_2
REMARK    2  A    between atoms: N_2  and  C_3
REMARK    3  A    between atoms: N_2  and  C_4
REMARK    4  A    between atoms: C_7  and  C_8
REMARK    5  A    between atoms: C_8  and  N_9
REMARK    6  A    between atoms: N_9  and  C_10
REMARK    7  A    between atoms: C_17  and  C_18
REMARK    8  A    between atoms: C_23  and  N_24
REMARK                            x       y       z     vdW  Elec       q    Type
REMARK                         _______ _______ _______ _____ _____    ______ ____
ROOT
ATOM      1  N   UNL     1      -3.474  12.856  23.315  0.00  0.00    +0.000 N 
ATOM      2  C   UNL     1      -3.919  12.275  24.590  0.00  0.00    +0.000 C 
ATOM      3  C   UNL     1      -2.451  12.219  22.622  0.00  0.00    +0.000 A 
ATOM      4  N   UNL     1      -1.816  11.251  23.201  0.00  0.00    +0.000 NA
ATOM      5  C   UNL     1      -0.728  10.613  22.703  0.00  0.00    +0.000 A 
ATOM      6  O   UNL     1       0.070  10.046  23.443  0.00  0.00    +0.000 OA
ATOM      7  C   UNL     1      -0.484  10.520  21.253  0.00  0.00    +0.000 A 
ATOM      8  C   UNL     1       0.421   9.531  20.810  0.00  0.00    +0.000 A 
ATOM      9  C   UNL     1       0.798   9.434  19.467  0.00  0.00    +0.000 A 
ATOM     10  C   UNL     1       0.199  10.308  18.556  0.00  0.00    +0.000 A 
ATOM     11  C   UNL     1      -0.719  11.278  19.010  0.00  0.00    +0.000 A 
ATOM     12  C   UNL     1      -1.066  11.425  20.368  0.00  0.00    +0.000 A 
ATOM     13  S   UNL     1      -2.058  12.758  20.996  0.00  0.00    +0.000 S 
ENDROOT
BRANCH   9  14
ATOM     14  C   UNL     1       1.864   8.455  19.031  0.00  0.00    +0.000 C 
ATOM     15  F   UNL     1       1.405   7.499  18.180  0.00  0.00    +0.000 F 
ATOM     16  F   UNL     1       2.900   9.064  18.394  0.00  0.00    +0.000 F 
ATOM     17  F   UNL     1       2.404   7.791  20.087  0.00  0.00    +0.000 F 
ENDBRANCH   9  14
BRANCH  11  18
ATOM     18  N   UNL     1      -1.290  12.148  17.998  0.00  0.00    +0.000 N 
ATOM     19  O   UNL     1      -0.673  13.194  17.752  0.00  0.00    +0.000 OA
ATOM     20  O   UNL     1      -2.299  11.747  17.408  0.00  0.00    +0.000 OA
ENDBRANCH  11  18
BRANCH   1  21
ATOM     21  C   UNL     1      -3.965  14.217  23.058  0.00  0.00    +0.000 C 
BRANCH  21  25
ATOM     22  C   UNL     1      -6.831  14.239  19.742  0.00  0.00    +0.000 A 
ATOM     23  C   UNL     1      -6.858  13.241  20.729  0.00  0.00    +0.000 A 
ATOM     24  C   UNL     1      -5.970  13.243  21.814  0.00  0.00    +0.000 A 
ATOM     25  C   UNL     1      -5.019  14.256  21.964  0.00  0.00    +0.000 A 
ATOM     26  C   UNL     1      -5.065  15.325  21.064  0.00  0.00    +0.000 A 
ATOM     27  C   UNL     1      -5.955  15.312  19.978  0.00  0.00    +0.000 A 
BRANCH  22  29
ATOM     28  C   UNL     1      -7.452  13.069  17.661  0.00  0.00    +0.000 C 
ATOM     29  N   UNL     1      -7.628  14.189  18.586  0.00  0.00    +0.000 N 
ATOM     30  C   UNL     1      -7.915  15.482  17.958  0.00  0.00    +0.000 C 
ENDBRANCH  22  29
ENDBRANCH  21  25
ENDBRANCH   1  21
TORSDOF 5
ENDMDL
MODEL 8
REMARK VINA RESULT:      -6.5      3.397      5.036
REMARK  Name = 
REMARK  8 active torsions:
REMARK  status: ('A' for Active; 'I' for Inactive)
REMARK    1  A    between atoms: C_1  and  N_2
REMARK    2  A    between atoms: N_2  and  C_3
REMARK    3  A    between atoms: N_2  and  C_4
REMARK    4  A    between atoms: C_7  and  C_8
REMARK    5  A    between atoms: C_8  and  N_9
REMARK    6  A    between atoms: N_9  and  C_10
REMARK    7  A    between atoms: C_17  and  C_18
REMARK    8  A    between atoms: C_23  and  N_24
REMARK                            x       y       z     vdW  Elec       q    Type
REMARK                         _______ _______ _______ _____ _____    ______ ____
ROOT
ATOM      1  N   UNL     1       1.827   7.650  19.622  0.00  0.00    +0.000 N 
ATOM      2  C   UNL     1       2.290   6.550  20.482  0.00  0.00    +0.000 C 
ATOM      3  C   UNL     1       1.080   8.669  20.203  0.00  0.00    +0.000 A 
ATOM      4  N   UNL     1       0.674   8.526  21.423  0.00  0.00    +0.000 NA
ATOM      5  C   UNL     1      -0.153   9.373  22.084  0.00  0.00    +0.000 A 
ATOM      6  O   UNL     1      -0.837   8.987  23.026  0.00  0.00    +0.000 OA
ATOM      7  C   UNL     1      -0.227  10.804  21.740  0.00  0.00    +0.000 A 
ATOM      8  C   UNL     1      -0.791  11.673  22.699  0.00  0.00    +0.000 A 
ATOM      9  C   UNL     1      -1.002  13.027  22.424  0.00  0.00    +0.000 A 
ATOM     10  C   UNL     1      -0.575  13.516  21.187  0.00  0.00    +0.000 A 
ATOM     11  C   UNL     1       0.005  12.640  20.245  0.00  0.00    +0.000 A 
ATOM     12  C   UNL     1       0.172  11.262  20.487  0.00  0.00    +0.000 A 
ATOM     13  S   UNL     1       0.711  10.102  19.254  0.00  0.00    +0.000 S 
ENDROOT
BRANCH   9  14
ATOM     14  C   UNL     1      -1.724  13.915  23.412  0.00  0.00    +0.000 C 
ATOM     15  F   UNL     1      -0.896  14.498  24.321  0.00  0.00    +0.000 F 
ATOM     16  F   UNL     1      -2.395  14.930  22.806  0.00  0.00    +0.000 F 
ATOM     17  F   UNL     1      -2.647  13.224  24.133  0.00  0.00    +0.000 F 
ENDBRANCH   9  14
BRANCH  11  18
ATOM     18  N   UNL     1       0.415  13.231  18.984  0.00  0.00    +0.000 N 
ATOM     19  O   UNL     1      -0.459  13.345  18.114  0.00  0.00    +0.000 OA
ATOM     20  O   UNL     1       1.578  13.641  18.901  0.00  0.00    +0.000 OA
ENDBRANCH  11  18
BRANCH   1  21
ATOM     21  C   UNL     1       1.960   7.399  18.181  0.00  0.00    +0.000 C 
BRANCH  21  25
ATOM     22  C   UNL     1       5.710   5.516  16.915  0.00  0.00    +0.000 A 
ATOM     23  C   UNL     1       5.648   6.877  17.251  0.00  0.00    +0.000 A 
ATOM     24  C   UNL     1       4.464   7.483  17.692  0.00  0.00    +0.000 A 
ATOM     25  C   UNL     1       3.284   6.745  17.826  0.00  0.00    +0.000 A 
ATOM     26  C   UNL     1       3.359   5.363  17.622  0.00  0.00    +0.000 A 
ATOM     27  C   UNL     1       4.549   4.766  17.175  0.00  0.00    +0.000 A 
BRANCH  22  29
ATOM     28  C   UNL     1       6.710   4.153  15.119  0.00  0.00    +0.000 C 
ATOM     29  N   UNL     1       6.853   4.919  16.357  0.00  0.00    +0.000 N 
ATOM     30  C   UNL     1       7.820   4.382  17.318  0.00  0.00    +0.000 C 
ENDBRANCH  22  29
ENDBRANCH  21  25
ENDBRANCH   1  21
TORSDOF 5
ENDMDL
MODEL 9
REMARK VINA RESULT:      -6.5      1.244      1.665
REMARK  Name = 
REMARK  8 active torsions:
REMARK  status: ('A' for Active; 'I' for Inactive)
REMARK    1  A    between atoms: C_1  and  N_2
REMARK    2  A    between atoms: N_2  and  C_3
REMARK    3  A    between atoms: N_2  and  C_4
REMARK    4  A    between atoms: C_7  and  C_8
REMARK    5  A    between atoms: C_8  and  N_9
REMARK    6  A    between atoms: N_9  and  C_10
REMARK    7  A    between atoms: C_17  and  C_18
REMARK    8  A    between atoms: C_23  and  N_24
REMARK                            x       y       z     vdW  Elec       q    Type
REMARK                         _______ _______ _______ _____ _____    ______ ____
ROOT
ATOM      1  N   UNL     1      -1.469  11.246  18.951  0.00  0.00    +0.000 N 
ATOM      2  C   UNL     1      -2.167  10.150  18.262  0.00  0.00    +0.000 C 
ATOM      3  C   UNL     1      -2.231  12.173  19.654  0.00  0.00    +0.000 A 
ATOM      4  N   UNL     1      -3.519  12.141  19.531  0.00  0.00    +0.000 NA
ATOM      5  C   UNL     1      -4.384  13.043  20.058  0.00  0.00    +0.000 A 
ATOM      6  O   UNL     1      -5.493  13.221  19.565  0.00  0.00    +0.000 OA
ATOM      7  C   UNL     1      -4.057  13.807  21.275  0.00  0.00    +0.000 A 
ATOM      8  C   UNL     1      -5.127  14.411  21.969  0.00  0.00    +0.000 A 
ATOM      9  C   UNL     1      -4.907  15.242  23.071  0.00  0.00    +0.000 A 
ATOM     10  C   UNL     1      -3.592  15.407  23.512  0.00  0.00    +0.000 A 
ATOM     11  C   UNL     1      -2.533  14.781  22.821  0.00  0.00    +0.000 A 
ATOM     12  C   UNL     1      -2.734  13.986  21.675  0.00  0.00    +0.000 A 
ATOM     13  S   UNL     1      -1.414  13.352  20.669  0.00  0.00    +0.000 S 
ENDROOT
BRANCH   9  14
ATOM     14  C   UNL     1      -6.053  15.984  23.722  0.00  0.00    +0.000 C 
ATOM     15  F   UNL     1      -7.094  15.178  24.064  0.00  0.00    +0.000 F 
ATOM     16  F   UNL     1      -5.677  16.622  24.862  0.00  0.00    +0.000 F 
ATOM     17  F   UNL     1      -6.569  16.938  22.903  0.00  0.00    +0.000 F 
ENDBRANCH   9  14
BRANCH  11  18
ATOM     18  N   UNL     1      -1.199  15.010  23.344  0.00  0.00    +0.000 N 
ATOM     19  O   UNL     1      -0.667  16.091  23.055  0.00  0.00    +0.000 OA
ATOM     20  O   UNL     1      -0.728  14.149  24.095  0.00  0.00    +0.000 OA
ENDBRANCH  11  18
BRANCH   1  21
ATOM     21  C   UNL     1      -0.057  11.404  18.576  0.00  0.00    +0.000 C 
BRANCH  21  25
ATOM     22  C   UNL     1       2.105   7.686  19.419  0.00  0.00    +0.000 A 
ATOM     23  C   UNL     1       2.186   8.315  18.167  0.00  0.00    +0.000 A 
ATOM     24  C   UNL     1       1.529   9.523  17.897  0.00  0.00    +0.000 A 
ATOM     25  C   UNL     1       0.765  10.163  18.877  0.00  0.00    +0.000 A 
ATOM     26  C   UNL     1       0.780   9.619  20.165  0.00  0.00    +0.000 A 
ATOM     27  C   UNL     1       1.438   8.406  20.426  0.00  0.00    +0.000 A 
BRANCH  22  29
ATOM     28  C   UNL     1       3.394   5.748  18.603  0.00  0.00    +0.000 C 
ATOM     29  N   UNL     1       2.654   6.418  19.673  0.00  0.00    +0.000 N 
ATOM     30  C   UNL     1       1.850   5.538  20.525  0.00  0.00    +0.000 C 
ENDBRANCH  22  29
ENDBRANCH  21  25
ENDBRANCH   1  21
TORSDOF 5
ENDMDL
