MODEL 1
REMARK VINA RESULT:      -7.7      0.000      0.000
REMARK  Name = 
REMARK  6 active torsions:
REMARK  status: ('A' for Active; 'I' for Inactive)
REMARK    1  A    between atoms: C_2  and  C_3
REMARK    2  A    between atoms: C_2  and  C_9
REMARK    3  A    between atoms: N_12  and  C_13
REMARK    4  A    between atoms: C_13  and  C_14
REMARK    5  A    between atoms: C_14  and  C_15
REMARK    6  A    between atoms: C_21  and  C_22
REMARK                            x       y       z     vdW  Elec       q    Type
REMARK                         _______ _______ _______ _____ _____    ______ ____
ROOT
ATOM      1  C   UNL     1       5.303   5.407  16.999  0.00  0.00    +0.000 A 
ATOM      2  S   UNL     1       5.056   7.096  16.770  0.00  0.00    +0.000 S 
ATOM      3  C   UNL     1       3.582   7.008  17.640  0.00  0.00    +0.000 A 
ATOM      4  N   UNL     1       2.807   8.111  17.750  0.00  0.00    +0.000 N 
ATOM      5  N   UNL     1       3.322   5.839  18.168  0.00  0.00    +0.000 NA
ATOM      6  C   UNL     1       4.313   4.920  17.836  0.00  0.00    +0.000 A 
ATOM      7  H   UNL     1       3.248   8.976  17.457  0.00  0.00    +0.000 HD
ENDROOT
BRANCH   6   8
ATOM      8  C   UNL     1       4.236   3.523  18.360  0.00  0.00    +0.000 A 
ATOM      9  C   UNL     1       3.507   2.493  17.791  0.00  0.00    +0.000 A 
ATOM     10  C   UNL     1       3.678   1.357  18.621  0.00  0.00    +0.000 A 
ATOM     11  C   UNL     1       4.500   1.759  19.645  0.00  0.00    +0.000 A 
ATOM     12  O   UNL     1       4.862   3.055  19.480  0.00  0.00    +0.000 OA
ENDBRANCH   6   8
BRANCH   1  14
ATOM     13  O   UNL     1       7.410   4.364  17.121  0.00  0.00    +0.000 OA
ATOM     14  C   UNL     1       6.470   4.761  16.435  0.00  0.00    +0.000 C 
BRANCH  14  15
ATOM     15  C   UNL     1       6.590   4.591  14.948  0.00  0.00    +0.000 A 
ATOM     16  C   UNL     1       7.566   5.239  14.177  0.00  0.00    +0.000 A 
ATOM     17  C   UNL     1       7.677   4.978  12.809  0.00  0.00    +0.000 A 
ATOM     18  C   UNL     1       6.782   4.108  12.189  0.00  0.00    +0.000 A 
ATOM     19  C   UNL     1       5.772   3.502  12.932  0.00  0.00    +0.000 A 
ATOM     20  C   UNL     1       5.678   3.740  14.305  0.00  0.00    +0.000 A 
ENDBRANCH  14  15
ENDBRANCH   1  14
BRANCH   4  21
ATOM     21  C   UNL     1       1.981   8.225  18.947  0.00  0.00    +0.000 C 
BRANCH  21  22
ATOM     22  C   UNL     1       1.267   9.580  18.979  0.00  0.00    +0.000 C 
BRANCH  22  23
ATOM     23  C   UNL     1       0.651   9.842  20.321  0.00  0.00    +0.000 A 
ATOM     24  C   UNL     1      -0.293  10.793  20.653  0.00  0.00    +0.000 A 
ATOM     25  C   UNL     1      -0.658  10.734  22.029  0.00  0.00    +0.000 A 
ATOM     26  C   UNL     1       0.019   9.741  22.699  0.00  0.00    +0.000 A 
ATOM     27  S   UNL     1       1.094   8.893  21.676  0.00  0.00    +0.000 S 
ENDBRANCH  22  23
ENDBRANCH  21  22
ENDBRANCH   4  21
TORSDOF 6
ENDMDL
MODEL 2
REMARK VINA RESULT:      -7.6      1.902      2.586
REMARK  Name = 
REMARK  6 active torsions:
REMARK  status: ('A' for Active; 'I' for Inactive)
REMARK    1  A    between atoms: C_2  and  C_3
REMARK    2  A    between atoms: C_2  and  C_9
REMARK    3  A    between atoms: N_12  and  C_13
REMARK    4  A    between atoms: C_13  and  C_14
REMARK    5  A    between atoms: C_14  and  C_15
REMARK    6  A    between atoms: C_21  and  C_22
REMARK                            x       y       z     vdW  Elec       q    Type
REMARK                         _______ _______ _______ _____ _____    ______ ____
ROOT
ATOM      1  C   UNL     1       3.761   6.113  18.397  0.00  0.00    +0.000 A 
ATOM      2  S   UNL     1       3.842   7.672  17.669  0.00  0.00    +0.000 S 
ATOM      3  C   UNL     1       2.228   7.990  18.148  0.00  0.00    +0.000 A 
ATOM      4  N   UNL     1       1.635   9.146  17.767  0.00  0.00    +0.000 N 
ATOM      5  N   UNL     1       1.680   7.064  18.893  0.00  0.00    +0.000 NA
ATOM      6  C   UNL     1       2.556   5.996  19.070  0.00  0.00    +0.000 A 
ATOM      7  H   UNL     1       2.262   9.837  17.367  0.00  0.00    +0.000 HD
ENDROOT
BRANCH   6   8
ATOM      8  C   UNL     1       2.150   4.834  19.916  0.00  0.00    +0.000 A 
ATOM      9  C   UNL     1       1.273   3.833  19.534  0.00  0.00    +0.000 A 
ATOM     10  C   UNL     1       1.137   2.959  20.641  0.00  0.00    +0.000 A 
ATOM     11  C   UNL     1       1.936   3.476  21.631  0.00  0.00    +0.000 A 
ATOM     12  O   UNL     1       2.570   4.591  21.193  0.00  0.00    +0.000 OA
ENDBRANCH   6   8
BRANCH   1  14
ATOM     13  O   UNL     1       5.421   4.725  19.324  0.00  0.00    +0.000 OA
ATOM     14  C   UNL     1       4.898   5.218  18.327  0.00  0.00    +0.000 C 
BRANCH  14  15
ATOM     15  C   UNL     1       5.516   4.893  16.998  0.00  0.00    +0.000 A 
ATOM     16  C   UNL     1       4.805   4.295  15.947  0.00  0.00    +0.000 A 
ATOM     17  C   UNL     1       5.415   4.089  14.707  0.00  0.00    +0.000 A 
ATOM     18  C   UNL     1       6.753   4.432  14.520  0.00  0.00    +0.000 A 
ATOM     19  C   UNL     1       7.486   4.973  15.573  0.00  0.00    +0.000 A 
ATOM     20  C   UNL     1       6.870   5.205  16.805  0.00  0.00    +0.000 A 
ENDBRANCH  14  15
ENDBRANCH   1  14
BRANCH   4  21
ATOM     21  C   UNL     1       0.613   9.691  18.653  0.00  0.00    +0.000 C 
BRANCH  21  22
ATOM     22  C   UNL     1       1.258  10.532  19.760  0.00  0.00    +0.000 C 
BRANCH  22  23
ATOM     23  C   UNL     1       0.582  10.308  21.080  0.00  0.00    +0.000 A 
ATOM     24  C   UNL     1       0.859   9.340  22.025  0.00  0.00    +0.000 A 
ATOM     25  C   UNL     1       0.017   9.446  23.170  0.00  0.00    +0.000 A 
ATOM     26  C   UNL     1      -0.873  10.490  23.059  0.00  0.00    +0.000 A 
ATOM     27  S   UNL     1      -0.699  11.329  21.581  0.00  0.00    +0.000 S 
ENDBRANCH  22  23
ENDBRANCH  21  22
ENDBRANCH   4  21
TORSDOF 6
ENDMDL
MODEL 3
REMARK VINA RESULT:      -7.6      2.366      3.040
REMARK  Name = 
REMARK  6 active torsions:
REMARK  status: ('A' for Active; 'I' for Inactive)
REMARK    1  A    between atoms: C_2  and  C_3
REMARK    2  A    between atoms: C_2  and  C_9
REMARK    3  A    between atoms: N_12  and  C_13
REMARK    4  A    between atoms: C_13  and  C_14
REMARK    5  A    between atoms: C_14  and  C_15
REMARK    6  A    between atoms: C_21  and  C_22
REMARK                            x       y       z     vdW  Elec       q    Type
REMARK                         _______ _______ _______ _____ _____    ______ ____
ROOT
ATOM      1  C   UNL     1       3.921   5.663  18.308  0.00  0.00    +0.000 A 
ATOM      2  S   UNL     1       4.061   7.270  17.702  0.00  0.00    +0.000 S 
ATOM      3  C   UNL     1       2.531   7.663  18.365  0.00  0.00    +0.000 A 
ATOM      4  N   UNL     1       2.002   8.888  18.139  0.00  0.00    +0.000 N 
ATOM      5  N   UNL     1       1.982   6.718  19.085  0.00  0.00    +0.000 NA
ATOM      6  C   UNL     1       2.779   5.578  19.087  0.00  0.00    +0.000 A 
ATOM      7  H   UNL     1       2.643   9.564  17.734  0.00  0.00    +0.000 HD
ENDROOT
BRANCH   6   8
ATOM      8  C   UNL     1       2.360   4.380  19.875  0.00  0.00    +0.000 A 
ATOM      9  C   UNL     1       2.209   4.339  21.250  0.00  0.00    +0.000 A 
ATOM     10  C   UNL     1       1.842   3.012  21.587  0.00  0.00    +0.000 A 
ATOM     11  C   UNL     1       1.789   2.323  20.400  0.00  0.00    +0.000 A 
ATOM     12  O   UNL     1       2.074   3.147  19.362  0.00  0.00    +0.000 OA
ENDBRANCH   6   8
BRANCH   1  14
ATOM     13  O   UNL     1       5.419   3.954  18.923  0.00  0.00    +0.000 OA
ATOM     14  C   UNL     1       4.969   4.696  18.052  0.00  0.00    +0.000 C 
BRANCH  14  15
ATOM     15  C   UNL     1       5.584   4.599  16.686  0.00  0.00    +0.000 A 
ATOM     16  C   UNL     1       4.876   4.171  15.554  0.00  0.00    +0.000 A 
ATOM     17  C   UNL     1       5.481   4.178  14.295  0.00  0.00    +0.000 A 
ATOM     18  C   UNL     1       6.814   4.565  14.163  0.00  0.00    +0.000 A 
ATOM     19  C   UNL     1       7.546   4.938  15.287  0.00  0.00    +0.000 A 
ATOM     20  C   UNL     1       6.933   4.958  16.542  0.00  0.00    +0.000 A 
ENDBRANCH  14  15
ENDBRANCH   1  14
BRANCH   4  21
ATOM     21  C   UNL     1       1.116   9.428  19.165  0.00  0.00    +0.000 C 
BRANCH  21  22
ATOM     22  C   UNL     1       0.649  10.836  18.781  0.00  0.00    +0.000 C 
BRANCH  22  23
ATOM     23  C   UNL     1      -0.784  10.834  18.338  0.00  0.00    +0.000 A 
ATOM     24  C   UNL     1      -1.439   9.883  17.582  0.00  0.00    +0.000 A 
ATOM     25  C   UNL     1      -2.810  10.211  17.372  0.00  0.00    +0.000 A 
ATOM     26  C   UNL     1      -3.153  11.400  17.975  0.00  0.00    +0.000 A 
ATOM     27  S   UNL     1      -1.828  12.118  18.780  0.00  0.00    +0.000 S 
ENDBRANCH  22  23
ENDBRANCH  21  22
ENDBRANCH   4  21
TORSDOF 6
ENDMDL
MODEL 4
REMARK VINA RESULT:      -7.6      0.741      1.259
REMARK  Name = 
REMARK  6 active torsions:
REMARK  status: ('A' for Active; 'I' for Inactive)
REMARK    1  A    between atoms: C_2  and  C_3
REMARK    2  A    between atoms: C_2  and  C_9
REMARK    3  A    between atoms: N_12  and  C_13
REMARK    4  A    between atoms: C_13  and  C_14
REMARK    5  A    between atoms: C_14  and  C_15
REMARK    6  A    between atoms: C_21  and  C_22
REMARK                            x       y       z     vdW  Elec       q    Type
REMARK                         _______ _______ _______ _____ _____    ______ ____
ROOT
ATOM      1  C   UNL     1       5.311   5.440  16.928  0.00  0.00    +0.000 A 
ATOM      2  S   UNL     1       5.126   7.133  16.674  0.00  0.00    +0.000 S 
ATOM      3  C   UNL     1       3.631   7.105  17.511  0.00  0.00    +0.000 A 
ATOM      4  N   UNL     1       2.891   8.235  17.591  0.00  0.00    +0.000 N 
ATOM      5  N   UNL     1       3.320   5.952  18.047  0.00  0.00    +0.000 NA
ATOM      6  C   UNL     1       4.287   4.996  17.748  0.00  0.00    +0.000 A 
ATOM      7  H   UNL     1       3.368   9.082  17.298  0.00  0.00    +0.000 HD
ENDROOT
BRANCH   6   8
ATOM      8  C   UNL     1       4.151   3.609  18.286  0.00  0.00    +0.000 A 
ATOM      9  C   UNL     1       3.513   2.561  17.647  0.00  0.00    +0.000 A 
ATOM     10  C   UNL     1       3.579   1.444  18.516  0.00  0.00    +0.000 A 
ATOM     11  C   UNL     1       4.254   1.874  19.632  0.00  0.00    +0.000 A 
ATOM     12  O   UNL     1       4.625   3.170  19.490  0.00  0.00    +0.000 OA
ENDBRANCH   6   8
BRANCH   1  14
ATOM     13  O   UNL     1       7.400   4.368  17.105  0.00  0.00    +0.000 OA
ATOM     14  C   UNL     1       6.468   4.748  16.398  0.00  0.00    +0.000 C 
BRANCH  14  15
ATOM     15  C   UNL     1       6.588   4.506  14.922  0.00  0.00    +0.000 A 
ATOM     16  C   UNL     1       5.746   3.634  14.216  0.00  0.00    +0.000 A 
ATOM     17  C   UNL     1       5.855   3.512  12.829  0.00  0.00    +0.000 A 
ATOM     18  C   UNL     1       6.838   4.220  12.140  0.00  0.00    +0.000 A 
ATOM     19  C   UNL     1       7.718   5.046  12.836  0.00  0.00    +0.000 A 
ATOM     20  C   UNL     1       7.591   5.190  14.219  0.00  0.00    +0.000 A 
ENDBRANCH  14  15
ENDBRANCH   1  14
BRANCH   4  21
ATOM     21  C   UNL     1       2.043   8.391  18.768  0.00  0.00    +0.000 C 
BRANCH  21  22
ATOM     22  C   UNL     1       1.061   9.551  18.570  0.00  0.00    +0.000 C 
BRANCH  22  23
ATOM     23  C   UNL     1       0.528  10.044  19.882  0.00  0.00    +0.000 A 
ATOM     24  C   UNL     1       0.010   9.301  20.924  0.00  0.00    +0.000 A 
ATOM     25  C   UNL     1      -0.384  10.116  22.024  0.00  0.00    +0.000 A 
ATOM     26  C   UNL     1      -0.154  11.452  21.785  0.00  0.00    +0.000 A 
ATOM     27  S   UNL     1       0.524  11.719  20.239  0.00  0.00    +0.000 S 
ENDBRANCH  22  23
ENDBRANCH  21  22
ENDBRANCH   4  21
TORSDOF 6
ENDMDL
MODEL 5
REMARK VINA RESULT:      -7.5      0.838      1.089
REMARK  Name = 
REMARK  6 active torsions:
REMARK  status: ('A' for Active; 'I' for Inactive)
REMARK    1  A    between atoms: C_2  and  C_3
REMARK    2  A    between atoms: C_2  and  C_9
REMARK    3  A    between atoms: N_12  and  C_13
REMARK    4  A    between atoms: C_13  and  C_14
REMARK    5  A    between atoms: C_14  and  C_15
REMARK    6  A    between atoms: C_21  and  C_22
REMARK                            x       y       z     vdW  Elec       q    Type
REMARK                         _______ _______ _______ _____ _____    ______ ____
ROOT
ATOM      1  C   UNL     1       5.223   5.437  17.017  0.00  0.00    +0.000 A 
ATOM      2  S   UNL     1       5.014   7.137  16.826  0.00  0.00    +0.000 S 
ATOM      3  C   UNL     1       3.511   7.054  17.644  0.00  0.00    +0.000 A 
ATOM      4  N   UNL     1       2.753   8.169  17.759  0.00  0.00    +0.000 N 
ATOM      5  N   UNL     1       3.212   5.877  18.132  0.00  0.00    +0.000 NA
ATOM      6  C   UNL     1       4.196   4.948  17.808  0.00  0.00    +0.000 A 
ATOM      7  H   UNL     1       3.220   9.033  17.504  0.00  0.00    +0.000 HD
ENDROOT
BRANCH   6   8
ATOM      8  C   UNL     1       4.077   3.539  18.291  0.00  0.00    +0.000 A 
ATOM      9  C   UNL     1       4.505   3.077  19.523  0.00  0.00    +0.000 A 
ATOM     10  C   UNL     1       4.239   1.685  19.558  0.00  0.00    +0.000 A 
ATOM     11  C   UNL     1       3.663   1.381  18.349  0.00  0.00    +0.000 A 
ATOM     12  O   UNL     1       3.538   2.498  17.590  0.00  0.00    +0.000 OA
ENDBRANCH   6   8
BRANCH   1  14
ATOM     13  O   UNL     1       7.320   4.380  17.178  0.00  0.00    +0.000 OA
ATOM     14  C   UNL     1       6.396   4.784  16.474  0.00  0.00    +0.000 C 
BRANCH  14  15
ATOM     15  C   UNL     1       6.542   4.614  14.990  0.00  0.00    +0.000 A 
ATOM     16  C   UNL     1       7.521   5.275  14.234  0.00  0.00    +0.000 A 
ATOM     17  C   UNL     1       7.657   5.014  12.868  0.00  0.00    +0.000 A 
ATOM     18  C   UNL     1       6.785   4.130  12.235  0.00  0.00    +0.000 A 
ATOM     19  C   UNL     1       5.771   3.512  12.962  0.00  0.00    +0.000 A 
ATOM     20  C   UNL     1       5.652   3.750  14.333  0.00  0.00    +0.000 A 
ENDBRANCH  14  15
ENDBRANCH   1  14
BRANCH   4  21
ATOM     21  C   UNL     1       1.890   8.267  18.931  0.00  0.00    +0.000 C 
BRANCH  21  22
ATOM     22  C   UNL     1       1.294   9.674  19.041  0.00  0.00    +0.000 C 
BRANCH  22  23
ATOM     23  C   UNL     1       0.664   9.897  20.384  0.00  0.00    +0.000 A 
ATOM     24  C   UNL     1       0.665   9.052  21.475  0.00  0.00    +0.000 A 
ATOM     25  C   UNL     1      -0.023   9.610  22.591  0.00  0.00    +0.000 A 
ATOM     26  C   UNL     1      -0.525  10.861  22.313  0.00  0.00    +0.000 A 
ATOM     27  S   UNL     1      -0.175  11.353  20.714  0.00  0.00    +0.000 S 
ENDBRANCH  22  23
ENDBRANCH  21  22
ENDBRANCH   4  21
TORSDOF 6
ENDMDL
MODEL 6
REMARK VINA RESULT:      -7.4      3.081      8.695
REMARK  Name = 
REMARK  6 active torsions:
REMARK  status: ('A' for Active; 'I' for Inactive)
REMARK    1  A    between atoms: C_2  and  C_3
REMARK    2  A    between atoms: C_2  and  C_9
REMARK    3  A    between atoms: N_12  and  C_13
REMARK    4  A    between atoms: C_13  and  C_14
REMARK    5  A    between atoms: C_14  and  C_15
REMARK    6  A    between atoms: C_21  and  C_22
REMARK                            x       y       z     vdW  Elec       q    Type
REMARK                         _______ _______ _______ _____ _____    ______ ____
ROOT
ATOM      1  C   UNL     1       1.524   9.248  18.945  0.00  0.00    +0.000 A 
ATOM      2  S   UNL     1       2.274   8.371  17.666  0.00  0.00    +0.000 S 
ATOM      3  C   UNL     1       2.667   7.105  18.752  0.00  0.00    +0.000 A 
ATOM      4  N   UNL     1       3.399   6.055  18.314  0.00  0.00    +0.000 N 
ATOM      5  N   UNL     1       2.190   7.249  19.962  0.00  0.00    +0.000 NA
ATOM      6  C   UNL     1       1.508   8.456  20.080  0.00  0.00    +0.000 A 
ATOM      7  H   UNL     1       3.514   6.003  17.307  0.00  0.00    +0.000 HD
ENDROOT
BRANCH   6   8
ATOM      8  C   UNL     1       0.851   8.814  21.374  0.00  0.00    +0.000 A 
ATOM      9  C   UNL     1      -0.506   8.733  21.632  0.00  0.00    +0.000 A 
ATOM     10  C   UNL     1      -0.705   9.202  22.955  0.00  0.00    +0.000 A 
ATOM     11  C   UNL     1       0.541   9.540  23.425  0.00  0.00    +0.000 A 
ATOM     12  O   UNL     1       1.486   9.285  22.488  0.00  0.00    +0.000 OA
ENDBRANCH   6   8
BRANCH   1  14
ATOM     13  O   UNL     1       1.609  11.589  18.710  0.00  0.00    +0.000 OA
ATOM     14  C   UNL     1       0.948  10.553  18.691  0.00  0.00    +0.000 C 
BRANCH  14  15
ATOM     15  C   UNL     1      -0.525  10.686  18.431  0.00  0.00    +0.000 A 
ATOM     16  C   UNL     1      -1.223   9.866  17.532  0.00  0.00    +0.000 A 
ATOM     17  C   UNL     1      -2.607   9.986  17.393  0.00  0.00    +0.000 A 
ATOM     18  C   UNL     1      -3.300  10.959  18.111  0.00  0.00    +0.000 A 
ATOM     19  C   UNL     1      -2.611  11.818  18.963  0.00  0.00    +0.000 A 
ATOM     20  C   UNL     1      -1.231  11.680  19.125  0.00  0.00    +0.000 A 
ENDBRANCH  14  15
ENDBRANCH   1  14
BRANCH   4  21
ATOM     21  C   UNL     1       3.175   4.771  18.968  0.00  0.00    +0.000 C 
BRANCH  21  22
ATOM     22  C   UNL     1       3.811   3.638  18.156  0.00  0.00    +0.000 C 
BRANCH  22  23
ATOM     23  C   UNL     1       4.952   4.139  17.321  0.00  0.00    +0.000 A 
ATOM     24  C   UNL     1       5.015   4.253  15.947  0.00  0.00    +0.000 A 
ATOM     25  C   UNL     1       6.260   4.789  15.506  0.00  0.00    +0.000 A 
ATOM     26  C   UNL     1       7.103   5.065  16.559  0.00  0.00    +0.000 A 
ATOM     27  S   UNL     1       6.400   4.672  18.066  0.00  0.00    +0.000 S 
ENDBRANCH  22  23
ENDBRANCH  21  22
ENDBRANCH   4  21
TORSDOF 6
ENDMDL
MODEL 7
REMARK VINA RESULT:      -7.3      2.026      2.625
REMARK  Name = 
REMARK  6 active torsions:
REMARK  status: ('A' for Active; 'I' for Inactive)
REMARK    1  A    between atoms: C_2  and  C_3
REMARK    2  A    between atoms: C_2  and  C_9
REMARK    3  A    between atoms: N_12  and  C_13
REMARK    4  A    between atoms: C_13  and  C_14
REMARK    5  A    between atoms: C_14  and  C_15
REMARK    6  A    between atoms: C_21  and  C_22
REMARK                            x       y       z     vdW  Elec       q    Type
REMARK                         _______ _______ _______ _____ _____    ______ ____
ROOT
ATOM      1  C   UNL     1       3.819   5.793  18.197  0.00  0.00    +0.000 A 
ATOM      2  S   UNL     1       4.018   7.340  17.464  0.00  0.00    +0.000 S 
ATOM      3  C   UNL     1       2.529   7.859  18.135  0.00  0.00    +0.000 A 
ATOM      4  N   UNL     1       2.053   9.088  17.827  0.00  0.00    +0.000 N 
ATOM      5  N   UNL     1       1.957   7.001  18.940  0.00  0.00    +0.000 NA
ATOM      6  C   UNL     1       2.699   5.825  19.010  0.00  0.00    +0.000 A 
ATOM      7  H   UNL     1       2.712   9.697  17.354  0.00  0.00    +0.000 HD
ENDROOT
BRANCH   6   8
ATOM      8  C   UNL     1       2.246   4.714  19.900  0.00  0.00    +0.000 A 
ATOM      9  C   UNL     1       1.361   3.712  19.543  0.00  0.00    +0.000 A 
ATOM     10  C   UNL     1       1.177   2.895  20.686  0.00  0.00    +0.000 A 
ATOM     11  C   UNL     1       1.960   3.444  21.671  0.00  0.00    +0.000 A 
ATOM     12  O   UNL     1       2.628   4.524  21.198  0.00  0.00    +0.000 OA
ENDBRANCH   6   8
BRANCH   1  14
ATOM     13  O   UNL     1       5.154   3.976  18.875  0.00  0.00    +0.000 OA
ATOM     14  C   UNL     1       4.812   4.759  17.990  0.00  0.00    +0.000 C 
BRANCH  14  15
ATOM     15  C   UNL     1       5.503   4.635  16.663  0.00  0.00    +0.000 A 
ATOM     16  C   UNL     1       4.863   4.168  15.505  0.00  0.00    +0.000 A 
ATOM     17  C   UNL     1       5.538   4.151  14.282  0.00  0.00    +0.000 A 
ATOM     18  C   UNL     1       6.870   4.553  14.213  0.00  0.00    +0.000 A 
ATOM     19  C   UNL     1       7.534   4.965  15.366  0.00  0.00    +0.000 A 
ATOM     20  C   UNL     1       6.853   5.009  16.584  0.00  0.00    +0.000 A 
ENDBRANCH  14  15
ENDBRANCH   1  14
BRANCH   4  21
ATOM     21  C   UNL     1       1.225   9.749  18.830  0.00  0.00    +0.000 C 
BRANCH  21  22
ATOM     22  C   UNL     1      -0.179  10.014  18.275  0.00  0.00    +0.000 C 
BRANCH  22  23
ATOM     23  C   UNL     1      -0.948  10.949  19.161  0.00  0.00    +0.000 A 
ATOM     24  C   UNL     1      -2.004  11.768  18.818  0.00  0.00    +0.000 A 
ATOM     25  C   UNL     1      -2.499  12.506  19.933  0.00  0.00    +0.000 A 
ATOM     26  C   UNL     1      -1.803  12.224  21.086  0.00  0.00    +0.000 A 
ATOM     27  S   UNL     1      -0.557  11.084  20.823  0.00  0.00    +0.000 S 
ENDBRANCH  22  23
ENDBRANCH  21  22
ENDBRANCH   4  21
TORSDOF 6
ENDMDL
MODEL 8
REMARK VINA RESULT:      -7.3      4.275      8.462
REMARK  Name = 
REMARK  6 active torsions:
REMARK  status: ('A' for Active; 'I' for Inactive)
REMARK    1  A    between atoms: C_2  and  C_3
REMARK    2  A    between atoms: C_2  and  C_9
REMARK    3  A    between atoms: N_12  and  C_13
REMARK    4  A    between atoms: C_13  and  C_14
REMARK    5  A    between atoms: C_14  and  C_15
REMARK    6  A    between atoms: C_21  and  C_22
REMARK                            x       y       z     vdW  Elec       q    Type
REMARK                         _______ _______ _______ _____ _____    ______ ____
ROOT
ATOM      1  C   UNL     1       1.071   9.835  18.908  0.00  0.00    +0.000 A 
ATOM      2  S   UNL     1       1.861   9.235  17.500  0.00  0.00    +0.000 S 
ATOM      3  C   UNL     1       2.591   7.992  18.428  0.00  0.00    +0.000 A 
ATOM      4  N   UNL     1       3.473   7.152  17.839  0.00  0.00    +0.000 N 
ATOM      5  N   UNL     1       2.206   7.938  19.677  0.00  0.00    +0.000 NA
ATOM      6  C   UNL     1       1.312   8.968  19.960  0.00  0.00    +0.000 A 
ATOM      7  H   UNL     1       3.505   7.205  16.826  0.00  0.00    +0.000 HD
ENDROOT
BRANCH   6   8
ATOM      8  C   UNL     1       0.717   9.080  21.325  0.00  0.00    +0.000 A 
ATOM      9  C   UNL     1      -0.592   8.773  21.656  0.00  0.00    +0.000 A 
ATOM     10  C   UNL     1      -0.748   9.058  23.035  0.00  0.00    +0.000 A 
ATOM     11  C   UNL     1       0.472   9.519  23.465  0.00  0.00    +0.000 A 
ATOM     12  O   UNL     1       1.367   9.510  22.447  0.00  0.00    +0.000 OA
ENDBRANCH   6   8
BRANCH   1  14
ATOM     13  O   UNL     1       0.620  12.135  19.132  0.00  0.00    +0.000 OA
ATOM     14  C   UNL     1       0.229  11.011  18.823  0.00  0.00    +0.000 C 
BRANCH  14  15
ATOM     15  C   UNL     1      -1.200  10.881  18.382  0.00  0.00    +0.000 A 
ATOM     16  C   UNL     1      -1.629   9.938  17.437  0.00  0.00    +0.000 A 
ATOM     17  C   UNL     1      -2.986   9.812  17.128  0.00  0.00    +0.000 A 
ATOM     18  C   UNL     1      -3.919  10.661  17.720  0.00  0.00    +0.000 A 
ATOM     19  C   UNL     1      -3.499  11.641  18.616  0.00  0.00    +0.000 A 
ATOM     20  C   UNL     1      -2.147  11.749  18.948  0.00  0.00    +0.000 A 
ENDBRANCH  14  15
ENDBRANCH   1  14
BRANCH   4  21
ATOM     21  C   UNL     1       3.565   5.801  18.381  0.00  0.00    +0.000 C 
BRANCH  21  22
ATOM     22  C   UNL     1       2.412   4.936  17.861  0.00  0.00    +0.000 C 
BRANCH  22  23
ATOM     23  C   UNL     1       1.883   4.029  18.932  0.00  0.00    +0.000 A 
ATOM     24  C   UNL     1       1.176   2.854  18.779  0.00  0.00    +0.000 A 
ATOM     25  C   UNL     1       0.853   2.251  20.029  0.00  0.00    +0.000 A 
ATOM     26  C   UNL     1       1.325   2.987  21.093  0.00  0.00    +0.000 A 
ATOM     27  S   UNL     1       2.143   4.399  20.584  0.00  0.00    +0.000 S 
ENDBRANCH  22  23
ENDBRANCH  21  22
ENDBRANCH   4  21
TORSDOF 6
ENDMDL
MODEL 9
REMARK VINA RESULT:      -7.3      3.154      4.042
REMARK  Name = 
REMARK  6 active torsions:
REMARK  status: ('A' for Active; 'I' for Inactive)
REMARK    1  A    between atoms: C_2  and  C_3
REMARK    2  A    between atoms: C_2  and  C_9
REMARK    3  A    between atoms: N_12  and  C_13
REMARK    4  A    between atoms: C_13  and  C_14
REMARK    5  A    between atoms: C_14  and  C_15
REMARK    6  A    between atoms: C_21  and  C_22
REMARK                            x       y       z     vdW  Elec       q    Type
REMARK                         _______ _______ _______ _____ _____    ______ ____
ROOT
ATOM      1  C   UNL     1       2.718   6.567  18.765  0.00  0.00    +0.000 A 
ATOM      2  S   UNL     1       2.606   8.257  18.447  0.00  0.00    +0.000 S 
ATOM      3  C   UNL     1       1.417   8.418  19.671  0.00  0.00    +0.000 A 
ATOM      4  N   UNL     1       0.826   9.619  19.871  0.00  0.00    +0.000 N 
ATOM      5  N   UNL     1       1.180   7.329  20.356  0.00  0.00    +0.000 NA
ATOM      6  C   UNL     1       1.939   6.268  19.870  0.00  0.00    +0.000 A 
ATOM      7  H   UNL     1       1.267  10.398  19.393  0.00  0.00    +0.000 HD
ENDROOT
BRANCH   6   8
ATOM      8  C   UNL     1       1.852   4.930  20.527  0.00  0.00    +0.000 A 
ATOM      9  C   UNL     1       0.942   3.937  20.205  0.00  0.00    +0.000 A 
ATOM     10  C   UNL     1       1.178   2.856  21.090  0.00  0.00    +0.000 A 
ATOM     11  C   UNL     1       2.216   3.250  21.898  0.00  0.00    +0.000 A 
ATOM     12  O   UNL     1       2.645   4.488  21.548  0.00  0.00    +0.000 OA
ENDBRANCH   6   8
BRANCH   1  14
ATOM     13  O   UNL     1       3.218   4.826  17.261  0.00  0.00    +0.000 OA
ATOM     14  C   UNL     1       3.613   5.739  17.984  0.00  0.00    +0.000 C 
BRANCH  14  15
ATOM     15  C   UNL     1       5.097   5.949  18.070  0.00  0.00    +0.000 A 
ATOM     16  C   UNL     1       5.820   6.709  17.139  0.00  0.00    +0.000 A 
ATOM     17  C   UNL     1       7.188   6.934  17.318  0.00  0.00    +0.000 A 
ATOM     18  C   UNL     1       7.855   6.361  18.399  0.00  0.00    +0.000 A 
ATOM     19  C   UNL     1       7.160   5.557  19.298  0.00  0.00    +0.000 A 
ATOM     20  C   UNL     1       5.788   5.354  19.137  0.00  0.00    +0.000 A 
ENDBRANCH  14  15
ENDBRANCH   1  14
BRANCH   4  21
ATOM     21  C   UNL     1       0.367   9.915  21.224  0.00  0.00    +0.000 C 
BRANCH  21  22
ATOM     22  C   UNL     1       0.268  11.429  21.435  0.00  0.00    +0.000 C 
BRANCH  22  23
ATOM     23  C   UNL     1      -1.111  11.830  21.869  0.00  0.00    +0.000 A 
ATOM     24  C   UNL     1      -1.678  11.708  23.121  0.00  0.00    +0.000 A 
ATOM     25  C   UNL     1      -3.008  12.216  23.163  0.00  0.00    +0.000 A 
ATOM     26  C   UNL     1      -3.411  12.709  21.942  0.00  0.00    +0.000 A 
ATOM     27  S   UNL     1      -2.193  12.550  20.754  0.00  0.00    +0.000 S 
ENDBRANCH  22  23
ENDBRANCH  21  22
ENDBRANCH   4  21
TORSDOF 6
ENDMDL
