MODEL 1
REMARK VINA RESULT:      -7.2      0.000      0.000
REMARK  Name = 
REMARK  9 active torsions:
REMARK  status: ('A' for Active; 'I' for Inactive)
REMARK    1  A    between atoms: C_1  and  N_2
REMARK    2  A    between atoms: C_3  and  C_5
REMARK    3  A    between atoms: C_5  and  O_6
REMARK    4  A    between atoms: O_6  and  C_7
REMARK    5  A    between atoms: C_7  and  C_9
REMARK    6  A    between atoms: C_11  and  C_12
REMARK    7  A    between atoms: C_13  and  C_14
REMARK    8  A    between atoms: C_14  and  C_15
REMARK    9  A    between atoms: C_17  and  C_18
REMARK                            x       y       z     vdW  Elec       q    Type
REMARK                         _______ _______ _______ _____ _____    ______ ____
ROOT
ATOM      1  C   UNL     1       5.098   4.665  19.054  0.00  0.00    +0.000 A 
ATOM      2  N   UNL     1       5.172   3.302  18.901  0.00  0.00    +0.000 N 
ATOM      3  C   UNL     1       3.930   2.762  18.731  0.00  0.00    +0.000 A 
ATOM      4  C   UNL     1       3.763   1.307  18.459  0.00  0.00    +0.000 C 
ATOM      5  C   UNL     1       2.989   3.782  18.837  0.00  0.00    +0.000 A 
ATOM      6  C   UNL     1       3.741   5.001  19.052  0.00  0.00    +0.000 A 
ATOM      7  C   UNL     1       3.220   6.386  19.254  0.00  0.00    +0.000 C 
ATOM      8  H   UNL     1       6.043   2.786  18.885  0.00  0.00    +0.000 HD
ENDROOT
BRANCH   5   9
ATOM      9  C   UNL     1       1.541   3.523  18.732  0.00  0.00    +0.000 C 
ATOM     10  C   UNL     1       0.739   3.102  19.933  0.00  0.00    +0.000 C 
ATOM     11  O   UNL     1       0.945   3.686  17.662  0.00  0.00    +0.000 OA
ENDBRANCH   5   9
BRANCH   1  12
ATOM     12  C   UNL     1       6.279   5.499  19.169  0.00  0.00    +0.000 C 
ATOM     13  O   UNL     1       7.172   5.394  19.998  0.00  0.00    +0.000 OA
BRANCH  12  14
ATOM     14  O   UNL     1       6.219   6.478  18.222  0.00  0.00    +0.000 OA
BRANCH  14  15
ATOM     15  C   UNL     1       7.271   6.492  17.259  0.00  0.00    +0.000 C 
BRANCH  15  18
ATOM     16  C   UNL     1       6.128   4.413  14.289  0.00  0.00    +0.000 C 
ATOM     17  N   UNL     1       6.356   5.490  15.220  0.00  0.00    +0.000 N 
ATOM     18  C   UNL     1       7.236   5.329  16.269  0.00  0.00    +0.000 C 
ATOM     19  O   UNL     1       7.913   4.315  16.430  0.00  0.00    +0.000 OA
ATOM     20  H   UNL     1       5.731   6.290  15.219  0.00  0.00    +0.000 HD
ENDBRANCH  15  18
ENDBRANCH  14  15
ENDBRANCH  12  14
ENDBRANCH   1  12
TORSDOF 5
ENDMDL
MODEL 2
REMARK VINA RESULT:      -7.1      1.248      1.387
REMARK  Name = 
REMARK  9 active torsions:
REMARK  status: ('A' for Active; 'I' for Inactive)
REMARK    1  A    between atoms: C_1  and  N_2
REMARK    2  A    between atoms: C_3  and  C_5
REMARK    3  A    between atoms: C_5  and  O_6
REMARK    4  A    between atoms: O_6  and  C_7
REMARK    5  A    between atoms: C_7  and  C_9
REMARK    6  A    between atoms: C_11  and  C_12
REMARK    7  A    between atoms: C_13  and  C_14
REMARK    8  A    between atoms: C_14  and  C_15
REMARK    9  A    between atoms: C_17  and  C_18
REMARK                            x       y       z     vdW  Elec       q    Type
REMARK                         _______ _______ _______ _____ _____    ______ ____
ROOT
ATOM      1  C   UNL     1       5.460   4.861  18.507  0.00  0.00    +0.000 A 
ATOM      2  N   UNL     1       5.415   3.551  18.918  0.00  0.00    +0.000 N 
ATOM      3  C   UNL     1       4.129   3.097  18.960  0.00  0.00    +0.000 A 
ATOM      4  C   UNL     1       3.833   1.677  19.298  0.00  0.00    +0.000 C 
ATOM      5  C   UNL     1       3.280   4.149  18.630  0.00  0.00    +0.000 A 
ATOM      6  C   UNL     1       4.137   5.282  18.347  0.00  0.00    +0.000 A 
ATOM      7  C   UNL     1       3.740   6.670  17.963  0.00  0.00    +0.000 C 
ATOM      8  H   UNL     1       6.239   3.000  19.126  0.00  0.00    +0.000 HD
ENDROOT
BRANCH   5   9
ATOM      9  C   UNL     1       1.813   3.996  18.615  0.00  0.00    +0.000 C 
ATOM     10  C   UNL     1       1.018   4.011  19.892  0.00  0.00    +0.000 C 
ATOM     11  O   UNL     1       1.200   3.892  17.548  0.00  0.00    +0.000 OA
ENDBRANCH   5   9
BRANCH   1  12
ATOM     12  C   UNL     1       6.710   5.565  18.294  0.00  0.00    +0.000 C 
ATOM     13  O   UNL     1       7.436   6.046  19.154  0.00  0.00    +0.000 OA
BRANCH  12  14
ATOM     14  O   UNL     1       6.937   5.662  16.953  0.00  0.00    +0.000 OA
BRANCH  14  15
ATOM     15  C   UNL     1       6.950   4.436  16.224  0.00  0.00    +0.000 C 
BRANCH  15  18
ATOM     16  C   UNL     1       6.377   3.608  12.559  0.00  0.00    +0.000 C 
ATOM     17  N   UNL     1       6.306   3.642  13.999  0.00  0.00    +0.000 N 
ATOM     18  C   UNL     1       6.993   4.605  14.707  0.00  0.00    +0.000 C 
ATOM     19  O   UNL     1       7.630   5.510  14.169  0.00  0.00    +0.000 OA
ATOM     20  H   UNL     1       5.915   2.849  14.497  0.00  0.00    +0.000 HD
ENDBRANCH  15  18
ENDBRANCH  14  15
ENDBRANCH  12  14
ENDBRANCH   1  12
TORSDOF 5
ENDMDL
MODEL 3
REMARK VINA RESULT:      -7.0      1.582      1.901
REMARK  Name = 
REMARK  9 active torsions:
REMARK  status: ('A' for Active; 'I' for Inactive)
REMARK    1  A    between atoms: C_1  and  N_2
REMARK    2  A    between atoms: C_3  and  C_5
REMARK    3  A    between atoms: C_5  and  O_6
REMARK    4  A    between atoms: O_6  and  C_7
REMARK    5  A    between atoms: C_7  and  C_9
REMARK    6  A    between atoms: C_11  and  C_12
REMARK    7  A    between atoms: C_13  and  C_14
REMARK    8  A    between atoms: C_14  and  C_15
REMARK    9  A    between atoms: C_17  and  C_18
REMARK                            x       y       z     vdW  Elec       q    Type
REMARK                         _______ _______ _______ _____ _____    ______ ____
ROOT
ATOM      1  C   UNL     1       6.032   5.277  18.449  0.00  0.00    +0.000 A 
ATOM      2  N   UNL     1       5.974   4.074  19.111  0.00  0.00    +0.000 N 
ATOM      3  C   UNL     1       4.681   3.675  19.283  0.00  0.00    +0.000 A 
ATOM      4  C   UNL     1       4.368   2.356  19.901  0.00  0.00    +0.000 C 
ATOM      5  C   UNL     1       3.844   4.666  18.781  0.00  0.00    +0.000 A 
ATOM      6  C   UNL     1       4.714   5.697  18.254  0.00  0.00    +0.000 A 
ATOM      7  C   UNL     1       4.333   6.994  17.619  0.00  0.00    +0.000 C 
ATOM      8  H   UNL     1       6.793   3.551  19.395  0.00  0.00    +0.000 HD
ENDROOT
BRANCH   5   9
ATOM      9  C   UNL     1       2.374   4.555  18.844  0.00  0.00    +0.000 C 
ATOM     10  C   UNL     1       1.611   3.758  17.822  0.00  0.00    +0.000 C 
ATOM     11  O   UNL     1       1.740   5.082  19.763  0.00  0.00    +0.000 OA
ENDBRANCH   5   9
BRANCH   1  12
ATOM     12  C   UNL     1       7.289   5.891  18.062  0.00  0.00    +0.000 C 
ATOM     13  O   UNL     1       8.107   6.415  18.805  0.00  0.00    +0.000 OA
BRANCH  12  14
ATOM     14  O   UNL     1       7.400   5.842  16.704  0.00  0.00    +0.000 OA
BRANCH  14  15
ATOM     15  C   UNL     1       7.146   4.579  16.093  0.00  0.00    +0.000 C 
BRANCH  15  18
ATOM     16  C   UNL     1       6.235   3.491  12.567  0.00  0.00    +0.000 C 
ATOM     17  N   UNL     1       6.280   3.650  13.999  0.00  0.00    +0.000 N 
ATOM     18  C   UNL     1       7.081   4.617  14.568  0.00  0.00    +0.000 C 
ATOM     19  O   UNL     1       7.730   5.427  13.908  0.00  0.00    +0.000 OA
ATOM     20  H   UNL     1       5.879   2.931  14.592  0.00  0.00    +0.000 HD
ENDBRANCH  15  18
ENDBRANCH  14  15
ENDBRANCH  12  14
ENDBRANCH   1  12
TORSDOF 5
ENDMDL
MODEL 4
REMARK VINA RESULT:      -7.0      1.663      2.473
REMARK  Name = 
REMARK  9 active torsions:
REMARK  status: ('A' for Active; 'I' for Inactive)
REMARK    1  A    between atoms: C_1  and  N_2
REMARK    2  A    between atoms: C_3  and  C_5
REMARK    3  A    between atoms: C_5  and  O_6
REMARK    4  A    between atoms: O_6  and  C_7
REMARK    5  A    between atoms: C_7  and  C_9
REMARK    6  A    between atoms: C_11  and  C_12
REMARK    7  A    between atoms: C_13  and  C_14
REMARK    8  A    between atoms: C_14  and  C_15
REMARK    9  A    between atoms: C_17  and  C_18
REMARK                            x       y       z     vdW  Elec       q    Type
REMARK                         _______ _______ _______ _____ _____    ______ ____
ROOT
ATOM      1  C   UNL     1       4.576   4.887  19.430  0.00  0.00    +0.000 A 
ATOM      2  N   UNL     1       3.696   5.881  19.786  0.00  0.00    +0.000 N 
ATOM      3  C   UNL     1       2.498   5.355  20.172  0.00  0.00    +0.000 A 
ATOM      4  C   UNL     1       1.410   6.236  20.684  0.00  0.00    +0.000 C 
ATOM      5  C   UNL     1       2.550   3.974  20.012  0.00  0.00    +0.000 A 
ATOM      6  C   UNL     1       3.883   3.677  19.528  0.00  0.00    +0.000 A 
ATOM      7  C   UNL     1       4.463   2.348  19.171  0.00  0.00    +0.000 C 
ATOM      8  H   UNL     1       3.933   6.865  19.787  0.00  0.00    +0.000 HD
ENDROOT
BRANCH   5   9
ATOM      9  C   UNL     1       1.396   3.107  20.312  0.00  0.00    +0.000 C 
ATOM     10  C   UNL     1       0.543   2.540  19.211  0.00  0.00    +0.000 C 
ATOM     11  O   UNL     1       1.127   2.794  21.477  0.00  0.00    +0.000 OA
ENDBRANCH   5   9
BRANCH   1  12
ATOM     12  C   UNL     1       5.951   5.163  19.059  0.00  0.00    +0.000 C 
ATOM     13  O   UNL     1       6.902   5.292  19.818  0.00  0.00    +0.000 OA
BRANCH  12  14
ATOM     14  O   UNL     1       6.018   5.316  17.706  0.00  0.00    +0.000 OA
BRANCH  14  15
ATOM     15  C   UNL     1       7.084   4.636  17.046  0.00  0.00    +0.000 C 
BRANCH  15  18
ATOM     16  C   UNL     1       6.074   3.768  13.486  0.00  0.00    +0.000 C 
ATOM     17  N   UNL     1       6.126   3.882  14.922  0.00  0.00    +0.000 N 
ATOM     18  C   UNL     1       7.039   4.723  15.522  0.00  0.00    +0.000 C 
ATOM     19  O   UNL     1       7.793   5.459  14.888  0.00  0.00    +0.000 OA
ATOM     20  H   UNL     1       5.629   3.205  15.493  0.00  0.00    +0.000 HD
ENDBRANCH  15  18
ENDBRANCH  14  15
ENDBRANCH  12  14
ENDBRANCH   1  12
TORSDOF 5
ENDMDL
MODEL 5
REMARK VINA RESULT:      -6.9      1.635      2.083
REMARK  Name = 
REMARK  9 active torsions:
REMARK  status: ('A' for Active; 'I' for Inactive)
REMARK    1  A    between atoms: C_1  and  N_2
REMARK    2  A    between atoms: C_3  and  C_5
REMARK    3  A    between atoms: C_5  and  O_6
REMARK    4  A    between atoms: O_6  and  C_7
REMARK    5  A    between atoms: C_7  and  C_9
REMARK    6  A    between atoms: C_11  and  C_12
REMARK    7  A    between atoms: C_13  and  C_14
REMARK    8  A    between atoms: C_14  and  C_15
REMARK    9  A    between atoms: C_17  and  C_18
REMARK                            x       y       z     vdW  Elec       q    Type
REMARK                         _______ _______ _______ _____ _____    ______ ____
ROOT
ATOM      1  C   UNL     1       5.905   4.939  18.138  0.00  0.00    +0.000 A 
ATOM      2  N   UNL     1       5.875   3.792  18.895  0.00  0.00    +0.000 N 
ATOM      3  C   UNL     1       4.607   3.518  19.315  0.00  0.00    +0.000 A 
ATOM      4  C   UNL     1       4.310   2.275  20.082  0.00  0.00    +0.000 C 
ATOM      5  C   UNL     1       3.769   4.542  18.883  0.00  0.00    +0.000 A 
ATOM      6  C   UNL     1       4.607   5.456  18.134  0.00  0.00    +0.000 A 
ATOM      7  C   UNL     1       4.217   6.736  17.470  0.00  0.00    +0.000 C 
ATOM      8  H   UNL     1       6.691   3.221  19.079  0.00  0.00    +0.000 HD
ENDROOT
BRANCH   5   9
ATOM      9  C   UNL     1       2.329   4.562  19.202  0.00  0.00    +0.000 C 
ATOM     10  C   UNL     1       1.821   5.220  20.456  0.00  0.00    +0.000 C 
ATOM     11  O   UNL     1       1.503   4.073  18.425  0.00  0.00    +0.000 OA
ENDBRANCH   5   9
BRANCH   1  12
ATOM     12  C   UNL     1       7.116   5.414  17.496  0.00  0.00    +0.000 C 
ATOM     13  O   UNL     1       7.710   6.457  17.734  0.00  0.00    +0.000 OA
BRANCH  12  14
ATOM     14  O   UNL     1       7.474   4.528  16.524  0.00  0.00    +0.000 OA
BRANCH  14  15
ATOM     15  C   UNL     1       7.316   4.970  15.177  0.00  0.00    +0.000 C 
BRANCH  15  18
ATOM     16  C   UNL     1       5.617   3.173  12.290  0.00  0.00    +0.000 C 
ATOM     17  N   UNL     1       6.594   3.753  13.177  0.00  0.00    +0.000 N 
ATOM     18  C   UNL     1       6.211   4.253  14.404  0.00  0.00    +0.000 C 
ATOM     19  O   UNL     1       5.061   4.172  14.834  0.00  0.00    +0.000 OA
ATOM     20  H   UNL     1       7.520   3.971  12.824  0.00  0.00    +0.000 HD
ENDBRANCH  15  18
ENDBRANCH  14  15
ENDBRANCH  12  14
ENDBRANCH   1  12
TORSDOF 5
ENDMDL
MODEL 6
REMARK VINA RESULT:      -6.8      1.839      2.101
REMARK  Name = 
REMARK  9 active torsions:
REMARK  status: ('A' for Active; 'I' for Inactive)
REMARK    1  A    between atoms: C_1  and  N_2
REMARK    2  A    between atoms: C_3  and  C_5
REMARK    3  A    between atoms: C_5  and  O_6
REMARK    4  A    between atoms: O_6  and  C_7
REMARK    5  A    between atoms: C_7  and  C_9
REMARK    6  A    between atoms: C_11  and  C_12
REMARK    7  A    between atoms: C_13  and  C_14
REMARK    8  A    between atoms: C_14  and  C_15
REMARK    9  A    between atoms: C_17  and  C_18
REMARK                            x       y       z     vdW  Elec       q    Type
REMARK                         _______ _______ _______ _____ _____    ______ ____
ROOT
ATOM      1  C   UNL     1       4.980   4.799  18.596  0.00  0.00    +0.000 A 
ATOM      2  N   UNL     1       5.396   3.579  19.071  0.00  0.00    +0.000 N 
ATOM      3  C   UNL     1       4.439   3.012  19.861  0.00  0.00    +0.000 A 
ATOM      4  C   UNL     1       4.629   1.645  20.424  0.00  0.00    +0.000 C 
ATOM      5  C   UNL     1       3.376   3.903  19.974  0.00  0.00    +0.000 A 
ATOM      6  C   UNL     1       3.729   5.052  19.167  0.00  0.00    +0.000 A 
ATOM      7  C   UNL     1       2.950   6.309  18.955  0.00  0.00    +0.000 C 
ATOM      8  H   UNL     1       6.284   3.157  18.829  0.00  0.00    +0.000 HD
ENDROOT
BRANCH   5   9
ATOM      9  C   UNL     1       2.187   3.602  20.793  0.00  0.00    +0.000 C 
ATOM     10  C   UNL     1       0.850   3.343  20.155  0.00  0.00    +0.000 C 
ATOM     11  O   UNL     1       2.272   3.517  22.022  0.00  0.00    +0.000 OA
ENDBRANCH   5   9
BRANCH   1  12
ATOM     12  C   UNL     1       5.771   5.580  17.663  0.00  0.00    +0.000 C 
ATOM     13  O   UNL     1       6.666   6.366  17.942  0.00  0.00    +0.000 OA
BRANCH  12  14
ATOM     14  O   UNL     1       5.320   5.342  16.399  0.00  0.00    +0.000 OA
BRANCH  14  15
ATOM     15  C   UNL     1       5.814   4.164  15.763  0.00  0.00    +0.000 C 
BRANCH  15  18
ATOM     16  C   UNL     1       6.905   3.667  12.156  0.00  0.00    +0.000 C 
ATOM     17  N   UNL     1       6.185   3.620  13.404  0.00  0.00    +0.000 N 
ATOM     18  C   UNL     1       6.567   4.421  14.459  0.00  0.00    +0.000 C 
ATOM     19  O   UNL     1       7.471   5.252  14.381  0.00  0.00    +0.000 OA
ATOM     20  H   UNL     1       5.527   2.865  13.571  0.00  0.00    +0.000 HD
ENDBRANCH  15  18
ENDBRANCH  14  15
ENDBRANCH  12  14
ENDBRANCH   1  12
TORSDOF 5
ENDMDL
MODEL 7
REMARK VINA RESULT:      -6.7      1.474      2.112
REMARK  Name = 
REMARK  9 active torsions:
REMARK  status: ('A' for Active; 'I' for Inactive)
REMARK    1  A    between atoms: C_1  and  N_2
REMARK    2  A    between atoms: C_3  and  C_5
REMARK    3  A    between atoms: C_5  and  O_6
REMARK    4  A    between atoms: O_6  and  C_7
REMARK    5  A    between atoms: C_7  and  C_9
REMARK    6  A    between atoms: C_11  and  C_12
REMARK    7  A    between atoms: C_13  and  C_14
REMARK    8  A    between atoms: C_14  and  C_15
REMARK    9  A    between atoms: C_17  and  C_18
REMARK                            x       y       z     vdW  Elec       q    Type
REMARK                         _______ _______ _______ _____ _____    ______ ____
ROOT
ATOM      1  C   UNL     1       4.807   5.186  18.925  0.00  0.00    +0.000 A 
ATOM      2  N   UNL     1       3.950   5.746  19.842  0.00  0.00    +0.000 N 
ATOM      3  C   UNL     1       2.691   5.241  19.703  0.00  0.00    +0.000 A 
ATOM      4  C   UNL     1       1.605   5.636  20.643  0.00  0.00    +0.000 C 
ATOM      5  C   UNL     1       2.684   4.365  18.622  0.00  0.00    +0.000 A 
ATOM      6  C   UNL     1       4.042   4.337  18.120  0.00  0.00    +0.000 A 
ATOM      7  C   UNL     1       4.583   3.574  16.955  0.00  0.00    +0.000 C 
ATOM      8  H   UNL     1       4.240   6.418  20.542  0.00  0.00    +0.000 HD
ENDROOT
BRANCH   5   9
ATOM      9  C   UNL     1       1.458   3.672  18.184  0.00  0.00    +0.000 C 
ATOM     10  C   UNL     1       0.959   2.448  18.903  0.00  0.00    +0.000 C 
ATOM     11  O   UNL     1       0.789   4.106  17.241  0.00  0.00    +0.000 OA
ENDBRANCH   5   9
BRANCH   1  12
ATOM     12  C   UNL     1       6.227   5.483  18.907  0.00  0.00    +0.000 C 
ATOM     13  O   UNL     1       7.122   4.810  19.400  0.00  0.00    +0.000 OA
BRANCH  12  14
ATOM     14  O   UNL     1       6.417   6.683  18.288  0.00  0.00    +0.000 OA
BRANCH  14  15
ATOM     15  C   UNL     1       7.280   6.680  17.153  0.00  0.00    +0.000 C 
BRANCH  15  18
ATOM     16  C   UNL     1       6.951   4.664  13.948  0.00  0.00    +0.000 C 
ATOM     17  N   UNL     1       7.375   5.164  15.231  0.00  0.00    +0.000 N 
ATOM     18  C   UNL     1       6.641   6.137  15.877  0.00  0.00    +0.000 C 
ATOM     19  O   UNL     1       5.575   6.573  15.445  0.00  0.00    +0.000 OA
ATOM     20  H   UNL     1       8.307   4.946  15.567  0.00  0.00    +0.000 HD
ENDBRANCH  15  18
ENDBRANCH  14  15
ENDBRANCH  12  14
ENDBRANCH   1  12
TORSDOF 5
ENDMDL
MODEL 8
REMARK VINA RESULT:      -6.6      1.621      1.999
REMARK  Name = 
REMARK  9 active torsions:
REMARK  status: ('A' for Active; 'I' for Inactive)
REMARK    1  A    between atoms: C_1  and  N_2
REMARK    2  A    between atoms: C_3  and  C_5
REMARK    3  A    between atoms: C_5  and  O_6
REMARK    4  A    between atoms: O_6  and  C_7
REMARK    5  A    between atoms: C_7  and  C_9
REMARK    6  A    between atoms: C_11  and  C_12
REMARK    7  A    between atoms: C_13  and  C_14
REMARK    8  A    between atoms: C_14  and  C_15
REMARK    9  A    between atoms: C_17  and  C_18
REMARK                            x       y       z     vdW  Elec       q    Type
REMARK                         _______ _______ _______ _____ _____    ______ ____
ROOT
ATOM      1  C   UNL     1       5.920   5.103  18.309  0.00  0.00    +0.000 A 
ATOM      2  N   UNL     1       5.880   3.948  19.052  0.00  0.00    +0.000 N 
ATOM      3  C   UNL     1       4.595   3.613  19.364  0.00  0.00    +0.000 A 
ATOM      4  C   UNL     1       4.294   2.350  20.094  0.00  0.00    +0.000 C 
ATOM      5  C   UNL     1       3.751   4.604  18.873  0.00  0.00    +0.000 A 
ATOM      6  C   UNL     1       4.604   5.563  18.203  0.00  0.00    +0.000 A 
ATOM      7  C   UNL     1       4.213   6.832  17.519  0.00  0.00    +0.000 C 
ATOM      8  H   UNL     1       6.703   3.411  19.297  0.00  0.00    +0.000 HD
ENDROOT
BRANCH   5   9
ATOM      9  C   UNL     1       2.290   4.557  19.074  0.00  0.00    +0.000 C 
ATOM     10  C   UNL     1       1.671   4.989  20.375  0.00  0.00    +0.000 C 
ATOM     11  O   UNL     1       1.538   4.199  18.162  0.00  0.00    +0.000 OA
ENDBRANCH   5   9
BRANCH   1  12
ATOM     12  C   UNL     1       7.156   5.639  17.772  0.00  0.00    +0.000 C 
ATOM     13  O   UNL     1       7.709   6.679  18.103  0.00  0.00    +0.000 OA
BRANCH  12  14
ATOM     14  O   UNL     1       7.596   4.816  16.777  0.00  0.00    +0.000 OA
BRANCH  14  15
ATOM     15  C   UNL     1       6.593   4.252  15.934  0.00  0.00    +0.000 C 
BRANCH  15  18
ATOM     16  C   UNL     1       8.128   5.706  12.775  0.00  0.00    +0.000 C 
ATOM     17  N   UNL     1       7.880   5.310  14.139  0.00  0.00    +0.000 N 
ATOM     18  C   UNL     1       6.829   4.471  14.441  0.00  0.00    +0.000 C 
ATOM     19  O   UNL     1       6.104   3.965  13.585  0.00  0.00    +0.000 OA
ATOM     20  H   UNL     1       8.353   5.799  14.892  0.00  0.00    +0.000 HD
ENDBRANCH  15  18
ENDBRANCH  14  15
ENDBRANCH  12  14
ENDBRANCH   1  12
TORSDOF 5
ENDMDL
MODEL 9
REMARK VINA RESULT:      -6.6      1.172      1.524
REMARK  Name = 
REMARK  9 active torsions:
REMARK  status: ('A' for Active; 'I' for Inactive)
REMARK    1  A    between atoms: C_1  and  N_2
REMARK    2  A    between atoms: C_3  and  C_5
REMARK    3  A    between atoms: C_5  and  O_6
REMARK    4  A    between atoms: O_6  and  C_7
REMARK    5  A    between atoms: C_7  and  C_9
REMARK    6  A    between atoms: C_11  and  C_12
REMARK    7  A    between atoms: C_13  and  C_14
REMARK    8  A    between atoms: C_14  and  C_15
REMARK    9  A    between atoms: C_17  and  C_18
REMARK                            x       y       z     vdW  Elec       q    Type
REMARK                         _______ _______ _______ _____ _____    ______ ____
ROOT
ATOM      1  C   UNL     1       4.170   5.110  18.223  0.00  0.00    +0.000 A 
ATOM      2  N   UNL     1       4.475   3.799  17.942  0.00  0.00    +0.000 N 
ATOM      3  C   UNL     1       3.579   2.954  18.529  0.00  0.00    +0.000 A 
ATOM      4  C   UNL     1       3.654   1.485  18.297  0.00  0.00    +0.000 C 
ATOM      5  C   UNL     1       2.685   3.713  19.279  0.00  0.00    +0.000 A 
ATOM      6  C   UNL     1       3.071   5.095  19.086  0.00  0.00    +0.000 A 
ATOM      7  C   UNL     1       2.457   6.319  19.682  0.00  0.00    +0.000 C 
ATOM      8  H   UNL     1       5.245   3.518  17.349  0.00  0.00    +0.000 HD
ENDROOT
BRANCH   5   9
ATOM      9  C   UNL     1       1.604   3.093  20.069  0.00  0.00    +0.000 C 
ATOM     10  C   UNL     1       1.749   2.881  21.551  0.00  0.00    +0.000 C 
ATOM     11  O   UNL     1       0.538   2.770  19.536  0.00  0.00    +0.000 OA
ENDBRANCH   5   9
BRANCH   1  12
ATOM     12  C   UNL     1       4.913   6.219  17.654  0.00  0.00    +0.000 C 
ATOM     13  O   UNL     1       4.565   6.932  16.723  0.00  0.00    +0.000 OA
BRANCH  12  14
ATOM     14  O   UNL     1       6.112   6.318  18.294  0.00  0.00    +0.000 OA
BRANCH  14  15
ATOM     15  C   UNL     1       7.267   6.413  17.461  0.00  0.00    +0.000 C 
BRANCH  15  18
ATOM     16  C   UNL     1       7.053   4.645  14.104  0.00  0.00    +0.000 C 
ATOM     17  N   UNL     1       7.095   5.643  15.143  0.00  0.00    +0.000 N 
ATOM     18  C   UNL     1       7.401   5.287  16.439  0.00  0.00    +0.000 C 
ATOM     19  O   UNL     1       7.719   4.144  16.766  0.00  0.00    +0.000 OA
ATOM     20  H   UNL     1       6.712   6.566  14.963  0.00  0.00    +0.000 HD
ENDBRANCH  15  18
ENDBRANCH  14  15
ENDBRANCH  12  14
ENDBRANCH   1  12
TORSDOF 5
ENDMDL
