MODEL 1
REMARK VINA RESULT:      -7.2      0.000      0.000
REMARK  Name = 
REMARK  13 active torsions:
REMARK  status: ('A' for Active; 'I' for Inactive)
REMARK    1  A    between atoms: C_1  and  O_2
REMARK    2  A    between atoms: O_2  and  C_3
REMARK    3  A    between atoms: C_6  and  C_7
REMARK    4  A    between atoms: C_7  and  N_8
REMARK    5  A    between atoms: N_8  and  C_9
REMARK    6  A    between atoms: C_10  and  S_11
REMARK    7  A    between atoms: N_12  and  C_13
REMARK    8  A    between atoms: C_13  and  C_14
REMARK    9  A    between atoms: C_14  and  C_15
REMARK   10  A    between atoms: C_21  and  O_22
REMARK   11  A    between atoms: O_22  and  C_23
REMARK   12  A    between atoms: C_24  and  O_25
REMARK   13  A    between atoms: O_25  and  C_26
REMARK                            x       y       z     vdW  Elec       q    Type
REMARK                         _______ _______ _______ _____ _____    ______ ____
ROOT
ATOM      1  N   UNL     1       6.085   5.587  16.804  0.00  0.00    +0.000 N 
ATOM      2  C   UNL     1       5.842   6.151  15.471  0.00  0.00    +0.000 C 
ATOM      3  C   UNL     1       6.914   6.320  17.648  0.00  0.00    +0.000 C 
ATOM      4  N   UNL     1       7.354   7.473  17.260  0.00  0.00    +0.000 NA
ENDROOT
BRANCH   3   5
ATOM      5  S   UNL     1       7.407   5.629  19.191  0.00  0.00    +0.000 S 
ATOM      6  H   UNL     1       7.269   4.342  18.860  0.00  0.00    +0.000 HD
ENDBRANCH   3   5
BRANCH   1   7
ATOM      7  C   UNL     1       5.074   4.605  17.235  0.00  0.00    +0.000 C 
BRANCH   7  11
ATOM      8  C   UNL     1       2.155   6.068  20.119  0.00  0.00    +0.000 A 
ATOM      9  C   UNL     1       2.569   6.861  19.047  0.00  0.00    +0.000 A 
ATOM     10  C   UNL     1       3.528   6.398  18.153  0.00  0.00    +0.000 A 
ATOM     11  C   UNL     1       4.122   5.138  18.309  0.00  0.00    +0.000 A 
ATOM     12  C   UNL     1       3.752   4.352  19.436  0.00  0.00    +0.000 A 
ATOM     13  C   UNL     1       2.779   4.830  20.362  0.00  0.00    +0.000 A 
BRANCH   8  15
ATOM     14  C   UNL     1       1.067   7.886  21.177  0.00  0.00    +0.000 C 
ATOM     15  O   UNL     1       1.139   6.480  20.946  0.00  0.00    +0.000 OA
ENDBRANCH   8  15
BRANCH  12  16
ATOM     16  O   UNL     1       4.374   3.123  19.491  0.00  0.00    +0.000 OA
ATOM     17  C   UNL     1       3.706   1.998  18.924  0.00  0.00    +0.000 C 
ENDBRANCH  12  16
BRANCH  13  18
ATOM     18  O   UNL     1       2.411   3.990  21.387  0.00  0.00    +0.000 OA
ATOM     19  C   UNL     1       1.316   3.101  21.189  0.00  0.00    +0.000 C 
ENDBRANCH  13  18
ENDBRANCH   7  11
ENDBRANCH   1   7
BRANCH   4  20
ATOM     20  C   UNL     1       8.291   8.285  18.016  0.00  0.00    +0.000 C 
BRANCH  20  21
ATOM     21  C   UNL     1       8.079   9.749  17.607  0.00  0.00    +0.000 C 
BRANCH  21  22
ATOM     22  C   UNL     1       8.992  10.674  18.372  0.00  0.00    +0.000 A 
ATOM     23  C   UNL     1       9.387  10.354  19.677  0.00  0.00    +0.000 A 
ATOM     24  C   UNL     1      10.174  11.246  20.413  0.00  0.00    +0.000 A 
ATOM     25  C   UNL     1      10.567  12.455  19.851  0.00  0.00    +0.000 A 
ATOM     26  C   UNL     1      10.189  12.774  18.549  0.00  0.00    +0.000 A 
ATOM     27  C   UNL     1       9.404  11.886  17.808  0.00  0.00    +0.000 A 
ENDBRANCH  21  22
ENDBRANCH  20  21
ENDBRANCH   4  20
TORSDOF 9
ENDMDL
MODEL 2
REMARK VINA RESULT:      -6.5      4.294      6.727
REMARK  Name = 
REMARK  13 active torsions:
REMARK  status: ('A' for Active; 'I' for Inactive)
REMARK    1  A    between atoms: C_1  and  O_2
REMARK    2  A    between atoms: O_2  and  C_3
REMARK    3  A    between atoms: C_6  and  C_7
REMARK    4  A    between atoms: C_7  and  N_8
REMARK    5  A    between atoms: N_8  and  C_9
REMARK    6  A    between atoms: C_10  and  S_11
REMARK    7  A    between atoms: N_12  and  C_13
REMARK    8  A    between atoms: C_13  and  C_14
REMARK    9  A    between atoms: C_14  and  C_15
REMARK   10  A    between atoms: C_21  and  O_22
REMARK   11  A    between atoms: O_22  and  C_23
REMARK   12  A    between atoms: C_24  and  O_25
REMARK   13  A    between atoms: O_25  and  C_26
REMARK                            x       y       z     vdW  Elec       q    Type
REMARK                         _______ _______ _______ _____ _____    ______ ____
ROOT
ATOM      1  N   UNL     1       4.687   3.918  17.710  0.00  0.00    +0.000 N 
ATOM      2  C   UNL     1       3.526   3.405  16.971  0.00  0.00    +0.000 C 
ATOM      3  C   UNL     1       5.805   4.256  16.954  0.00  0.00    +0.000 C 
ATOM      4  N   UNL     1       5.745   4.185  15.664  0.00  0.00    +0.000 NA
ENDROOT
BRANCH   3   5
ATOM      5  S   UNL     1       7.300   4.702  17.773  0.00  0.00    +0.000 S 
ATOM      6  H   UNL     1       8.002   5.036  16.687  0.00  0.00    +0.000 HD
ENDBRANCH   3   5
BRANCH   1   7
ATOM      7  C   UNL     1       4.362   4.444  19.048  0.00  0.00    +0.000 C 
BRANCH   7  11
ATOM      8  C   UNL     1       2.119   8.168  18.759  0.00  0.00    +0.000 A 
ATOM      9  C   UNL     1       3.095   7.839  17.816  0.00  0.00    +0.000 A 
ATOM     10  C   UNL     1       3.831   6.666  17.938  0.00  0.00    +0.000 A 
ATOM     11  C   UNL     1       3.633   5.790  19.015  0.00  0.00    +0.000 A 
ATOM     12  C   UNL     1       2.687   6.152  20.014  0.00  0.00    +0.000 A 
ATOM     13  C   UNL     1       1.941   7.362  19.899  0.00  0.00    +0.000 A 
BRANCH   8  15
ATOM     14  C   UNL     1       1.946  10.386  17.948  0.00  0.00    +0.000 C 
ATOM     15  O   UNL     1       1.325   9.274  18.590  0.00  0.00    +0.000 OA
ENDBRANCH   8  15
BRANCH  12  16
ATOM     16  O   UNL     1       2.549   5.219  21.020  0.00  0.00    +0.000 OA
ATOM     17  C   UNL     1       1.505   4.252  20.912  0.00  0.00    +0.000 C 
ENDBRANCH  12  16
BRANCH  13  18
ATOM     18  O   UNL     1       0.988   7.614  20.857  0.00  0.00    +0.000 OA
ATOM     19  C   UNL     1       1.221   8.654  21.803  0.00  0.00    +0.000 C 
ENDBRANCH  13  18
ENDBRANCH   7  11
ENDBRANCH   1   7
BRANCH   4  20
ATOM     20  C   UNL     1       6.870   4.429  14.780  0.00  0.00    +0.000 C 
BRANCH  20  21
ATOM     21  C   UNL     1       6.310   4.825  13.407  0.00  0.00    +0.000 C 
BRANCH  21  22
ATOM     22  C   UNL     1       6.315   3.659  12.450  0.00  0.00    +0.000 A 
ATOM     23  C   UNL     1       5.112   3.035  12.095  0.00  0.00    +0.000 A 
ATOM     24  C   UNL     1       5.121   1.908  11.265  0.00  0.00    +0.000 A 
ATOM     25  C   UNL     1       6.327   1.403  10.792  0.00  0.00    +0.000 A 
ATOM     26  C   UNL     1       7.525   2.026  11.131  0.00  0.00    +0.000 A 
ATOM     27  C   UNL     1       7.522   3.153  11.957  0.00  0.00    +0.000 A 
ENDBRANCH  21  22
ENDBRANCH  20  21
ENDBRANCH   4  20
TORSDOF 9
ENDMDL
MODEL 3
REMARK VINA RESULT:      -6.3      6.107      9.148
REMARK  Name = 
REMARK  13 active torsions:
REMARK  status: ('A' for Active; 'I' for Inactive)
REMARK    1  A    between atoms: C_1  and  O_2
REMARK    2  A    between atoms: O_2  and  C_3
REMARK    3  A    between atoms: C_6  and  C_7
REMARK    4  A    between atoms: C_7  and  N_8
REMARK    5  A    between atoms: N_8  and  C_9
REMARK    6  A    between atoms: C_10  and  S_11
REMARK    7  A    between atoms: N_12  and  C_13
REMARK    8  A    between atoms: C_13  and  C_14
REMARK    9  A    between atoms: C_14  and  C_15
REMARK   10  A    between atoms: C_21  and  O_22
REMARK   11  A    between atoms: O_22  and  C_23
REMARK   12  A    between atoms: C_24  and  O_25
REMARK   13  A    between atoms: O_25  and  C_26
REMARK                            x       y       z     vdW  Elec       q    Type
REMARK                         _______ _______ _______ _____ _____    ______ ____
ROOT
ATOM      1  N   UNL     1       1.249   9.246  19.027  0.00  0.00    +0.000 N 
ATOM      2  C   UNL     1       1.950   8.970  17.767  0.00  0.00    +0.000 C 
ATOM      3  C   UNL     1       1.361   8.282  20.025  0.00  0.00    +0.000 C 
ATOM      4  N   UNL     1       2.124   7.256  19.833  0.00  0.00    +0.000 NA
ENDROOT
BRANCH   3   5
ATOM      5  S   UNL     1       0.405   8.444  21.495  0.00  0.00    +0.000 S 
ATOM      6  H   UNL     1      -0.648   7.724  21.100  0.00  0.00    +0.000 HD
ENDBRANCH   3   5
BRANCH   1   7
ATOM      7  C   UNL     1       0.932  10.670  19.240  0.00  0.00    +0.000 C 
BRANCH   7  11
ATOM      8  C   UNL     1      -3.306  11.434  18.581  0.00  0.00    +0.000 A 
ATOM      9  C   UNL     1      -2.613  10.500  17.810  0.00  0.00    +0.000 A 
ATOM     10  C   UNL     1      -1.253  10.290  18.003  0.00  0.00    +0.000 A 
ATOM     11  C   UNL     1      -0.531  11.019  18.959  0.00  0.00    +0.000 A 
ATOM     12  C   UNL     1      -1.218  12.018  19.704  0.00  0.00    +0.000 A 
ATOM     13  C   UNL     1      -2.610  12.246  19.497  0.00  0.00    +0.000 A 
BRANCH   8  15
ATOM     14  C   UNL     1      -5.129  12.008  17.184  0.00  0.00    +0.000 C 
ATOM     15  O   UNL     1      -4.666  11.574  18.461  0.00  0.00    +0.000 OA
ENDBRANCH   8  15
BRANCH  12  16
ATOM     16  O   UNL     1      -0.430  12.666  20.632  0.00  0.00    +0.000 OA
ATOM     17  C   UNL     1       0.050  13.973  20.322  0.00  0.00    +0.000 C 
ENDBRANCH  12  16
BRANCH  13  18
ATOM     18  O   UNL     1      -3.228  13.172  20.303  0.00  0.00    +0.000 OA
ATOM     19  C   UNL     1      -3.737  12.757  21.567  0.00  0.00    +0.000 C 
ENDBRANCH  13  18
ENDBRANCH   7  11
ENDBRANCH   1   7
BRANCH   4  20
ATOM     20  C   UNL     1       2.252   6.148  20.763  0.00  0.00    +0.000 C 
BRANCH  20  21
ATOM     21  C   UNL     1       1.344   5.014  20.270  0.00  0.00    +0.000 C 
BRANCH  21  22
ATOM     22  C   UNL     1       2.130   3.954  19.539  0.00  0.00    +0.000 A 
ATOM     23  C   UNL     1       1.662   3.446  18.321  0.00  0.00    +0.000 A 
ATOM     24  C   UNL     1       2.352   2.412  17.678  0.00  0.00    +0.000 A 
ATOM     25  C   UNL     1       3.505   1.885  18.248  0.00  0.00    +0.000 A 
ATOM     26  C   UNL     1       3.983   2.395  19.452  0.00  0.00    +0.000 A 
ATOM     27  C   UNL     1       3.299   3.429  20.098  0.00  0.00    +0.000 A 
ENDBRANCH  21  22
ENDBRANCH  20  21
ENDBRANCH   4  20
TORSDOF 9
ENDMDL
MODEL 4
REMARK VINA RESULT:      -6.3      4.699      8.143
REMARK  Name = 
REMARK  13 active torsions:
REMARK  status: ('A' for Active; 'I' for Inactive)
REMARK    1  A    between atoms: C_1  and  O_2
REMARK    2  A    between atoms: O_2  and  C_3
REMARK    3  A    between atoms: C_6  and  C_7
REMARK    4  A    between atoms: C_7  and  N_8
REMARK    5  A    between atoms: N_8  and  C_9
REMARK    6  A    between atoms: C_10  and  S_11
REMARK    7  A    between atoms: N_12  and  C_13
REMARK    8  A    between atoms: C_13  and  C_14
REMARK    9  A    between atoms: C_14  and  C_15
REMARK   10  A    between atoms: C_21  and  O_22
REMARK   11  A    between atoms: O_22  and  C_23
REMARK   12  A    between atoms: C_24  and  O_25
REMARK   13  A    between atoms: O_25  and  C_26
REMARK                            x       y       z     vdW  Elec       q    Type
REMARK                         _______ _______ _______ _____ _____    ______ ____
ROOT
ATOM      1  N   UNL     1       1.858   8.320  19.310  0.00  0.00    +0.000 N 
ATOM      2  C   UNL     1       1.913   8.474  17.851  0.00  0.00    +0.000 C 
ATOM      3  C   UNL     1       1.082   9.243  20.004  0.00  0.00    +0.000 C 
ATOM      4  N   UNL     1       0.396  10.119  19.344  0.00  0.00    +0.000 NA
ENDROOT
BRANCH   3   5
ATOM      5  S   UNL     1       1.108   9.245  21.765  0.00  0.00    +0.000 S 
ATOM      6  H   UNL     1       2.252   9.917  21.923  0.00  0.00    +0.000 HD
ENDBRANCH   3   5
BRANCH   1   7
ATOM      7  C   UNL     1       2.223   6.974  19.786  0.00  0.00    +0.000 C 
BRANCH   7  11
ATOM      8  C   UNL     1       4.465   4.511  16.976  0.00  0.00    +0.000 A 
ATOM      9  C   UNL     1       4.841   5.829  17.239  0.00  0.00    +0.000 A 
ATOM     10  C   UNL     1       4.097   6.619  18.109  0.00  0.00    +0.000 A 
ATOM     11  C   UNL     1       2.942   6.126  18.732  0.00  0.00    +0.000 A 
ATOM     12  C   UNL     1       2.517   4.805  18.419  0.00  0.00    +0.000 A 
ATOM     13  C   UNL     1       3.270   3.999  17.516  0.00  0.00    +0.000 A 
BRANCH   8  15
ATOM     14  C   UNL     1       6.323   4.349  15.518  0.00  0.00    +0.000 C 
ATOM     15  O   UNL     1       5.250   3.699  16.196  0.00  0.00    +0.000 OA
ENDBRANCH   8  15
BRANCH  12  16
ATOM     16  O   UNL     1       1.384   4.405  19.096  0.00  0.00    +0.000 OA
ATOM     17  C   UNL     1       1.539   3.765  20.361  0.00  0.00    +0.000 C 
ENDBRANCH  12  16
BRANCH  13  18
ATOM     18  O   UNL     1       2.847   2.706  17.315  0.00  0.00    +0.000 OA
ATOM     19  C   UNL     1       3.391   1.669  18.127  0.00  0.00    +0.000 C 
ENDBRANCH  13  18
ENDBRANCH   7  11
ENDBRANCH   1   7
BRANCH   4  20
ATOM     20  C   UNL     1      -0.379  11.181  19.959  0.00  0.00    +0.000 C 
BRANCH  20  21
ATOM     21  C   UNL     1      -0.820  12.144  18.849  0.00  0.00    +0.000 C 
BRANCH  21  22
ATOM     22  C   UNL     1      -2.178  11.777  18.306  0.00  0.00    +0.000 A 
ATOM     23  C   UNL     1      -3.334  12.077  19.038  0.00  0.00    +0.000 A 
ATOM     24  C   UNL     1      -4.589  11.672  18.569  0.00  0.00    +0.000 A 
ATOM     25  C   UNL     1      -4.692  10.969  17.375  0.00  0.00    +0.000 A 
ATOM     26  C   UNL     1      -3.548  10.679  16.635  0.00  0.00    +0.000 A 
ATOM     27  C   UNL     1      -2.292  11.083  17.097  0.00  0.00    +0.000 A 
ENDBRANCH  21  22
ENDBRANCH  20  21
ENDBRANCH   4  20
TORSDOF 9
ENDMDL
MODEL 5
REMARK VINA RESULT:      -6.2      3.869      6.625
REMARK  Name = 
REMARK  13 active torsions:
REMARK  status: ('A' for Active; 'I' for Inactive)
REMARK    1  A    between atoms: C_1  and  O_2
REMARK    2  A    between atoms: O_2  and  C_3
REMARK    3  A    between atoms: C_6  and  C_7
REMARK    4  A    between atoms: C_7  and  N_8
REMARK    5  A    between atoms: N_8  and  C_9
REMARK    6  A    between atoms: C_10  and  S_11
REMARK    7  A    between atoms: N_12  and  C_13
REMARK    8  A    between atoms: C_13  and  C_14
REMARK    9  A    between atoms: C_14  and  C_15
REMARK   10  A    between atoms: C_21  and  O_22
REMARK   11  A    between atoms: O_22  and  C_23
REMARK   12  A    between atoms: C_24  and  O_25
REMARK   13  A    between atoms: O_25  and  C_26
REMARK                            x       y       z     vdW  Elec       q    Type
REMARK                         _______ _______ _______ _____ _____    ______ ____
ROOT
ATOM      1  N   UNL     1       2.128   7.698  19.046  0.00  0.00    +0.000 N 
ATOM      2  C   UNL     1       2.589   8.520  17.920  0.00  0.00    +0.000 C 
ATOM      3  C   UNL     1       2.515   6.361  19.040  0.00  0.00    +0.000 C 
ATOM      4  N   UNL     1       3.309   5.935  18.112  0.00  0.00    +0.000 NA
ENDROOT
BRANCH   3   5
ATOM      5  S   UNL     1       1.855   5.264  20.249  0.00  0.00    +0.000 S 
ATOM      6  H   UNL     1       1.150   6.164  20.938  0.00  0.00    +0.000 HD
ENDBRANCH   3   5
BRANCH   1   7
ATOM      7  C   UNL     1       1.740   8.474  20.237  0.00  0.00    +0.000 C 
BRANCH   7  11
ATOM      8  C   UNL     1      -1.509  11.266  19.445  0.00  0.00    +0.000 A 
ATOM      9  C   UNL     1      -0.972  10.477  18.426  0.00  0.00    +0.000 A 
ATOM     10  C   UNL     1       0.090   9.616  18.682  0.00  0.00    +0.000 A 
ATOM     11  C   UNL     1       0.665   9.527  19.957  0.00  0.00    +0.000 A 
ATOM     12  C   UNL     1       0.164  10.375  20.984  0.00  0.00    +0.000 A 
ATOM     13  C   UNL     1      -0.915  11.270  20.721  0.00  0.00    +0.000 A 
BRANCH   8  15
ATOM     14  C   UNL     1      -3.465  11.613  18.156  0.00  0.00    +0.000 C 
ATOM     15  O   UNL     1      -2.618  12.043  19.220  0.00  0.00    +0.000 OA
ENDBRANCH   8  15
BRANCH  12  16
ATOM     16  O   UNL     1       0.779  10.201  22.205  0.00  0.00    +0.000 OA
ATOM     17  C   UNL     1       0.054   9.543  23.243  0.00  0.00    +0.000 C 
ENDBRANCH  12  16
BRANCH  13  18
ATOM     18  O   UNL     1      -1.400  12.006  21.775  0.00  0.00    +0.000 OA
ATOM     19  C   UNL     1      -0.803  13.266  22.070  0.00  0.00    +0.000 C 
ENDBRANCH  13  18
ENDBRANCH   7  11
ENDBRANCH   1   7
BRANCH   4  20
ATOM     20  C   UNL     1       3.710   4.548  17.954  0.00  0.00    +0.000 C 
BRANCH  20  21
ATOM     21  C   UNL     1       4.967   4.520  17.074  0.00  0.00    +0.000 C 
BRANCH  21  22
ATOM     22  C   UNL     1       6.050   5.412  17.627  0.00  0.00    +0.000 A 
ATOM     23  C   UNL     1       6.398   6.592  16.959  0.00  0.00    +0.000 A 
ATOM     24  C   UNL     1       7.452   7.383  17.431  0.00  0.00    +0.000 A 
ATOM     25  C   UNL     1       8.158   6.998  18.565  0.00  0.00    +0.000 A 
ATOM     26  C   UNL     1       7.808   5.832  19.241  0.00  0.00    +0.000 A 
ATOM     27  C   UNL     1       6.755   5.039  18.776  0.00  0.00    +0.000 A 
ENDBRANCH  21  22
ENDBRANCH  20  21
ENDBRANCH   4  20
TORSDOF 9
ENDMDL
MODEL 6
REMARK VINA RESULT:      -6.2      5.379      8.781
REMARK  Name = 
REMARK  13 active torsions:
REMARK  status: ('A' for Active; 'I' for Inactive)
REMARK    1  A    between atoms: C_1  and  O_2
REMARK    2  A    between atoms: O_2  and  C_3
REMARK    3  A    between atoms: C_6  and  C_7
REMARK    4  A    between atoms: C_7  and  N_8
REMARK    5  A    between atoms: N_8  and  C_9
REMARK    6  A    between atoms: C_10  and  S_11
REMARK    7  A    between atoms: N_12  and  C_13
REMARK    8  A    between atoms: C_13  and  C_14
REMARK    9  A    between atoms: C_14  and  C_15
REMARK   10  A    between atoms: C_21  and  O_22
REMARK   11  A    between atoms: O_22  and  C_23
REMARK   12  A    between atoms: C_24  and  O_25
REMARK   13  A    between atoms: O_25  and  C_26
REMARK                            x       y       z     vdW  Elec       q    Type
REMARK                         _______ _______ _______ _____ _____    ______ ____
ROOT
ATOM      1  N   UNL     1       1.560   8.847  18.939  0.00  0.00    +0.000 N 
ATOM      2  C   UNL     1       1.945   9.625  17.754  0.00  0.00    +0.000 C 
ATOM      3  C   UNL     1       2.282   7.682  19.178  0.00  0.00    +0.000 C 
ATOM      4  N   UNL     1       3.285   7.389  18.416  0.00  0.00    +0.000 NA
ENDROOT
BRANCH   3   5
ATOM      5  S   UNL     1       1.769   6.595  20.466  0.00  0.00    +0.000 S 
ATOM      6  H   UNL     1       2.880   5.857  20.527  0.00  0.00    +0.000 HD
ENDBRANCH   3   5
BRANCH   1   7
ATOM      7  C   UNL     1       0.815   9.619  19.949  0.00  0.00    +0.000 C 
BRANCH   7  11
ATOM      8  C   UNL     1      -2.878  11.400  18.476  0.00  0.00    +0.000 A 
ATOM      9  C   UNL     1      -2.293  10.312  17.826  0.00  0.00    +0.000 A 
ATOM     10  C   UNL     1      -1.095   9.775  18.283  0.00  0.00    +0.000 A 
ATOM     11  C   UNL     1      -0.428  10.316  19.392  0.00  0.00    +0.000 A 
ATOM     12  C   UNL     1      -0.986  11.465  20.019  0.00  0.00    +0.000 A 
ATOM     13  C   UNL     1      -2.207  12.027  19.544  0.00  0.00    +0.000 A 
BRANCH   8  15
ATOM     14  C   UNL     1      -4.504  11.535  16.761  0.00  0.00    +0.000 C 
ATOM     15  O   UNL     1      -4.108  11.871  18.089  0.00  0.00    +0.000 OA
ENDBRANCH   8  15
BRANCH  12  16
ATOM     16  O   UNL     1      -0.271  11.910  21.110  0.00  0.00    +0.000 OA
ATOM     17  C   UNL     1       0.584  13.041  20.947  0.00  0.00    +0.000 C 
ENDBRANCH  12  16
BRANCH  13  18
ATOM     18  O   UNL     1      -2.731  13.090  20.241  0.00  0.00    +0.000 OA
ATOM     19  C   UNL     1      -3.581  12.832  21.355  0.00  0.00    +0.000 C 
ENDBRANCH  13  18
ENDBRANCH   7  11
ENDBRANCH   1   7
BRANCH   4  20
ATOM     20  C   UNL     1       4.055   6.162  18.515  0.00  0.00    +0.000 C 
BRANCH  20  21
ATOM     21  C   UNL     1       3.649   5.256  17.346  0.00  0.00    +0.000 C 
BRANCH  21  22
ATOM     22  C   UNL     1       2.973   3.997  17.831  0.00  0.00    +0.000 A 
ATOM     23  C   UNL     1       1.586   3.970  18.018  0.00  0.00    +0.000 A 
ATOM     24  C   UNL     1       0.967   2.826  18.536  0.00  0.00    +0.000 A 
ATOM     25  C   UNL     1       1.731   1.713  18.869  0.00  0.00    +0.000 A 
ATOM     26  C   UNL     1       3.109   1.729  18.673  0.00  0.00    +0.000 A 
ATOM     27  C   UNL     1       3.732   2.867  18.154  0.00  0.00    +0.000 A 
ENDBRANCH  21  22
ENDBRANCH  20  21
ENDBRANCH   4  20
TORSDOF 9
ENDMDL
MODEL 7
REMARK VINA RESULT:      -6.2      6.247      9.541
REMARK  Name = 
REMARK  13 active torsions:
REMARK  status: ('A' for Active; 'I' for Inactive)
REMARK    1  A    between atoms: C_1  and  O_2
REMARK    2  A    between atoms: O_2  and  C_3
REMARK    3  A    between atoms: C_6  and  C_7
REMARK    4  A    between atoms: C_7  and  N_8
REMARK    5  A    between atoms: N_8  and  C_9
REMARK    6  A    between atoms: C_10  and  S_11
REMARK    7  A    between atoms: N_12  and  C_13
REMARK    8  A    between atoms: C_13  and  C_14
REMARK    9  A    between atoms: C_14  and  C_15
REMARK   10  A    between atoms: C_21  and  O_22
REMARK   11  A    between atoms: O_22  and  C_23
REMARK   12  A    between atoms: C_24  and  O_25
REMARK   13  A    between atoms: O_25  and  C_26
REMARK                            x       y       z     vdW  Elec       q    Type
REMARK                         _______ _______ _______ _____ _____    ______ ____
ROOT
ATOM      1  N   UNL     1       0.817  10.410  19.729  0.00  0.00    +0.000 N 
ATOM      2  C   UNL     1       0.899  10.588  18.274  0.00  0.00    +0.000 C 
ATOM      3  C   UNL     1       1.281   9.200  20.235  0.00  0.00    +0.000 C 
ATOM      4  N   UNL     1       1.826   8.344  19.433  0.00  0.00    +0.000 NA
ENDROOT
BRANCH   3   5
ATOM      5  S   UNL     1       1.050   8.829  21.941  0.00  0.00    +0.000 S 
ATOM      6  H   UNL     1      -0.213   8.402  21.859  0.00  0.00    +0.000 HD
ENDBRANCH   3   5
BRANCH   1   7
ATOM      7  C   UNL     1       0.708  11.671  20.484  0.00  0.00    +0.000 C 
BRANCH   7  11
ATOM      8  C   UNL     1      -3.081  12.476  22.478  0.00  0.00    +0.000 A 
ATOM      9  C   UNL     1      -2.028  11.857  23.153  0.00  0.00    +0.000 A 
ATOM     10  C   UNL     1      -0.836  11.571  22.498  0.00  0.00    +0.000 A 
ATOM     11  C   UNL     1      -0.660  11.875  21.140  0.00  0.00    +0.000 A 
ATOM     12  C   UNL     1      -1.752  12.447  20.430  0.00  0.00    +0.000 A 
ATOM     13  C   UNL     1      -2.981  12.728  21.096  0.00  0.00    +0.000 A 
BRANCH   8  15
ATOM     14  C   UNL     1      -4.279  12.474  24.520  0.00  0.00    +0.000 C 
ATOM     15  O   UNL     1      -4.221  12.848  23.145  0.00  0.00    +0.000 OA
ENDBRANCH   8  15
BRANCH  12  16
ATOM     16  O   UNL     1      -1.476  12.728  19.109  0.00  0.00    +0.000 OA
ATOM     17  C   UNL     1      -2.101  11.936  18.100  0.00  0.00    +0.000 C 
ENDBRANCH  12  16
BRANCH  13  18
ATOM     18  O   UNL     1      -3.969  13.350  20.371  0.00  0.00    +0.000 OA
ATOM     19  C   UNL     1      -5.100  12.591  19.954  0.00  0.00    +0.000 C 
ENDBRANCH  13  18
ENDBRANCH   7  11
ENDBRANCH   1   7
BRANCH   4  20
ATOM     20  C   UNL     1       2.268   7.019  19.829  0.00  0.00    +0.000 C 
BRANCH  20  21
ATOM     21  C   UNL     1       2.540   6.213  18.552  0.00  0.00    +0.000 C 
BRANCH  21  22
ATOM     22  C   UNL     1       2.171   4.761  18.726  0.00  0.00    +0.000 A 
ATOM     23  C   UNL     1       2.526   3.823  17.749  0.00  0.00    +0.000 A 
ATOM     24  C   UNL     1       2.122   2.488  17.874  0.00  0.00    +0.000 A 
ATOM     25  C   UNL     1       1.365   2.091  18.970  0.00  0.00    +0.000 A 
ATOM     26  C   UNL     1       1.020   3.015  19.951  0.00  0.00    +0.000 A 
ATOM     27  C   UNL     1       1.423   4.349  19.833  0.00  0.00    +0.000 A 
ENDBRANCH  21  22
ENDBRANCH  20  21
ENDBRANCH   4  20
TORSDOF 9
ENDMDL
MODEL 8
REMARK VINA RESULT:      -6.2      5.742      9.409
REMARK  Name = 
REMARK  13 active torsions:
REMARK  status: ('A' for Active; 'I' for Inactive)
REMARK    1  A    between atoms: C_1  and  O_2
REMARK    2  A    between atoms: O_2  and  C_3
REMARK    3  A    between atoms: C_6  and  C_7
REMARK    4  A    between atoms: C_7  and  N_8
REMARK    5  A    between atoms: N_8  and  C_9
REMARK    6  A    between atoms: C_10  and  S_11
REMARK    7  A    between atoms: N_12  and  C_13
REMARK    8  A    between atoms: C_13  and  C_14
REMARK    9  A    between atoms: C_14  and  C_15
REMARK   10  A    between atoms: C_21  and  O_22
REMARK   11  A    between atoms: O_22  and  C_23
REMARK   12  A    between atoms: C_24  and  O_25
REMARK   13  A    between atoms: O_25  and  C_26
REMARK                            x       y       z     vdW  Elec       q    Type
REMARK                         _______ _______ _______ _____ _____    ______ ____
ROOT
ATOM      1  N   UNL     1       0.910   9.390  20.501  0.00  0.00    +0.000 N 
ATOM      2  C   UNL     1       1.134   8.833  21.841  0.00  0.00    +0.000 C 
ATOM      3  C   UNL     1       1.543   8.741  19.444  0.00  0.00    +0.000 C 
ATOM      4  N   UNL     1       2.213   7.658  19.674  0.00  0.00    +0.000 NA
ENDROOT
BRANCH   3   5
ATOM      5  S   UNL     1       1.481   9.448  17.832  0.00  0.00    +0.000 S 
ATOM      6  H   UNL     1       1.333  10.722  18.205  0.00  0.00    +0.000 HD
ENDBRANCH   3   5
BRANCH   1   7
ATOM      7  C   UNL     1      -0.293  10.233  20.393  0.00  0.00    +0.000 C 
BRANCH   7  11
ATOM      8  C   UNL     1       0.284  14.546  20.605  0.00  0.00    +0.000 A 
ATOM      9  C   UNL     1       0.424  13.858  19.398  0.00  0.00    +0.000 A 
ATOM     10  C   UNL     1       0.274  12.477  19.348  0.00  0.00    +0.000 A 
ATOM     11  C   UNL     1      -0.001  11.732  20.503  0.00  0.00    +0.000 A 
ATOM     12  C   UNL     1      -0.080  12.419  21.747  0.00  0.00    +0.000 A 
ATOM     13  C   UNL     1       0.088  13.834  21.803  0.00  0.00    +0.000 A 
BRANCH   8  15
ATOM     14  C   UNL     1       1.641  16.487  20.590  0.00  0.00    +0.000 C 
ATOM     15  O   UNL     1       0.334  15.918  20.641  0.00  0.00    +0.000 OA
ENDBRANCH   8  15
BRANCH  12  16
ATOM     16  O   UNL     1      -0.374  11.605  22.820  0.00  0.00    +0.000 OA
ATOM     17  C   UNL     1      -1.742  11.423  23.180  0.00  0.00    +0.000 C 
ENDBRANCH  12  16
BRANCH  13  18
ATOM     18  O   UNL     1      -0.077  14.445  23.023  0.00  0.00    +0.000 OA
ATOM     19  C   UNL     1      -1.332  15.046  23.331  0.00  0.00    +0.000 C 
ENDBRANCH  13  18
ENDBRANCH   7  11
ENDBRANCH   1   7
BRANCH   4  20
ATOM     20  C   UNL     1       2.983   6.946  18.671  0.00  0.00    +0.000 C 
BRANCH  20  21
ATOM     21  C   UNL     1       3.634   5.734  19.351  0.00  0.00    +0.000 C 
BRANCH  21  22
ATOM     22  C   UNL     1       2.650   4.605  19.527  0.00  0.00    +0.000 A 
ATOM     23  C   UNL     1       2.073   3.992  18.408  0.00  0.00    +0.000 A 
ATOM     24  C   UNL     1       1.106   2.993  18.572  0.00  0.00    +0.000 A 
ATOM     25  C   UNL     1       0.715   2.607  19.849  0.00  0.00    +0.000 A 
ATOM     26  C   UNL     1       1.294   3.203  20.966  0.00  0.00    +0.000 A 
ATOM     27  C   UNL     1       2.262   4.199  20.808  0.00  0.00    +0.000 A 
ENDBRANCH  21  22
ENDBRANCH  20  21
ENDBRANCH   4  20
TORSDOF 9
ENDMDL
MODEL 9
REMARK VINA RESULT:      -6.2      5.798      9.474
REMARK  Name = 
REMARK  13 active torsions:
REMARK  status: ('A' for Active; 'I' for Inactive)
REMARK    1  A    between atoms: C_1  and  O_2
REMARK    2  A    between atoms: O_2  and  C_3
REMARK    3  A    between atoms: C_6  and  C_7
REMARK    4  A    between atoms: C_7  and  N_8
REMARK    5  A    between atoms: N_8  and  C_9
REMARK    6  A    between atoms: C_10  and  S_11
REMARK    7  A    between atoms: N_12  and  C_13
REMARK    8  A    between atoms: C_13  and  C_14
REMARK    9  A    between atoms: C_14  and  C_15
REMARK   10  A    between atoms: C_21  and  O_22
REMARK   11  A    between atoms: O_22  and  C_23
REMARK   12  A    between atoms: C_24  and  O_25
REMARK   13  A    between atoms: O_25  and  C_26
REMARK                            x       y       z     vdW  Elec       q    Type
REMARK                         _______ _______ _______ _____ _____    ______ ____
ROOT
ATOM      1  N   UNL     1       0.608   9.432  20.432  0.00  0.00    +0.000 N 
ATOM      2  C   UNL     1       0.699   8.848  21.776  0.00  0.00    +0.000 C 
ATOM      3  C   UNL     1       1.388   8.840  19.442  0.00  0.00    +0.000 C 
ATOM      4  N   UNL     1       2.073   7.781  19.724  0.00  0.00    +0.000 NA
ENDROOT
BRANCH   3   5
ATOM      5  S   UNL     1       1.481   9.589  17.851  0.00  0.00    +0.000 S 
ATOM      6  H   UNL     1       1.022  10.795  18.197  0.00  0.00    +0.000 HD
ENDBRANCH   3   5
BRANCH   1   7
ATOM      7  C   UNL     1      -0.611  10.228  20.204  0.00  0.00    +0.000 C 
BRANCH   7  11
ATOM      8  C   UNL     1      -0.723  13.619  22.937  0.00  0.00    +0.000 A 
ATOM      9  C   UNL     1      -1.471  12.466  23.187  0.00  0.00    +0.000 A 
ATOM     10  C   UNL     1      -1.457  11.405  22.289  0.00  0.00    +0.000 A 
ATOM     11  C   UNL     1      -0.712  11.463  21.103  0.00  0.00    +0.000 A 
ATOM     12  C   UNL     1       0.000  12.659  20.812  0.00  0.00    +0.000 A 
ATOM     13  C   UNL     1      -0.024  13.755  21.723  0.00  0.00    +0.000 A 
BRANCH   8  15
ATOM     14  C   UNL     1      -1.877  15.327  24.102  0.00  0.00    +0.000 C 
ATOM     15  O   UNL     1      -0.657  14.627  23.866  0.00  0.00    +0.000 OA
ENDBRANCH   8  15
BRANCH  12  16
ATOM     16  O   UNL     1       0.717  12.613  19.635  0.00  0.00    +0.000 OA
ATOM     17  C   UNL     1       0.140  13.188  18.464  0.00  0.00    +0.000 C 
ENDBRANCH  12  16
BRANCH  13  18
ATOM     18  O   UNL     1       0.747  14.852  21.418  0.00  0.00    +0.000 OA
ATOM     19  C   UNL     1       0.125  15.989  20.825  0.00  0.00    +0.000 C 
ENDBRANCH  13  18
ENDBRANCH   7  11
ENDBRANCH   1   7
BRANCH   4  20
ATOM     20  C   UNL     1       2.985   7.129  18.801  0.00  0.00    +0.000 C 
BRANCH  20  21
ATOM     21  C   UNL     1       3.516   5.861  19.482  0.00  0.00    +0.000 C 
BRANCH  21  22
ATOM     22  C   UNL     1       2.486   4.759  19.478  0.00  0.00    +0.000 A 
ATOM     23  C   UNL     1       1.967   4.276  20.685  0.00  0.00    +0.000 A 
ATOM     24  C   UNL     1       1.066   3.205  20.686  0.00  0.00    +0.000 A 
ATOM     25  C   UNL     1       0.685   2.615  19.486  0.00  0.00    +0.000 A 
ATOM     26  C   UNL     1       1.188   3.098  18.281  0.00  0.00    +0.000 A 
ATOM     27  C   UNL     1       2.087   4.169  18.274  0.00  0.00    +0.000 A 
ENDBRANCH  21  22
ENDBRANCH  20  21
ENDBRANCH   4  20
TORSDOF 9
ENDMDL
