MODEL 1
REMARK VINA RESULT:      -7.1      0.000      0.000
REMARK  Name = 
REMARK  6 active torsions:
REMARK  status: ('A' for Active; 'I' for Inactive)
REMARK    1  A    between atoms: C_1  and  C_2
REMARK    2  A    between atoms: C_5  and  C_6
REMARK    3  A    between atoms: C_7  and  C_8
REMARK    4  A    between atoms: C_13  and  C_14
REMARK    5  A    between atoms: C_14  and  N_15
REMARK    6  A    between atoms: C_19  and  C_20
REMARK                            x       y       z     vdW  Elec       q    Type
REMARK                         _______ _______ _______ _____ _____    ______ ____
ROOT
ATOM      1  C   UNL     1       1.471   9.865  18.377  0.00  0.00    +0.000 C 
ATOM      2  O   UNL     1       2.142   9.692  17.361  0.00  0.00    +0.000 OA
ATOM      3  N   UNL     1       1.352   8.934  19.392  0.00  0.00    +0.000 N 
ATOM      4  C   UNL     1       1.946   7.698  19.265  0.00  0.00    +0.000 A 
ATOM      5  N   UNL     1       2.528   7.187  18.214  0.00  0.00    +0.000 NA
ATOM      6  C   UNL     1       3.108   5.957  18.508  0.00  0.00    +0.000 A 
ATOM      7  C   UNL     1       2.897   5.540  19.810  0.00  0.00    +0.000 A 
ATOM      8  S   UNL     1       1.948   6.712  20.658  0.00  0.00    +0.000 S 
ATOM      9  H   UNL     1       0.923   9.151  20.275  0.00  0.00    +0.000 HD
ENDROOT
BRANCH   1  16
ATOM     10  C   UNL     1      -1.700  10.294  18.284  0.00  0.00    +0.000 C 
ATOM     11  C   UNL     1      -0.642  11.311  18.522  0.00  0.00    +0.000 A 
ATOM     12  N   UNL     1      -0.994  12.582  18.728  0.00  0.00    +0.000 NA
ATOM     13  O   UNL     1       0.181  13.274  18.872  0.00  0.00    +0.000 OA
ATOM     14  C   UNL     1       1.244  12.430  18.751  0.00  0.00    +0.000 A 
ATOM     15  C   UNL     1       2.548  13.108  18.864  0.00  0.00    +0.000 C 
ATOM     16  C   UNL     1       0.783  11.141  18.542  0.00  0.00    +0.000 A 
ENDBRANCH   1  16
BRANCH   6  17
ATOM     17  C   UNL     1       3.990   5.356  17.444  0.00  0.00    +0.000 C 
BRANCH  17  18
ATOM     18  N   UNL     1       5.008   6.262  16.869  0.00  0.00    +0.000 NA
ATOM     19  C   UNL     1       6.264   6.302  17.636  0.00  0.00    +0.000 C 
ATOM     20  C   UNL     1       7.100   5.016  17.597  0.00  0.00    +0.000 C 
ATOM     21  C   UNL     1       7.278   4.440  16.192  0.00  0.00    +0.000 C 
ATOM     22  C   UNL     1       5.981   4.465  15.377  0.00  0.00    +0.000 C 
ATOM     23  C   UNL     1       6.246   4.055  13.927  0.00  0.00    +0.000 C 
ATOM     24  C   UNL     1       5.317   5.854  15.476  0.00  0.00    +0.000 C 
ENDBRANCH  17  18
ENDBRANCH   6  17
TORSDOF 3
ENDMDL
MODEL 2
REMARK VINA RESULT:      -7.1      2.033      2.389
REMARK  Name = 
REMARK  6 active torsions:
REMARK  status: ('A' for Active; 'I' for Inactive)
REMARK    1  A    between atoms: C_1  and  C_2
REMARK    2  A    between atoms: C_5  and  C_6
REMARK    3  A    between atoms: C_7  and  C_8
REMARK    4  A    between atoms: C_13  and  C_14
REMARK    5  A    between atoms: C_14  and  N_15
REMARK    6  A    between atoms: C_19  and  C_20
REMARK                            x       y       z     vdW  Elec       q    Type
REMARK                         _______ _______ _______ _____ _____    ______ ____
ROOT
ATOM      1  C   UNL     1       1.560   8.022  20.028  0.00  0.00    +0.000 C 
ATOM      2  O   UNL     1       2.255   8.204  19.031  0.00  0.00    +0.000 OA
ATOM      3  N   UNL     1       1.468   6.816  20.697  0.00  0.00    +0.000 N 
ATOM      4  C   UNL     1       2.125   5.707  20.209  0.00  0.00    +0.000 A 
ATOM      5  N   UNL     1       2.749   5.576  19.070  0.00  0.00    +0.000 NA
ATOM      6  C   UNL     1       3.384   4.341  18.984  0.00  0.00    +0.000 A 
ATOM      7  C   UNL     1       3.171   3.528  20.084  0.00  0.00    +0.000 A 
ATOM      8  S   UNL     1       2.151   4.335  21.224  0.00  0.00    +0.000 S 
ATOM      9  H   UNL     1       1.014   6.727  21.590  0.00  0.00    +0.000 HD
ENDROOT
BRANCH   1  16
ATOM     10  C   UNL     1      -0.148  10.102  18.294  0.00  0.00    +0.000 C 
ATOM     11  C   UNL     1       0.026  10.061  19.770  0.00  0.00    +0.000 A 
ATOM     12  N   UNL     1      -0.579  10.982  20.524  0.00  0.00    +0.000 NA
ATOM     13  O   UNL     1      -0.202  10.712  21.814  0.00  0.00    +0.000 OA
ATOM     14  C   UNL     1       0.631   9.635  21.847  0.00  0.00    +0.000 A 
ATOM     15  C   UNL     1       1.106   9.300  23.202  0.00  0.00    +0.000 C 
ATOM     16  C   UNL     1       0.807   9.153  20.561  0.00  0.00    +0.000 A 
ENDBRANCH   1  16
BRANCH   6  17
ATOM     17  C   UNL     1       4.312   4.140  17.814  0.00  0.00    +0.000 C 
BRANCH  17  18
ATOM     18  N   UNL     1       4.912   5.371  17.254  0.00  0.00    +0.000 NA
ATOM     19  C   UNL     1       6.219   5.711  17.839  0.00  0.00    +0.000 C 
ATOM     20  C   UNL     1       7.366   4.754  17.485  0.00  0.00    +0.000 C 
ATOM     21  C   UNL     1       7.449   4.416  15.996  0.00  0.00    +0.000 C 
ATOM     22  C   UNL     1       6.075   4.132  15.380  0.00  0.00    +0.000 C 
ATOM     23  C   UNL     1       6.184   3.982  13.861  0.00  0.00    +0.000 C 
ATOM     24  C   UNL     1       5.072   5.231  15.786  0.00  0.00    +0.000 C 
ENDBRANCH  17  18
ENDBRANCH   6  17
TORSDOF 3
ENDMDL
MODEL 3
REMARK VINA RESULT:      -7.0      1.950      2.527
REMARK  Name = 
REMARK  6 active torsions:
REMARK  status: ('A' for Active; 'I' for Inactive)
REMARK    1  A    between atoms: C_1  and  C_2
REMARK    2  A    between atoms: C_5  and  C_6
REMARK    3  A    between atoms: C_7  and  C_8
REMARK    4  A    between atoms: C_13  and  C_14
REMARK    5  A    between atoms: C_14  and  N_15
REMARK    6  A    between atoms: C_19  and  C_20
REMARK                            x       y       z     vdW  Elec       q    Type
REMARK                         _______ _______ _______ _____ _____    ______ ____
ROOT
ATOM      1  C   UNL     1       1.569   8.119  19.927  0.00  0.00    +0.000 C 
ATOM      2  O   UNL     1       2.251   8.282  18.918  0.00  0.00    +0.000 OA
ATOM      3  N   UNL     1       1.480   6.923  20.615  0.00  0.00    +0.000 N 
ATOM      4  C   UNL     1       2.122   5.804  20.134  0.00  0.00    +0.000 A 
ATOM      5  N   UNL     1       2.728   5.651  18.988  0.00  0.00    +0.000 NA
ATOM      6  C   UNL     1       3.354   4.411  18.910  0.00  0.00    +0.000 A 
ATOM      7  C   UNL     1       3.152   3.616  20.024  0.00  0.00    +0.000 A 
ATOM      8  S   UNL     1       2.154   4.446  21.168  0.00  0.00    +0.000 S 
ATOM      9  H   UNL     1       1.039   6.851  21.515  0.00  0.00    +0.000 HD
ENDROOT
BRANCH   1  16
ATOM     10  C   UNL     1       1.729   9.209  22.934  0.00  0.00    +0.000 C 
ATOM     11  C   UNL     1       0.936   9.753  21.800  0.00  0.00    +0.000 A 
ATOM     12  N   UNL     1       0.172  10.830  21.996  0.00  0.00    +0.000 NA
ATOM     13  O   UNL     1      -0.458  11.062  20.800  0.00  0.00    +0.000 OA
ATOM     14  C   UNL     1      -0.082  10.130  19.881  0.00  0.00    +0.000 A 
ATOM     15  C   UNL     1      -0.742  10.296  18.573  0.00  0.00    +0.000 C 
ATOM     16  C   UNL     1       0.832   9.263  20.455  0.00  0.00    +0.000 A 
ENDBRANCH   1  16
BRANCH   6  17
ATOM     17  C   UNL     1       4.263   4.187  17.730  0.00  0.00    +0.000 C 
BRANCH  17  18
ATOM     18  N   UNL     1       4.868   5.406  17.148  0.00  0.00    +0.000 NA
ATOM     19  C   UNL     1       6.171   5.758  17.735  0.00  0.00    +0.000 C 
ATOM     20  C   UNL     1       7.320   4.794  17.412  0.00  0.00    +0.000 C 
ATOM     21  C   UNL     1       7.415   4.422  15.932  0.00  0.00    +0.000 C 
ATOM     22  C   UNL     1       6.046   4.125  15.311  0.00  0.00    +0.000 C 
ATOM     23  C   UNL     1       6.168   3.942  13.797  0.00  0.00    +0.000 C 
ATOM     24  C   UNL     1       5.041   5.233  15.684  0.00  0.00    +0.000 C 
ENDBRANCH  17  18
ENDBRANCH   6  17
TORSDOF 3
ENDMDL
MODEL 4
REMARK VINA RESULT:      -6.9      2.907      8.143
REMARK  Name = 
REMARK  6 active torsions:
REMARK  status: ('A' for Active; 'I' for Inactive)
REMARK    1  A    between atoms: C_1  and  C_2
REMARK    2  A    between atoms: C_5  and  C_6
REMARK    3  A    between atoms: C_7  and  C_8
REMARK    4  A    between atoms: C_13  and  C_14
REMARK    5  A    between atoms: C_14  and  N_15
REMARK    6  A    between atoms: C_19  and  C_20
REMARK                            x       y       z     vdW  Elec       q    Type
REMARK                         _______ _______ _______ _____ _____    ______ ____
ROOT
ATOM      1  C   UNL     1       4.825   5.364  17.914  0.00  0.00    +0.000 C 
ATOM      2  O   UNL     1       4.437   6.531  17.913  0.00  0.00    +0.000 OA
ATOM      3  N   UNL     1       4.211   4.346  18.619  0.00  0.00    +0.000 N 
ATOM      4  C   UNL     1       3.140   4.626  19.440  0.00  0.00    +0.000 A 
ATOM      5  N   UNL     1       2.670   5.795  19.781  0.00  0.00    +0.000 NA
ATOM      6  C   UNL     1       1.507   5.669  20.535  0.00  0.00    +0.000 A 
ATOM      7  C   UNL     1       1.150   4.357  20.790  0.00  0.00    +0.000 A 
ATOM      8  S   UNL     1       2.303   3.283  20.077  0.00  0.00    +0.000 S 
ATOM      9  H   UNL     1       4.452   3.379  18.490  0.00  0.00    +0.000 HD
ENDROOT
BRANCH   1  16
ATOM     10  C   UNL     1       7.865   5.327  18.919  0.00  0.00    +0.000 C 
ATOM     11  C   UNL     1       7.338   4.986  17.571  0.00  0.00    +0.000 A 
ATOM     12  N   UNL     1       8.190   4.610  16.614  0.00  0.00    +0.000 NA
ATOM     13  O   UNL     1       7.425   4.406  15.494  0.00  0.00    +0.000 OA
ATOM     14  C   UNL     1       6.114   4.659  15.766  0.00  0.00    +0.000 A 
ATOM     15  C   UNL     1       5.229   4.490  14.599  0.00  0.00    +0.000 C 
ATOM     16  C   UNL     1       5.984   5.021  17.096  0.00  0.00    +0.000 A 
ENDBRANCH   1  16
BRANCH   6  17
ATOM     17  C   UNL     1       0.746   6.938  20.817  0.00  0.00    +0.000 C 
BRANCH  17  18
ATOM     18  N   UNL     1       1.559   8.172  20.882  0.00  0.00    +0.000 NA
ATOM     19  C   UNL     1       1.453   9.015  19.680  0.00  0.00    +0.000 C 
ATOM     20  C   UNL     1       0.091   9.688  19.468  0.00  0.00    +0.000 C 
ATOM     21  C   UNL     1      -0.463  10.366  20.721  0.00  0.00    +0.000 C 
ATOM     22  C   UNL     1      -0.285   9.510  21.980  0.00  0.00    +0.000 C 
ATOM     23  C   UNL     1      -0.681  10.299  23.230  0.00  0.00    +0.000 C 
ATOM     24  C   UNL     1       1.160   8.978  22.062  0.00  0.00    +0.000 C 
ENDBRANCH  17  18
ENDBRANCH   6  17
TORSDOF 3
ENDMDL
MODEL 5
REMARK VINA RESULT:      -6.9      0.486      1.697
REMARK  Name = 
REMARK  6 active torsions:
REMARK  status: ('A' for Active; 'I' for Inactive)
REMARK    1  A    between atoms: C_1  and  C_2
REMARK    2  A    between atoms: C_5  and  C_6
REMARK    3  A    between atoms: C_7  and  C_8
REMARK    4  A    between atoms: C_13  and  C_14
REMARK    5  A    between atoms: C_14  and  N_15
REMARK    6  A    between atoms: C_19  and  C_20
REMARK                            x       y       z     vdW  Elec       q    Type
REMARK                         _______ _______ _______ _____ _____    ______ ____
ROOT
ATOM      1  C   UNL     1       1.351   9.989  18.342  0.00  0.00    +0.000 C 
ATOM      2  O   UNL     1       2.006   9.795  17.319  0.00  0.00    +0.000 OA
ATOM      3  N   UNL     1       1.263   9.087  19.386  0.00  0.00    +0.000 N 
ATOM      4  C   UNL     1       1.872   7.855  19.283  0.00  0.00    +0.000 A 
ATOM      5  N   UNL     1       2.441   7.321  18.237  0.00  0.00    +0.000 NA
ATOM      6  C   UNL     1       3.043   6.108  18.556  0.00  0.00    +0.000 A 
ATOM      7  C   UNL     1       2.862   5.727  19.874  0.00  0.00    +0.000 A 
ATOM      8  S   UNL     1       1.912   6.910  20.704  0.00  0.00    +0.000 S 
ATOM      9  H   UNL     1       0.848   9.324  20.270  0.00  0.00    +0.000 HD
ENDROOT
BRANCH   1  16
ATOM     10  C   UNL     1       2.737  12.871  18.495  0.00  0.00    +0.000 C 
ATOM     11  C   UNL     1       1.287  12.546  18.524  0.00  0.00    +0.000 A 
ATOM     12  N   UNL     1       0.398  13.537  18.626  0.00  0.00    +0.000 NA
ATOM     13  O   UNL     1      -0.831  12.932  18.669  0.00  0.00    +0.000 OA
ATOM     14  C   UNL     1      -0.693  11.578  18.596  0.00  0.00    +0.000 A 
ATOM     15  C   UNL     1      -1.975  10.853  18.667  0.00  0.00    +0.000 C 
ATOM     16  C   UNL     1       0.649  11.260  18.482  0.00  0.00    +0.000 A 
ENDBRANCH   1  16
BRANCH   6  17
ATOM     17  C   UNL     1       3.913   5.487  17.494  0.00  0.00    +0.000 C 
BRANCH  17  18
ATOM     18  N   UNL     1       5.000   6.346  16.974  0.00  0.00    +0.000 NA
ATOM     19  C   UNL     1       6.228   6.300  17.784  0.00  0.00    +0.000 C 
ATOM     20  C   UNL     1       6.992   4.970  17.745  0.00  0.00    +0.000 C 
ATOM     21  C   UNL     1       7.187   4.413  16.334  0.00  0.00    +0.000 C 
ATOM     22  C   UNL     1       5.923   4.528  15.476  0.00  0.00    +0.000 C 
ATOM     23  C   UNL     1       6.216   4.133  14.027  0.00  0.00    +0.000 C 
ATOM     24  C   UNL     1       5.335   5.949  15.584  0.00  0.00    +0.000 C 
ENDBRANCH  17  18
ENDBRANCH   6  17
TORSDOF 3
ENDMDL
MODEL 6
REMARK VINA RESULT:      -6.8      2.694      7.765
REMARK  Name = 
REMARK  6 active torsions:
REMARK  status: ('A' for Active; 'I' for Inactive)
REMARK    1  A    between atoms: C_1  and  C_2
REMARK    2  A    between atoms: C_5  and  C_6
REMARK    3  A    between atoms: C_7  and  C_8
REMARK    4  A    between atoms: C_13  and  C_14
REMARK    5  A    between atoms: C_14  and  N_15
REMARK    6  A    between atoms: C_19  and  C_20
REMARK                            x       y       z     vdW  Elec       q    Type
REMARK                         _______ _______ _______ _____ _____    ______ ____
ROOT
ATOM      1  C   UNL     1       4.863   6.323  17.805  0.00  0.00    +0.000 C 
ATOM      2  O   UNL     1       4.366   7.444  17.883  0.00  0.00    +0.000 OA
ATOM      3  N   UNL     1       4.376   5.212  18.468  0.00  0.00    +0.000 N 
ATOM      4  C   UNL     1       3.313   5.342  19.335  0.00  0.00    +0.000 A 
ATOM      5  N   UNL     1       2.745   6.438  19.758  0.00  0.00    +0.000 NA
ATOM      6  C   UNL     1       1.628   6.158  20.538  0.00  0.00    +0.000 A 
ATOM      7  C   UNL     1       1.407   4.806  20.728  0.00  0.00    +0.000 A 
ATOM      8  S   UNL     1       2.632   3.890  19.919  0.00  0.00    +0.000 S 
ATOM      9  H   UNL     1       4.704   4.282  18.276  0.00  0.00    +0.000 HD
ENDROOT
BRANCH   1  16
ATOM     10  C   UNL     1       5.126   4.115  15.501  0.00  0.00    +0.000 C 
ATOM     11  C   UNL     1       6.110   5.160  15.888  0.00  0.00    +0.000 A 
ATOM     12  N   UNL     1       7.270   5.240  15.232  0.00  0.00    +0.000 NA
ATOM     13  O   UNL     1       7.969   6.254  15.834  0.00  0.00    +0.000 OA
ATOM     14  C   UNL     1       7.241   6.788  16.854  0.00  0.00    +0.000 A 
ATOM     15  C   UNL     1       7.941   7.869  17.572  0.00  0.00    +0.000 C 
ATOM     16  C   UNL     1       6.020   6.140  16.933  0.00  0.00    +0.000 A 
ENDBRANCH   1  16
BRANCH   6  17
ATOM     17  C   UNL     1       0.759   7.329  20.916  0.00  0.00    +0.000 C 
BRANCH  17  18
ATOM     18  N   UNL     1       1.434   8.646  20.942  0.00  0.00    +0.000 NA
ATOM     19  C   UNL     1       1.246   9.431  19.711  0.00  0.00    +0.000 C 
ATOM     20  C   UNL     1      -0.179   9.945  19.471  0.00  0.00    +0.000 C 
ATOM     21  C   UNL     1      -0.813  10.601  20.699  0.00  0.00    +0.000 C 
ATOM     22  C   UNL     1      -0.553   9.812  21.987  0.00  0.00    +0.000 C 
ATOM     23  C   UNL     1      -1.041  10.595  23.207  0.00  0.00    +0.000 C 
ATOM     24  C   UNL     1       0.941   9.443  22.092  0.00  0.00    +0.000 C 
ENDBRANCH  17  18
ENDBRANCH   6  17
TORSDOF 3
ENDMDL
MODEL 7
REMARK VINA RESULT:      -6.7      0.910      1.814
REMARK  Name = 
REMARK  6 active torsions:
REMARK  status: ('A' for Active; 'I' for Inactive)
REMARK    1  A    between atoms: C_1  and  C_2
REMARK    2  A    between atoms: C_5  and  C_6
REMARK    3  A    between atoms: C_7  and  C_8
REMARK    4  A    between atoms: C_13  and  C_14
REMARK    5  A    between atoms: C_14  and  N_15
REMARK    6  A    between atoms: C_19  and  C_20
REMARK                            x       y       z     vdW  Elec       q    Type
REMARK                         _______ _______ _______ _____ _____    ______ ____
ROOT
ATOM      1  C   UNL     1       1.395  10.189  18.519  0.00  0.00    +0.000 C 
ATOM      2  O   UNL     1       2.093  10.047  17.517  0.00  0.00    +0.000 OA
ATOM      3  N   UNL     1       1.236   9.224  19.495  0.00  0.00    +0.000 N 
ATOM      4  C   UNL     1       1.821   7.986  19.339  0.00  0.00    +0.000 A 
ATOM      5  N   UNL     1       2.427   7.507  18.287  0.00  0.00    +0.000 NA
ATOM      6  C   UNL     1       2.986   6.261  18.553  0.00  0.00    +0.000 A 
ATOM      7  C   UNL     1       2.732   5.799  19.832  0.00  0.00    +0.000 A 
ATOM      8  S   UNL     1       1.771   6.950  20.694  0.00  0.00    +0.000 S 
ATOM      9  H   UNL     1       0.784   9.413  20.372  0.00  0.00    +0.000 HD
ENDROOT
BRANCH   1  16
ATOM     10  C   UNL     1      -1.721  10.733  18.023  0.00  0.00    +0.000 C 
ATOM     11  C   UNL     1      -0.688  11.686  18.507  0.00  0.00    +0.000 A 
ATOM     12  N   UNL     1      -1.040  12.943  18.787  0.00  0.00    +0.000 NA
ATOM     13  O   UNL     1       0.116  13.578  19.162  0.00  0.00    +0.000 OA
ATOM     14  C   UNL     1       1.168  12.714  19.109  0.00  0.00    +0.000 A 
ATOM     15  C   UNL     1       2.456  13.333  19.471  0.00  0.00    +0.000 C 
ATOM     16  C   UNL     1       0.716  11.467  18.710  0.00  0.00    +0.000 A 
ENDBRANCH   1  16
BRANCH   6  17
ATOM     17  C   UNL     1       3.891   5.688  17.493  0.00  0.00    +0.000 C 
BRANCH  17  18
ATOM     18  N   UNL     1       4.544   4.405  17.834  0.00  0.00    +0.000 NA
ATOM     19  C   UNL     1       5.049   3.669  16.663  0.00  0.00    +0.000 C 
ATOM     20  C   UNL     1       6.244   4.313  15.948  0.00  0.00    +0.000 C 
ATOM     21  C   UNL     1       7.357   4.766  16.893  0.00  0.00    +0.000 C 
ATOM     22  C   UNL     1       6.817   5.470  18.143  0.00  0.00    +0.000 C 
ATOM     23  C   UNL     1       7.945   5.737  19.141  0.00  0.00    +0.000 C 
ATOM     24  C   UNL     1       5.673   4.645  18.765  0.00  0.00    +0.000 C 
ENDBRANCH  17  18
ENDBRANCH   6  17
TORSDOF 3
ENDMDL
MODEL 8
REMARK VINA RESULT:      -6.6      2.922      8.059
REMARK  Name = 
REMARK  6 active torsions:
REMARK  status: ('A' for Active; 'I' for Inactive)
REMARK    1  A    between atoms: C_1  and  C_2
REMARK    2  A    between atoms: C_5  and  C_6
REMARK    3  A    between atoms: C_7  and  C_8
REMARK    4  A    between atoms: C_13  and  C_14
REMARK    5  A    between atoms: C_14  and  N_15
REMARK    6  A    between atoms: C_19  and  C_20
REMARK                            x       y       z     vdW  Elec       q    Type
REMARK                         _______ _______ _______ _____ _____    ______ ____
ROOT
ATOM      1  C   UNL     1       4.925   5.369  18.022  0.00  0.00    +0.000 C 
ATOM      2  O   UNL     1       4.513   6.526  17.959  0.00  0.00    +0.000 OA
ATOM      3  N   UNL     1       4.317   4.371  18.761  0.00  0.00    +0.000 N 
ATOM      4  C   UNL     1       3.223   4.665  19.545  0.00  0.00    +0.000 A 
ATOM      5  N   UNL     1       2.721   5.838  19.821  0.00  0.00    +0.000 NA
ATOM      6  C   UNL     1       1.545   5.721  20.556  0.00  0.00    +0.000 A 
ATOM      7  C   UNL     1       1.210   4.415  20.864  0.00  0.00    +0.000 A 
ATOM      8  S   UNL     1       2.400   3.334  20.226  0.00  0.00    +0.000 S 
ATOM      9  H   UNL     1       4.582   3.405  18.681  0.00  0.00    +0.000 HD
ENDROOT
BRANCH   1  16
ATOM     10  C   UNL     1       4.958   4.666  14.899  0.00  0.00    +0.000 C 
ATOM     11  C   UNL     1       6.108   4.726  15.839  0.00  0.00    +0.000 A 
ATOM     12  N   UNL     1       7.336   4.464  15.386  0.00  0.00    +0.000 NA
ATOM     13  O   UNL     1       8.163   4.557  16.476  0.00  0.00    +0.000 OA
ATOM     14  C   UNL     1       7.442   4.872  17.589  0.00  0.00    +0.000 A 
ATOM     15  C   UNL     1       8.260   4.961  18.812  0.00  0.00    +0.000 C 
ATOM     16  C   UNL     1       6.109   5.014  17.245  0.00  0.00    +0.000 A 
ENDBRANCH   1  16
BRANCH   6  17
ATOM     17  C   UNL     1       0.751   6.985  20.763  0.00  0.00    +0.000 C 
BRANCH  17  18
ATOM     18  N   UNL     1       1.544   8.230  20.864  0.00  0.00    +0.000 NA
ATOM     19  C   UNL     1       1.437   9.098  19.681  0.00  0.00    +0.000 C 
ATOM     20  C   UNL     1       0.067   9.754  19.468  0.00  0.00    +0.000 C 
ATOM     21  C   UNL     1      -0.511  10.394  20.731  0.00  0.00    +0.000 C 
ATOM     22  C   UNL     1      -0.333   9.513  21.972  0.00  0.00    +0.000 C 
ATOM     23  C   UNL     1      -0.755  10.267  23.235  0.00  0.00    +0.000 C 
ATOM     24  C   UNL     1       1.119   9.003  22.057  0.00  0.00    +0.000 C 
ENDBRANCH  17  18
ENDBRANCH   6  17
TORSDOF 3
ENDMDL
MODEL 9
REMARK VINA RESULT:      -6.6      2.246      7.968
REMARK  Name = 
REMARK  6 active torsions:
REMARK  status: ('A' for Active; 'I' for Inactive)
REMARK    1  A    between atoms: C_1  and  C_2
REMARK    2  A    between atoms: C_5  and  C_6
REMARK    3  A    between atoms: C_7  and  C_8
REMARK    4  A    between atoms: C_13  and  C_14
REMARK    5  A    between atoms: C_14  and  N_15
REMARK    6  A    between atoms: C_19  and  C_20
REMARK                            x       y       z     vdW  Elec       q    Type
REMARK                         _______ _______ _______ _____ _____    ______ ____
ROOT
ATOM      1  C   UNL     1       4.797   6.132  17.815  0.00  0.00    +0.000 C 
ATOM      2  O   UNL     1       4.544   7.279  17.454  0.00  0.00    +0.000 OA
ATOM      3  N   UNL     1       4.104   5.462  18.806  0.00  0.00    +0.000 N 
ATOM      4  C   UNL     1       3.109   6.108  19.506  0.00  0.00    +0.000 A 
ATOM      5  N   UNL     1       2.788   7.373  19.470  0.00  0.00    +0.000 NA
ATOM      6  C   UNL     1       1.654   7.626  20.234  0.00  0.00    +0.000 A 
ATOM      7  C   UNL     1       1.162   6.510  20.886  0.00  0.00    +0.000 A 
ATOM      8  S   UNL     1       2.155   5.137  20.535  0.00  0.00    +0.000 S 
ATOM      9  H   UNL     1       4.229   4.480  18.982  0.00  0.00    +0.000 HD
ENDROOT
BRANCH   1  16
ATOM     10  C   UNL     1       7.741   5.658  18.982  0.00  0.00    +0.000 C 
ATOM     11  C   UNL     1       7.180   5.192  17.687  0.00  0.00    +0.000 A 
ATOM     12  N   UNL     1       7.952   4.482  16.859  0.00  0.00    +0.000 NA
ATOM     13  O   UNL     1       7.183   4.239  15.751  0.00  0.00    +0.000 OA
ATOM     14  C   UNL     1       5.950   4.800  15.899  0.00  0.00    +0.000 A 
ATOM     15  C   UNL     1       5.072   4.606  14.731  0.00  0.00    +0.000 C 
ATOM     16  C   UNL     1       5.873   5.416  17.137  0.00  0.00    +0.000 A 
ENDBRANCH   1  16
BRANCH   6  17
ATOM     17  C   UNL     1       1.053   9.003  20.113  0.00  0.00    +0.000 C 
BRANCH  17  18
ATOM     18  N   UNL     1       1.372   9.733  18.866  0.00  0.00    +0.000 NA
ATOM     19  C   UNL     1       0.428   9.470  17.768  0.00  0.00    +0.000 C 
ATOM     20  C   UNL     1      -0.986  10.030  17.968  0.00  0.00    +0.000 C 
ATOM     21  C   UNL     1      -1.011  11.484  18.439  0.00  0.00    +0.000 C 
ATOM     22  C   UNL     1       0.022  11.766  19.535  0.00  0.00    +0.000 C 
ATOM     23  C   UNL     1       0.089  13.263  19.842  0.00  0.00    +0.000 C 
ATOM     24  C   UNL     1       1.396  11.193  19.129  0.00  0.00    +0.000 C 
ENDBRANCH  17  18
ENDBRANCH   6  17
TORSDOF 3
ENDMDL
