MODEL 1
REMARK VINA RESULT:      -9.0      0.000      0.000
REMARK  Name = 
REMARK  1 active torsions:
REMARK  status: ('A' for Active; 'I' for Inactive)
REMARK    1  A    between atoms: N_11  and  C_12
REMARK                            x       y       z     vdW  Elec       q    Type
REMARK                         _______ _______ _______ _____ _____    ______ ____
ROOT
ATOM      1  O   UNL     1       2.050   3.602  16.687  0.00  0.00    +0.000 OA
ATOM      2  C   UNL     1       2.680   3.199  17.656  0.00  0.00    +0.000 C 
ATOM      3  C   UNL     1       2.054   2.356  18.753  0.00  0.00    +0.000 C 
ATOM      4  C   UNL     1       0.784   2.860  19.402  0.00  0.00    +0.000 C 
ATOM      5  C   UNL     1       1.151   3.168  20.850  0.00  0.00    +0.000 C 
ATOM      6  F   UNL     1       0.966   4.501  21.059  0.00  0.00    +0.000 F 
ATOM      7  C   UNL     1       2.627   2.826  21.034  0.00  0.00    +0.000 C 
ATOM      8  N   UNL     1       3.086   2.359  19.744  0.00  0.00    +0.000 N 
ATOM      9  C   UNL     1       4.279   2.867  19.211  0.00  0.00    +0.000 C 
ATOM     10  O   UNL     1       5.290   3.030  19.883  0.00  0.00    +0.000 OA
ATOM     11  N   UNL     1       4.033   3.285  17.917  0.00  0.00    +0.000 N 
ENDROOT
BRANCH  11  12
ATOM     12  C   UNL     1       5.005   3.896  17.080  0.00  0.00    +0.000 A 
ATOM     13  C   UNL     1       5.817   4.941  17.555  0.00  0.00    +0.000 A 
ATOM     14  C   UNL     1       6.783   5.563  16.752  0.00  0.00    +0.000 A 
ATOM     15  C   UNL     1       6.874   5.123  15.438  0.00  0.00    +0.000 A 
ATOM     16  O   UNL     1       7.724   5.614  14.496  0.00  0.00    +0.000 OA
ATOM     17  C   UNL     1       7.477   4.931  13.347  0.00  0.00    +0.000 A 
ATOM     18  C   UNL     1       6.480   4.002  13.542  0.00  0.00    +0.000 A 
ATOM     19  C   UNL     1       6.090   4.110  14.903  0.00  0.00    +0.000 A 
ATOM     20  C   UNL     1       5.154   3.471  15.743  0.00  0.00    +0.000 A 
ENDBRANCH  11  12
TORSDOF 1
ENDMDL
MODEL 2
REMARK VINA RESULT:      -8.9      1.564      2.122
REMARK  Name = 
REMARK  1 active torsions:
REMARK  status: ('A' for Active; 'I' for Inactive)
REMARK    1  A    between atoms: N_11  and  C_12
REMARK                            x       y       z     vdW  Elec       q    Type
REMARK                         _______ _______ _______ _____ _____    ______ ____
ROOT
ATOM      1  O   UNL     1       4.833   2.272  19.610  0.00  0.00    +0.000 OA
ATOM      2  C   UNL     1       4.212   3.319  19.737  0.00  0.00    +0.000 C 
ATOM      3  C   UNL     1       3.214   3.556  20.858  0.00  0.00    +0.000 C 
ATOM      4  C   UNL     1       2.126   2.527  21.070  0.00  0.00    +0.000 C 
ATOM      5  C   UNL     1       0.816   3.233  20.737  0.00  0.00    +0.000 C 
ATOM      6  F   UNL     1       0.252   2.596  19.673  0.00  0.00    +0.000 F 
ATOM      7  C   UNL     1       1.153   4.670  20.346  0.00  0.00    +0.000 C 
ATOM      8  N   UNL     1       2.593   4.774  20.438  0.00  0.00    +0.000 N 
ATOM      9  C   UNL     1       3.311   5.356  19.384  0.00  0.00    +0.000 C 
ATOM     10  O   UNL     1       2.942   6.373  18.811  0.00  0.00    +0.000 OA
ATOM     11  N   UNL     1       4.340   4.502  19.037  0.00  0.00    +0.000 N 
ENDROOT
BRANCH  11  12
ATOM     12  C   UNL     1       5.252   4.746  17.975  0.00  0.00    +0.000 A 
ATOM     13  C   UNL     1       6.388   5.551  18.167  0.00  0.00    +0.000 A 
ATOM     14  C   UNL     1       7.304   5.811  17.137  0.00  0.00    +0.000 A 
ATOM     15  C   UNL     1       7.012   5.265  15.895  0.00  0.00    +0.000 A 
ATOM     16  O   UNL     1       7.757   5.421  14.766  0.00  0.00    +0.000 OA
ATOM     17  C   UNL     1       7.115   4.751  13.774  0.00  0.00    +0.000 A 
ATOM     18  C   UNL     1       5.968   4.160  14.253  0.00  0.00    +0.000 A 
ATOM     19  C   UNL     1       5.899   4.478  15.636  0.00  0.00    +0.000 A 
ATOM     20  C   UNL     1       5.014   4.196  16.698  0.00  0.00    +0.000 A 
ENDBRANCH  11  12
TORSDOF 1
ENDMDL
MODEL 3
REMARK VINA RESULT:      -8.8      1.356      1.446
REMARK  Name = 
REMARK  1 active torsions:
REMARK  status: ('A' for Active; 'I' for Inactive)
REMARK    1  A    between atoms: N_11  and  C_12
REMARK                            x       y       z     vdW  Elec       q    Type
REMARK                         _______ _______ _______ _____ _____    ______ ____
ROOT
ATOM      1  O   UNL     1       2.702   6.196  18.529  0.00  0.00    +0.000 OA
ATOM      2  C   UNL     1       2.642   4.975  18.477  0.00  0.00    +0.000 C 
ATOM      3  C   UNL     1       1.479   4.181  19.046  0.00  0.00    +0.000 C 
ATOM      4  C   UNL     1       1.069   4.446  20.477  0.00  0.00    +0.000 C 
ATOM      5  C   UNL     1       1.373   3.163  21.242  0.00  0.00    +0.000 C 
ATOM      6  F   UNL     1       2.312   3.446  22.187  0.00  0.00    +0.000 F 
ATOM      7  C   UNL     1       1.945   2.157  20.246  0.00  0.00    +0.000 C 
ATOM      8  N   UNL     1       1.979   2.843  18.972  0.00  0.00    +0.000 N 
ATOM      9  C   UNL     1       3.144   2.795  18.194  0.00  0.00    +0.000 C 
ATOM     10  O   UNL     1       3.795   1.769  18.036  0.00  0.00    +0.000 OA
ATOM     11  N   UNL     1       3.476   4.085  17.830  0.00  0.00    +0.000 N 
ENDROOT
BRANCH  11  12
ATOM     12  C   UNL     1       4.627   4.426  17.070  0.00  0.00    +0.000 A 
ATOM     13  C   UNL     1       5.669   5.184  17.633  0.00  0.00    +0.000 A 
ATOM     14  C   UNL     1       6.816   5.536  16.907  0.00  0.00    +0.000 A 
ATOM     15  C   UNL     1       6.857   5.134  15.579  0.00  0.00    +0.000 A 
ATOM     16  O   UNL     1       7.864   5.398  14.702  0.00  0.00    +0.000 OA
ATOM     17  C   UNL     1       7.504   4.852  13.511  0.00  0.00    +0.000 A 
ATOM     18  C   UNL     1       6.278   4.234  13.613  0.00  0.00    +0.000 A 
ATOM     19  C   UNL     1       5.854   4.402  14.959  0.00  0.00    +0.000 A 
ATOM     20  C   UNL     1       4.730   4.023  15.722  0.00  0.00    +0.000 A 
ENDBRANCH  11  12
TORSDOF 1
ENDMDL
MODEL 4
REMARK VINA RESULT:      -8.1      1.694      2.506
REMARK  Name = 
REMARK  1 active torsions:
REMARK  status: ('A' for Active; 'I' for Inactive)
REMARK    1  A    between atoms: N_11  and  C_12
REMARK                            x       y       z     vdW  Elec       q    Type
REMARK                         _______ _______ _______ _____ _____    ______ ____
ROOT
ATOM      1  O   UNL     1       4.679   5.111  20.173  0.00  0.00    +0.000 OA
ATOM      2  C   UNL     1       3.575   4.946  19.673  0.00  0.00    +0.000 C 
ATOM      3  C   UNL     1       2.305   4.825  20.498  0.00  0.00    +0.000 C 
ATOM      4  C   UNL     1       2.283   3.820  21.627  0.00  0.00    +0.000 C 
ATOM      5  C   UNL     1       1.255   2.767  21.226  0.00  0.00    +0.000 C 
ATOM      6  F   UNL     1       1.899   1.574  21.098  0.00  0.00    +0.000 F 
ATOM      7  C   UNL     1       0.678   3.178  19.873  0.00  0.00    +0.000 C 
ATOM      8  N   UNL     1       1.359   4.402  19.512  0.00  0.00    +0.000 N 
ATOM      9  C   UNL     1       1.895   4.539  18.224  0.00  0.00    +0.000 C 
ATOM     10  O   UNL     1       1.299   4.182  17.215  0.00  0.00    +0.000 OA
ATOM     11  N   UNL     1       3.207   4.956  18.342  0.00  0.00    +0.000 N 
ENDROOT
BRANCH  11  12
ATOM     12  C   UNL     1       4.079   5.160  17.239  0.00  0.00    +0.000 A 
ATOM     13  C   UNL     1       4.439   6.455  16.829  0.00  0.00    +0.000 A 
ATOM     14  C   UNL     1       5.296   6.686  15.744  0.00  0.00    +0.000 A 
ATOM     15  C   UNL     1       5.744   5.566  15.058  0.00  0.00    +0.000 A 
ATOM     16  O   UNL     1       6.557   5.578  13.966  0.00  0.00    +0.000 OA
ATOM     17  C   UNL     1       6.734   4.284  13.591  0.00  0.00    +0.000 A 
ATOM     18  C   UNL     1       6.048   3.438  14.433  0.00  0.00    +0.000 A 
ATOM     19  C   UNL     1       5.410   4.263  15.399  0.00  0.00    +0.000 A 
ATOM     20  C   UNL     1       4.581   4.054  16.521  0.00  0.00    +0.000 A 
ENDBRANCH  11  12
TORSDOF 1
ENDMDL
MODEL 5
REMARK VINA RESULT:      -7.6      4.154      5.932
REMARK  Name = 
REMARK  1 active torsions:
REMARK  status: ('A' for Active; 'I' for Inactive)
REMARK    1  A    between atoms: N_11  and  C_12
REMARK                            x       y       z     vdW  Elec       q    Type
REMARK                         _______ _______ _______ _____ _____    ______ ____
ROOT
ATOM      1  O   UNL     1       1.022   4.651  17.310  0.00  0.00    +0.000 OA
ATOM      2  C   UNL     1       2.170   4.645  17.734  0.00  0.00    +0.000 C 
ATOM      3  C   UNL     1       3.154   3.528  17.432  0.00  0.00    +0.000 C 
ATOM      4  C   UNL     1       2.720   2.105  17.700  0.00  0.00    +0.000 C 
ATOM      5  C   UNL     1       3.616   1.603  18.828  0.00  0.00    +0.000 C 
ATOM      6  F   UNL     1       2.826   1.314  19.899  0.00  0.00    +0.000 F 
ATOM      7  C   UNL     1       4.572   2.735  19.196  0.00  0.00    +0.000 C 
ATOM      8  N   UNL     1       4.227   3.839  18.326  0.00  0.00    +0.000 N 
ATOM      9  C   UNL     1       4.059   5.119  18.871  0.00  0.00    +0.000 C 
ATOM     10  O   UNL     1       4.814   5.586  19.714  0.00  0.00    +0.000 OA
ATOM     11  N   UNL     1       2.852   5.625  18.428  0.00  0.00    +0.000 N 
ENDROOT
BRANCH  11  12
ATOM     12  C   UNL     1       2.329   6.889  18.812  0.00  0.00    +0.000 A 
ATOM     13  C   UNL     1       2.266   7.955  17.899  0.00  0.00    +0.000 A 
ATOM     14  C   UNL     1       1.758   9.214  18.250  0.00  0.00    +0.000 A 
ATOM     15  C   UNL     1       1.353   9.373  19.569  0.00  0.00    +0.000 A 
ATOM     16  O   UNL     1       0.859  10.518  20.113  0.00  0.00    +0.000 OA
ATOM     17  C   UNL     1       0.610  10.257  21.423  0.00  0.00    +0.000 A 
ATOM     18  C   UNL     1       0.934   8.954  21.727  0.00  0.00    +0.000 A 
ATOM     19  C   UNL     1       1.407   8.366  20.523  0.00  0.00    +0.000 A 
ATOM     20  C   UNL     1       1.884   7.097  20.134  0.00  0.00    +0.000 A 
ENDBRANCH  11  12
TORSDOF 1
ENDMDL
MODEL 6
REMARK VINA RESULT:      -7.5      4.647      6.238
REMARK  Name = 
REMARK  1 active torsions:
REMARK  status: ('A' for Active; 'I' for Inactive)
REMARK    1  A    between atoms: N_11  and  C_12
REMARK                            x       y       z     vdW  Elec       q    Type
REMARK                         _______ _______ _______ _____ _____    ______ ____
ROOT
ATOM      1  O   UNL     1       4.705   5.851  18.438  0.00  0.00    +0.000 OA
ATOM      2  C   UNL     1       3.862   5.289  19.123  0.00  0.00    +0.000 C 
ATOM      3  C   UNL     1       4.052   3.889  19.682  0.00  0.00    +0.000 C 
ATOM      4  C   UNL     1       4.450   2.789  18.725  0.00  0.00    +0.000 C 
ATOM      5  C   UNL     1       3.269   1.826  18.683  0.00  0.00    +0.000 C 
ATOM      6  F   UNL     1       2.781   1.809  17.412  0.00  0.00    +0.000 F 
ATOM      7  C   UNL     1       2.199   2.368  19.628  0.00  0.00    +0.000 C 
ATOM      8  N   UNL     1       2.740   3.594  20.172  0.00  0.00    +0.000 N 
ATOM      9  C   UNL     1       1.948   4.751  20.189  0.00  0.00    +0.000 C 
ATOM     10  O   UNL     1       0.766   4.741  20.507  0.00  0.00    +0.000 OA
ATOM     11  N   UNL     1       2.678   5.784  19.633  0.00  0.00    +0.000 N 
ENDROOT
BRANCH  11  12
ATOM     12  C   UNL     1       2.177   7.100  19.446  0.00  0.00    +0.000 A 
ATOM     13  C   UNL     1       2.203   7.712  18.181  0.00  0.00    +0.000 A 
ATOM     14  C   UNL     1       1.717   9.010  17.967  0.00  0.00    +0.000 A 
ATOM     15  C   UNL     1       1.243   9.687  19.082  0.00  0.00    +0.000 A 
ATOM     16  O   UNL     1       0.756  10.958  19.090  0.00  0.00    +0.000 OA
ATOM     17  C   UNL     1       0.424  11.246  20.376  0.00  0.00    +0.000 A 
ATOM     18  C   UNL     1       0.687  10.171  21.195  0.00  0.00    +0.000 A 
ATOM     19  C   UNL     1       1.208   9.146  20.360  0.00  0.00    +0.000 A 
ATOM     20  C   UNL     1       1.663   7.824  20.542  0.00  0.00    +0.000 A 
ENDBRANCH  11  12
TORSDOF 1
ENDMDL
MODEL 7
REMARK VINA RESULT:      -7.4      4.268      6.698
REMARK  Name = 
REMARK  1 active torsions:
REMARK  status: ('A' for Active; 'I' for Inactive)
REMARK    1  A    between atoms: N_11  and  C_12
REMARK                            x       y       z     vdW  Elec       q    Type
REMARK                         _______ _______ _______ _____ _____    ______ ____
ROOT
ATOM      1  O   UNL     1       6.037   7.405  17.508  0.00  0.00    +0.000 OA
ATOM      2  C   UNL     1       5.430   6.342  17.513  0.00  0.00    +0.000 C 
ATOM      3  C   UNL     1       6.099   5.008  17.230  0.00  0.00    +0.000 C 
ATOM      4  C   UNL     1       6.929   4.881  15.972  0.00  0.00    +0.000 C 
ATOM      5  C   UNL     1       6.196   3.875  15.091  0.00  0.00    +0.000 C 
ATOM      6  F   UNL     1       5.817   4.511  13.948  0.00  0.00    +0.000 F 
ATOM      7  C   UNL     1       4.954   3.416  15.850  0.00  0.00    +0.000 C 
ATOM      8  N   UNL     1       4.969   4.140  17.103  0.00  0.00    +0.000 N 
ATOM      9  C   UNL     1       3.803   4.780  17.543  0.00  0.00    +0.000 C 
ATOM     10  O   UNL     1       2.695   4.264  17.473  0.00  0.00    +0.000 OA
ATOM     11  N   UNL     1       4.122   6.084  17.872  0.00  0.00    +0.000 N 
ENDROOT
BRANCH  11  12
ATOM     12  C   UNL     1       3.176   7.045  18.319  0.00  0.00    +0.000 A 
ATOM     13  C   UNL     1       2.751   8.088  17.478  0.00  0.00    +0.000 A 
ATOM     14  C   UNL     1       1.821   9.053  17.892  0.00  0.00    +0.000 A 
ATOM     15  C   UNL     1       1.365   8.953  19.200  0.00  0.00    +0.000 A 
ATOM     16  O   UNL     1       0.485   9.801  19.798  0.00  0.00    +0.000 OA
ATOM     17  C   UNL     1       0.325   9.367  21.076  0.00  0.00    +0.000 A 
ATOM     18  C   UNL     1       1.088   8.244  21.305  0.00  0.00    +0.000 A 
ATOM     19  C   UNL     1       1.759   7.959  20.085  0.00  0.00    +0.000 A 
ATOM     20  C   UNL     1       2.664   6.977  19.632  0.00  0.00    +0.000 A 
ENDBRANCH  11  12
TORSDOF 1
ENDMDL
MODEL 8
REMARK VINA RESULT:      -7.3      4.290      5.659
REMARK  Name = 
REMARK  1 active torsions:
REMARK  status: ('A' for Active; 'I' for Inactive)
REMARK    1  A    between atoms: N_11  and  C_12
REMARK                            x       y       z     vdW  Elec       q    Type
REMARK                         _______ _______ _______ _____ _____    ______ ____
ROOT
ATOM      1  O   UNL     1       1.008   4.698  17.329  0.00  0.00    +0.000 OA
ATOM      2  C   UNL     1       2.155   4.650  17.752  0.00  0.00    +0.000 C 
ATOM      3  C   UNL     1       3.130   3.548  17.372  0.00  0.00    +0.000 C 
ATOM      4  C   UNL     1       2.682   2.113  17.539  0.00  0.00    +0.000 C 
ATOM      5  C   UNL     1       3.571   1.524  18.629  0.00  0.00    +0.000 C 
ATOM      6  F   UNL     1       2.776   1.168  19.676  0.00  0.00    +0.000 F 
ATOM      7  C   UNL     1       4.538   2.618  19.076  0.00  0.00    +0.000 C 
ATOM      8  N   UNL     1       4.204   3.784  18.287  0.00  0.00    +0.000 N 
ATOM      9  C   UNL     1       4.048   5.024  18.921  0.00  0.00    +0.000 C 
ATOM     10  O   UNL     1       4.806   5.423  19.795  0.00  0.00    +0.000 OA
ATOM     11  N   UNL     1       2.846   5.571  18.514  0.00  0.00    +0.000 N 
ENDROOT
BRANCH  11  12
ATOM     12  C   UNL     1       2.336   6.810  18.987  0.00  0.00    +0.000 A 
ATOM     13  C   UNL     1       1.851   6.940  20.300  0.00  0.00    +0.000 A 
ATOM     14  C   UNL     1       1.340   8.148  20.794  0.00  0.00    +0.000 A 
ATOM     15  C   UNL     1       1.295   9.213  19.903  0.00  0.00    +0.000 A 
ATOM     16  O   UNL     1       0.813  10.455  20.178  0.00  0.00    +0.000 OA
ATOM     17  C   UNL     1       0.928  11.185  19.037  0.00  0.00    +0.000 A 
ATOM     18  C   UNL     1       1.485  10.426  18.032  0.00  0.00    +0.000 A 
ATOM     19  C   UNL     1       1.740   9.144  18.590  0.00  0.00    +0.000 A 
ATOM     20  C   UNL     1       2.288   7.929  18.130  0.00  0.00    +0.000 A 
ENDBRANCH  11  12
TORSDOF 1
ENDMDL
MODEL 9
REMARK VINA RESULT:      -7.2      4.819      6.077
REMARK  Name = 
REMARK  1 active torsions:
REMARK  status: ('A' for Active; 'I' for Inactive)
REMARK    1  A    between atoms: N_11  and  C_12
REMARK                            x       y       z     vdW  Elec       q    Type
REMARK                         _______ _______ _______ _____ _____    ______ ____
ROOT
ATOM      1  O   UNL     1       1.075   7.334  21.397  0.00  0.00    +0.000 OA
ATOM      2  C   UNL     1       1.410   7.970  20.407  0.00  0.00    +0.000 C 
ATOM      3  C   UNL     1       1.137   9.456  20.249  0.00  0.00    +0.000 C 
ATOM      4  C   UNL     1      -0.278   9.946  20.464  0.00  0.00    +0.000 C 
ATOM      5  C   UNL     1      -0.752  10.456  19.108  0.00  0.00    +0.000 C 
ATOM      6  F   UNL     1      -1.811   9.696  18.716  0.00  0.00    +0.000 F 
ATOM      7  C   UNL     1       0.397  10.271  18.119  0.00  0.00    +0.000 C 
ATOM      8  N   UNL     1       1.473   9.667  18.875  0.00  0.00    +0.000 N 
ATOM      9  C   UNL     1       2.140   8.551  18.353  0.00  0.00    +0.000 C 
ATOM     10  O   UNL     1       2.474   8.466  17.178  0.00  0.00    +0.000 OA
ATOM     11  N   UNL     1       2.171   7.570  19.326  0.00  0.00    +0.000 N 
ENDROOT
BRANCH  11  12
ATOM     12  C   UNL     1       2.734   6.279  19.137  0.00  0.00    +0.000 A 
ATOM     13  C   UNL     1       4.098   6.042  19.377  0.00  0.00    +0.000 A 
ATOM     14  C   UNL     1       4.682   4.779  19.196  0.00  0.00    +0.000 A 
ATOM     15  C   UNL     1       3.849   3.773  18.725  0.00  0.00    +0.000 A 
ATOM     16  O   UNL     1       4.226   2.492  18.461  0.00  0.00    +0.000 OA
ATOM     17  C   UNL     1       3.125   1.844  17.999  0.00  0.00    +0.000 A 
ATOM     18  C   UNL     1       2.041   2.692  17.969  0.00  0.00    +0.000 A 
ATOM     19  C   UNL     1       2.500   3.948  18.452  0.00  0.00    +0.000 A 
ATOM     20  C   UNL     1       1.927   5.216  18.681  0.00  0.00    +0.000 A 
ENDBRANCH  11  12
TORSDOF 1
ENDMDL
