MODEL 1
REMARK VINA RESULT:      -8.6      0.000      0.000
REMARK  Name = 
REMARK  7 active torsions:
REMARK  status: ('A' for Active; 'I' for Inactive)
REMARK    1  A    between atoms: C_1  and  C_2
REMARK    2  A    between atoms: C_4  and  C_5
REMARK    3  A    between atoms: N_11  and  C_12
REMARK    4  A    between atoms: C_12  and  C_13
REMARK    5  A    between atoms: N_15  and  C_16
REMARK    6  A    between atoms: C_18  and  C_19
REMARK    7  A    between atoms: N_23  and  C_24
REMARK                            x       y       z     vdW  Elec       q    Type
REMARK                         _______ _______ _______ _____ _____    ______ ____
ROOT
ATOM      1  C   UNL     1       3.964   4.376  17.162  0.00  0.00    +0.000 C 
ATOM      2  O   UNL     1       2.832   4.275  16.719  0.00  0.00    +0.000 OA
ATOM      3  N   UNL     1       4.243   5.413  18.119  0.00  0.00    +0.000 N 
ATOM      4  H   UNL     1       5.136   5.461  18.598  0.00  0.00    +0.000 HD
ENDROOT
BRANCH   3   5
ATOM      5  C   UNL     1       3.232   6.268  18.543  0.00  0.00    +0.000 A 
ATOM      6  C   UNL     1       3.096   7.589  18.185  0.00  0.00    +0.000 A 
ATOM      7  C   UNL     1       2.061   8.066  19.006  0.00  0.00    +0.000 A 
ATOM      8  N   UNL     1       1.562   7.124  19.807  0.00  0.00    +0.000 NA
ATOM      9  N   UNL     1       2.256   6.005  19.493  0.00  0.00    +0.000 N 
BRANCH   9  10
ATOM     10  C   UNL     1       1.957   4.759  20.110  0.00  0.00    +0.000 A 
ATOM     11  C   UNL     1       1.122   3.814  19.496  0.00  0.00    +0.000 A 
ATOM     12  C   UNL     1       0.893   2.580  20.106  0.00  0.00    +0.000 A 
ATOM     13  C   UNL     1       1.486   2.292  21.331  0.00  0.00    +0.000 A 
ATOM     14  C   UNL     1       2.287   3.241  21.964  0.00  0.00    +0.000 A 
ATOM     15  C   UNL     1       2.513   4.480  21.366  0.00  0.00    +0.000 A 
ENDBRANCH   9  10
BRANCH   7  16
ATOM     16  C   UNL     1       1.605   9.516  19.028  0.00  0.00    +0.000 C 
ATOM     17  C   UNL     1       1.858  10.395  17.818  0.00  0.00    +0.000 C 
ATOM     18  C   UNL     1       0.476   9.909  18.090  0.00  0.00    +0.000 C 
ENDBRANCH   7  16
ENDBRANCH   3   5
BRANCH   1  19
ATOM     19  C   UNL     1       5.118   3.460  16.882  0.00  0.00    +0.000 C 
BRANCH  19  24
ATOM     20  C   UNL     1       6.537   3.840  12.322  0.00  0.00    +0.000 C 
ATOM     21  C   UNL     1       6.454   4.086  13.775  0.00  0.00    +0.000 A 
ATOM     22  N   UNL     1       7.193   5.039  14.426  0.00  0.00    +0.000 NA
ATOM     23  C   UNL     1       6.823   4.938  15.695  0.00  0.00    +0.000 A 
ATOM     24  N   UNL     1       5.868   3.956  15.763  0.00  0.00    +0.000 N 
ATOM     25  N   UNL     1       5.639   3.384  14.566  0.00  0.00    +0.000 NA
BRANCH  23  26
ATOM     26  C   UNL     1       7.350   5.696  16.837  0.00  0.00    +0.000 A 
ATOM     27  C   UNL     1       7.653   5.081  18.044  0.00  0.00    +0.000 A 
ATOM     28  C   UNL     1       8.087   5.872  19.107  0.00  0.00    +0.000 A 
ATOM     29  C   UNL     1       8.194   7.248  18.938  0.00  0.00    +0.000 A 
ATOM     30  C   UNL     1       7.882   7.778  17.702  0.00  0.00    +0.000 A 
ATOM     31  N   UNL     1       7.483   7.033  16.646  0.00  0.00    +0.000 NA
ENDBRANCH  23  26
ENDBRANCH  19  24
ENDBRANCH   1  19
TORSDOF 6
ENDMDL
MODEL 2
REMARK VINA RESULT:      -8.4      1.732      3.485
REMARK  Name = 
REMARK  7 active torsions:
REMARK  status: ('A' for Active; 'I' for Inactive)
REMARK    1  A    between atoms: C_1  and  C_2
REMARK    2  A    between atoms: C_4  and  C_5
REMARK    3  A    between atoms: N_11  and  C_12
REMARK    4  A    between atoms: C_12  and  C_13
REMARK    5  A    between atoms: N_15  and  C_16
REMARK    6  A    between atoms: C_18  and  C_19
REMARK    7  A    between atoms: N_23  and  C_24
REMARK                            x       y       z     vdW  Elec       q    Type
REMARK                         _______ _______ _______ _____ _____    ______ ____
ROOT
ATOM      1  C   UNL     1       3.921   7.305  17.296  0.00  0.00    +0.000 C 
ATOM      2  O   UNL     1       3.723   8.499  17.453  0.00  0.00    +0.000 OA
ATOM      3  N   UNL     1       3.285   6.374  18.189  0.00  0.00    +0.000 N 
ATOM      4  H   UNL     1       3.328   5.374  18.026  0.00  0.00    +0.000 HD
ENDROOT
BRANCH   3   5
ATOM      5  C   UNL     1       2.443   6.831  19.196  0.00  0.00    +0.000 A 
ATOM      6  C   UNL     1       2.171   8.150  19.477  0.00  0.00    +0.000 A 
ATOM      7  C   UNL     1       1.441   8.106  20.676  0.00  0.00    +0.000 A 
ATOM      8  N   UNL     1       1.243   6.863  21.115  0.00  0.00    +0.000 NA
ATOM      9  N   UNL     1       1.825   6.074  20.181  0.00  0.00    +0.000 N 
BRANCH   9  10
ATOM     10  C   UNL     1       1.766   4.657  20.277  0.00  0.00    +0.000 A 
ATOM     11  C   UNL     1       1.241   3.869  19.241  0.00  0.00    +0.000 A 
ATOM     12  C   UNL     1       1.247   2.478  19.348  0.00  0.00    +0.000 A 
ATOM     13  C   UNL     1       1.764   1.872  20.488  0.00  0.00    +0.000 A 
ATOM     14  C   UNL     1       2.252   2.649  21.536  0.00  0.00    +0.000 A 
ATOM     15  C   UNL     1       2.242   4.040  21.442  0.00  0.00    +0.000 A 
ENDBRANCH   9  10
BRANCH   7  16
ATOM     16  C   UNL     1       0.984   9.345  21.430  0.00  0.00    +0.000 C 
ATOM     17  C   UNL     1       0.732  10.631  20.666  0.00  0.00    +0.000 C 
ATOM     18  C   UNL     1      -0.428   9.841  21.169  0.00  0.00    +0.000 C 
ENDBRANCH   7  16
ENDBRANCH   3   5
BRANCH   1  19
ATOM     19  C   UNL     1       4.708   6.667  16.190  0.00  0.00    +0.000 C 
BRANCH  19  24
ATOM     20  C   UNL     1       7.983   5.510  19.491  0.00  0.00    +0.000 C 
ATOM     21  C   UNL     1       7.288   5.583  18.190  0.00  0.00    +0.000 A 
ATOM     22  N   UNL     1       7.714   4.926  17.066  0.00  0.00    +0.000 NA
ATOM     23  C   UNL     1       6.825   5.248  16.136  0.00  0.00    +0.000 A 
ATOM     24  N   UNL     1       5.892   6.059  16.729  0.00  0.00    +0.000 N 
ATOM     25  N   UNL     1       6.180   6.307  18.021  0.00  0.00    +0.000 NA
BRANCH  23  26
ATOM     26  C   UNL     1       6.838   4.854  14.721  0.00  0.00    +0.000 A 
ATOM     27  C   UNL     1       6.008   3.852  14.236  0.00  0.00    +0.000 A 
ATOM     28  C   UNL     1       6.119   3.484  12.895  0.00  0.00    +0.000 A 
ATOM     29  C   UNL     1       7.057   4.114  12.086  0.00  0.00    +0.000 A 
ATOM     30  C   UNL     1       7.837   5.106  12.646  0.00  0.00    +0.000 A 
ATOM     31  N   UNL     1       7.735   5.502  13.936  0.00  0.00    +0.000 NA
ENDBRANCH  23  26
ENDBRANCH  19  24
ENDBRANCH   1  19
TORSDOF 6
ENDMDL
MODEL 3
REMARK VINA RESULT:      -8.4      2.972      7.882
REMARK  Name = 
REMARK  7 active torsions:
REMARK  status: ('A' for Active; 'I' for Inactive)
REMARK    1  A    between atoms: C_1  and  C_2
REMARK    2  A    between atoms: C_4  and  C_5
REMARK    3  A    between atoms: N_11  and  C_12
REMARK    4  A    between atoms: C_12  and  C_13
REMARK    5  A    between atoms: N_15  and  C_16
REMARK    6  A    between atoms: C_18  and  C_19
REMARK    7  A    between atoms: N_23  and  C_24
REMARK                            x       y       z     vdW  Elec       q    Type
REMARK                         _______ _______ _______ _____ _____    ______ ____
ROOT
ATOM      1  C   UNL     1       1.642   8.961  18.613  0.00  0.00    +0.000 C 
ATOM      2  O   UNL     1       1.923   9.244  17.459  0.00  0.00    +0.000 OA
ATOM      3  N   UNL     1       2.188   7.759  19.183  0.00  0.00    +0.000 N 
ATOM      4  H   UNL     1       2.077   7.546  20.169  0.00  0.00    +0.000 HD
ENDROOT
BRANCH   3   5
ATOM      5  C   UNL     1       3.037   6.950  18.437  0.00  0.00    +0.000 A 
ATOM      6  C   UNL     1       3.921   7.385  17.476  0.00  0.00    +0.000 A 
ATOM      7  C   UNL     1       4.396   6.205  16.882  0.00  0.00    +0.000 A 
ATOM      8  N   UNL     1       3.877   5.106  17.430  0.00  0.00    +0.000 NA
ATOM      9  N   UNL     1       3.070   5.563  18.416  0.00  0.00    +0.000 N 
BRANCH   9  10
ATOM     10  C   UNL     1       2.379   4.665  19.275  0.00  0.00    +0.000 A 
ATOM     11  C   UNL     1       1.385   3.800  18.791  0.00  0.00    +0.000 A 
ATOM     12  C   UNL     1       0.764   2.896  19.653  0.00  0.00    +0.000 A 
ATOM     13  C   UNL     1       1.124   2.859  20.996  0.00  0.00    +0.000 A 
ATOM     14  C   UNL     1       2.083   3.740  21.490  0.00  0.00    +0.000 A 
ATOM     15  C   UNL     1       2.701   4.654  20.638  0.00  0.00    +0.000 A 
ENDBRANCH   9  10
BRANCH   7  16
ATOM     16  C   UNL     1       5.347   6.184  15.696  0.00  0.00    +0.000 C 
ATOM     17  C   UNL     1       6.675   5.461  15.820  0.00  0.00    +0.000 C 
ATOM     18  C   UNL     1       5.583   4.847  15.013  0.00  0.00    +0.000 C 
ENDBRANCH   7  16
ENDBRANCH   3   5
BRANCH   1  19
ATOM     19  C   UNL     1       0.837   9.792  19.566  0.00  0.00    +0.000 C 
BRANCH  19  24
ATOM     20  C   UNL     1       2.396  14.225  18.630  0.00  0.00    +0.000 C 
ATOM     21  C   UNL     1       1.495  13.058  18.710  0.00  0.00    +0.000 A 
ATOM     22  N   UNL     1       0.215  13.054  18.221  0.00  0.00    +0.000 NA
ATOM     23  C   UNL     1      -0.238  11.836  18.485  0.00  0.00    +0.000 A 
ATOM     24  N   UNL     1       0.779  11.148  19.096  0.00  0.00    +0.000 N 
ATOM     25  N   UNL     1       1.875  11.909  19.273  0.00  0.00    +0.000 NA
BRANCH  23  26
ATOM     26  C   UNL     1      -1.584  11.312  18.219  0.00  0.00    +0.000 A 
ATOM     27  C   UNL     1      -1.794  10.246  17.354  0.00  0.00    +0.000 A 
ATOM     28  C   UNL     1      -3.103   9.842  17.097  0.00  0.00    +0.000 A 
ATOM     29  C   UNL     1      -4.160  10.518  17.697  0.00  0.00    +0.000 A 
ATOM     30  C   UNL     1      -3.863  11.562  18.551  0.00  0.00    +0.000 A 
ATOM     31  N   UNL     1      -2.603  11.959  18.840  0.00  0.00    +0.000 NA
ENDBRANCH  23  26
ENDBRANCH  19  24
ENDBRANCH   1  19
TORSDOF 6
ENDMDL
MODEL 4
REMARK VINA RESULT:      -8.3      0.569      1.321
REMARK  Name = 
REMARK  7 active torsions:
REMARK  status: ('A' for Active; 'I' for Inactive)
REMARK    1  A    between atoms: C_1  and  C_2
REMARK    2  A    between atoms: C_4  and  C_5
REMARK    3  A    between atoms: N_11  and  C_12
REMARK    4  A    between atoms: C_12  and  C_13
REMARK    5  A    between atoms: N_15  and  C_16
REMARK    6  A    between atoms: C_18  and  C_19
REMARK    7  A    between atoms: N_23  and  C_24
REMARK                            x       y       z     vdW  Elec       q    Type
REMARK                         _______ _______ _______ _____ _____    ______ ____
ROOT
ATOM      1  C   UNL     1       4.011   4.417  17.153  0.00  0.00    +0.000 C 
ATOM      2  O   UNL     1       2.868   4.228  16.772  0.00  0.00    +0.000 OA
ATOM      3  N   UNL     1       4.281   5.546  18.002  0.00  0.00    +0.000 N 
ATOM      4  H   UNL     1       5.190   5.676  18.434  0.00  0.00    +0.000 HD
ENDROOT
BRANCH   3   5
ATOM      5  C   UNL     1       3.250   6.391  18.396  0.00  0.00    +0.000 A 
ATOM      6  C   UNL     1       3.078   7.693  17.986  0.00  0.00    +0.000 A 
ATOM      7  C   UNL     1       2.034   8.175  18.791  0.00  0.00    +0.000 A 
ATOM      8  N   UNL     1       1.562   7.253  19.631  0.00  0.00    +0.000 NA
ATOM      9  N   UNL     1       2.283   6.141  19.359  0.00  0.00    +0.000 N 
BRANCH   9  10
ATOM     10  C   UNL     1       2.019   4.913  20.026  0.00  0.00    +0.000 A 
ATOM     11  C   UNL     1       2.670   4.568  21.221  0.00  0.00    +0.000 A 
ATOM     12  C   UNL     1       2.348   3.379  21.876  0.00  0.00    +0.000 A 
ATOM     13  C   UNL     1       1.386   2.530  21.337  0.00  0.00    +0.000 A 
ATOM     14  C   UNL     1       0.763   2.848  20.132  0.00  0.00    +0.000 A 
ATOM     15  C   UNL     1       1.087   4.030  19.467  0.00  0.00    +0.000 A 
ENDBRANCH   9  10
BRANCH   7  16
ATOM     16  C   UNL     1       1.540   9.613  18.758  0.00  0.00    +0.000 C 
ATOM     17  C   UNL     1       0.217   9.930  18.088  0.00  0.00    +0.000 C 
ATOM     18  C   UNL     1       0.304   9.946  19.576  0.00  0.00    +0.000 C 
ENDBRANCH   7  16
ENDBRANCH   3   5
BRANCH   1  19
ATOM     19  C   UNL     1       5.195   3.531  16.901  0.00  0.00    +0.000 C 
BRANCH  19  24
ATOM     20  C   UNL     1       6.736   3.861  12.377  0.00  0.00    +0.000 C 
ATOM     21  C   UNL     1       6.592   4.144  13.819  0.00  0.00    +0.000 A 
ATOM     22  N   UNL     1       7.254   5.157  14.462  0.00  0.00    +0.000 NA
ATOM     23  C   UNL     1       6.849   5.071  15.722  0.00  0.00    +0.000 A 
ATOM     24  N   UNL     1       5.951   4.037  15.791  0.00  0.00    +0.000 N 
ATOM     25  N   UNL     1       5.794   3.419  14.605  0.00  0.00    +0.000 NA
BRANCH  23  26
ATOM     26  C   UNL     1       7.294   5.892  16.856  0.00  0.00    +0.000 A 
ATOM     27  C   UNL     1       7.460   7.266  16.741  0.00  0.00    +0.000 A 
ATOM     28  C   UNL     1       7.947   7.974  17.838  0.00  0.00    +0.000 A 
ATOM     29  C   UNL     1       8.265   7.293  19.008  0.00  0.00    +0.000 A 
ATOM     30  C   UNL     1       8.061   5.927  19.041  0.00  0.00    +0.000 A 
ATOM     31  N   UNL     1       7.566   5.218  18.002  0.00  0.00    +0.000 NA
ENDBRANCH  23  26
ENDBRANCH  19  24
ENDBRANCH   1  19
TORSDOF 6
ENDMDL
MODEL 5
REMARK VINA RESULT:      -8.3      1.032      3.045
REMARK  Name = 
REMARK  7 active torsions:
REMARK  status: ('A' for Active; 'I' for Inactive)
REMARK    1  A    between atoms: C_1  and  C_2
REMARK    2  A    between atoms: C_4  and  C_5
REMARK    3  A    between atoms: N_11  and  C_12
REMARK    4  A    between atoms: C_12  and  C_13
REMARK    5  A    between atoms: N_15  and  C_16
REMARK    6  A    between atoms: C_18  and  C_19
REMARK    7  A    between atoms: N_23  and  C_24
REMARK                            x       y       z     vdW  Elec       q    Type
REMARK                         _______ _______ _______ _____ _____    ______ ____
ROOT
ATOM      1  C   UNL     1       3.491   4.515  17.326  0.00  0.00    +0.000 C 
ATOM      2  O   UNL     1       2.303   4.300  17.150  0.00  0.00    +0.000 OA
ATOM      3  N   UNL     1       3.879   5.666  18.098  0.00  0.00    +0.000 N 
ATOM      4  H   UNL     1       4.845   5.818  18.366  0.00  0.00    +0.000 HD
ENDROOT
BRANCH   3   5
ATOM      5  C   UNL     1       2.913   6.500  18.648  0.00  0.00    +0.000 A 
ATOM      6  C   UNL     1       2.728   7.827  18.335  0.00  0.00    +0.000 A 
ATOM      7  C   UNL     1       1.785   8.276  19.274  0.00  0.00    +0.000 A 
ATOM      8  N   UNL     1       1.383   7.313  20.104  0.00  0.00    +0.000 NA
ATOM      9  N   UNL     1       2.048   6.208  19.692  0.00  0.00    +0.000 N 
BRANCH   9  10
ATOM     10  C   UNL     1       1.828   4.946  20.310  0.00  0.00    +0.000 A 
ATOM     11  C   UNL     1       0.809   4.082  19.882  0.00  0.00    +0.000 A 
ATOM     12  C   UNL     1       0.656   2.830  20.477  0.00  0.00    +0.000 A 
ATOM     13  C   UNL     1       1.510   2.442  21.505  0.00  0.00    +0.000 A 
ATOM     14  C   UNL     1       2.500   3.310  21.960  0.00  0.00    +0.000 A 
ATOM     15  C   UNL     1       2.654   4.567  21.378  0.00  0.00    +0.000 A 
ENDBRANCH   9  10
BRANCH   7  16
ATOM     16  C   UNL     1       1.322   9.721  19.378  0.00  0.00    +0.000 C 
ATOM     17  C   UNL     1       1.543  10.659  18.207  0.00  0.00    +0.000 C 
ATOM     18  C   UNL     1       0.170  10.151  18.485  0.00  0.00    +0.000 C 
ENDBRANCH   7  16
ENDBRANCH   3   5
BRANCH   1  19
ATOM     19  C   UNL     1       4.631   3.644  16.892  0.00  0.00    +0.000 C 
BRANCH  19  24
ATOM     20  C   UNL     1       8.076   5.607  19.582  0.00  0.00    +0.000 C 
ATOM     21  C   UNL     1       7.343   5.138  18.388  0.00  0.00    +0.000 A 
ATOM     22  N   UNL     1       7.836   5.229  17.113  0.00  0.00    +0.000 NA
ATOM     23  C   UNL     1       6.887   4.702  16.351  0.00  0.00    +0.000 A 
ATOM     24  N   UNL     1       5.876   4.296  17.185  0.00  0.00    +0.000 N 
ATOM     25  N   UNL     1       6.131   4.587  18.474  0.00  0.00    +0.000 NA
BRANCH  23  26
ATOM     26  C   UNL     1       6.879   4.598  14.887  0.00  0.00    +0.000 A 
ATOM     27  C   UNL     1       6.068   3.686  14.225  0.00  0.00    +0.000 A 
ATOM     28  C   UNL     1       6.160   3.595  12.837  0.00  0.00    +0.000 A 
ATOM     29  C   UNL     1       7.062   4.403  12.154  0.00  0.00    +0.000 A 
ATOM     30  C   UNL     1       7.825   5.289  12.888  0.00  0.00    +0.000 A 
ATOM     31  N   UNL     1       7.740   5.418  14.232  0.00  0.00    +0.000 NA
ENDBRANCH  23  26
ENDBRANCH  19  24
ENDBRANCH   1  19
TORSDOF 6
ENDMDL
MODEL 6
REMARK VINA RESULT:      -8.1      2.912      7.226
REMARK  Name = 
REMARK  7 active torsions:
REMARK  status: ('A' for Active; 'I' for Inactive)
REMARK    1  A    between atoms: C_1  and  C_2
REMARK    2  A    between atoms: C_4  and  C_5
REMARK    3  A    between atoms: N_11  and  C_12
REMARK    4  A    between atoms: C_12  and  C_13
REMARK    5  A    between atoms: N_15  and  C_16
REMARK    6  A    between atoms: C_18  and  C_19
REMARK    7  A    between atoms: N_23  and  C_24
REMARK                            x       y       z     vdW  Elec       q    Type
REMARK                         _______ _______ _______ _____ _____    ______ ____
ROOT
ATOM      1  C   UNL     1       1.664   8.931  18.659  0.00  0.00    +0.000 C 
ATOM      2  O   UNL     1       1.907   9.212  17.497  0.00  0.00    +0.000 OA
ATOM      3  N   UNL     1       2.237   7.735  19.216  0.00  0.00    +0.000 N 
ATOM      4  H   UNL     1       2.157   7.524  20.206  0.00  0.00    +0.000 HD
ENDROOT
BRANCH   3   5
ATOM      5  C   UNL     1       3.068   6.930  18.446  0.00  0.00    +0.000 A 
ATOM      6  C   UNL     1       3.951   7.373  17.489  0.00  0.00    +0.000 A 
ATOM      7  C   UNL     1       4.405   6.199  16.866  0.00  0.00    +0.000 A 
ATOM      8  N   UNL     1       3.875   5.096  17.394  0.00  0.00    +0.000 NA
ATOM      9  N   UNL     1       3.082   5.544  18.396  0.00  0.00    +0.000 N 
BRANCH   9  10
ATOM     10  C   UNL     1       2.384   4.637  19.241  0.00  0.00    +0.000 A 
ATOM     11  C   UNL     1       1.419   3.753  18.736  0.00  0.00    +0.000 A 
ATOM     12  C   UNL     1       0.792   2.842  19.585  0.00  0.00    +0.000 A 
ATOM     13  C   UNL     1       1.117   2.817  20.938  0.00  0.00    +0.000 A 
ATOM     14  C   UNL     1       2.047   3.718  21.453  0.00  0.00    +0.000 A 
ATOM     15  C   UNL     1       2.671   4.638  20.613  0.00  0.00    +0.000 A 
ENDBRANCH   9  10
BRANCH   7  16
ATOM     16  C   UNL     1       5.348   6.190  15.673  0.00  0.00    +0.000 C 
ATOM     17  C   UNL     1       6.621   5.368  15.736  0.00  0.00    +0.000 C 
ATOM     18  C   UNL     1       5.484   4.889  14.900  0.00  0.00    +0.000 C 
ENDBRANCH   7  16
ENDBRANCH   3   5
BRANCH   1  19
ATOM     19  C   UNL     1       0.882   9.759  19.635  0.00  0.00    +0.000 C 
BRANCH  19  24
ATOM     20  C   UNL     1      -3.013  11.078  17.176  0.00  0.00    +0.000 C 
ATOM     21  C   UNL     1      -1.707  11.164  17.859  0.00  0.00    +0.000 A 
ATOM     22  N   UNL     1      -0.995  12.328  17.987  0.00  0.00    +0.000 NA
ATOM     23  C   UNL     1       0.097  11.978  18.654  0.00  0.00    +0.000 A 
ATOM     24  N   UNL     1      -0.004  10.637  18.923  0.00  0.00    +0.000 N 
ATOM     25  N   UNL     1      -1.123  10.096  18.404  0.00  0.00    +0.000 NA
BRANCH  23  26
ATOM     26  C   UNL     1       1.231  12.838  19.016  0.00  0.00    +0.000 A 
ATOM     27  C   UNL     1       2.237  13.138  18.108  0.00  0.00    +0.000 A 
ATOM     28  C   UNL     1       3.318  13.907  18.539  0.00  0.00    +0.000 A 
ATOM     29  C   UNL     1       3.368  14.342  19.858  0.00  0.00    +0.000 A 
ATOM     30  C   UNL     1       2.320  14.007  20.693  0.00  0.00    +0.000 A 
ATOM     31  N   UNL     1       1.247  13.284  20.298  0.00  0.00    +0.000 NA
ENDBRANCH  23  26
ENDBRANCH  19  24
ENDBRANCH   1  19
TORSDOF 6
ENDMDL
MODEL 7
REMARK VINA RESULT:      -8.1      1.926      3.720
REMARK  Name = 
REMARK  7 active torsions:
REMARK  status: ('A' for Active; 'I' for Inactive)
REMARK    1  A    between atoms: C_1  and  C_2
REMARK    2  A    between atoms: C_4  and  C_5
REMARK    3  A    between atoms: N_11  and  C_12
REMARK    4  A    between atoms: C_12  and  C_13
REMARK    5  A    between atoms: N_15  and  C_16
REMARK    6  A    between atoms: C_18  and  C_19
REMARK    7  A    between atoms: N_23  and  C_24
REMARK                            x       y       z     vdW  Elec       q    Type
REMARK                         _______ _______ _______ _____ _____    ______ ____
ROOT
ATOM      1  C   UNL     1       3.863   7.395  16.989  0.00  0.00    +0.000 C 
ATOM      2  O   UNL     1       3.047   8.301  16.938  0.00  0.00    +0.000 OA
ATOM      3  N   UNL     1       3.818   6.484  18.101  0.00  0.00    +0.000 N 
ATOM      4  H   UNL     1       4.399   5.652  18.125  0.00  0.00    +0.000 HD
ENDROOT
BRANCH   3   5
ATOM      5  C   UNL     1       2.846   6.625  19.085  0.00  0.00    +0.000 A 
ATOM      6  C   UNL     1       2.465   7.809  19.671  0.00  0.00    +0.000 A 
ATOM      7  C   UNL     1       1.614   7.420  20.719  0.00  0.00    +0.000 A 
ATOM      8  N   UNL     1       1.447   6.098  20.783  0.00  0.00    +0.000 NA
ATOM      9  N   UNL     1       2.173   5.611  19.751  0.00  0.00    +0.000 N 
BRANCH   9  10
ATOM     10  C   UNL     1       2.191   4.219  19.458  0.00  0.00    +0.000 A 
ATOM     11  C   UNL     1       3.360   3.453  19.588  0.00  0.00    +0.000 A 
ATOM     12  C   UNL     1       3.328   2.080  19.343  0.00  0.00    +0.000 A 
ATOM     13  C   UNL     1       2.137   1.472  18.959  0.00  0.00    +0.000 A 
ATOM     14  C   UNL     1       0.982   2.233  18.791  0.00  0.00    +0.000 A 
ATOM     15  C   UNL     1       1.008   3.607  19.025  0.00  0.00    +0.000 A 
ENDBRANCH   9  10
BRANCH   7  16
ATOM     16  C   UNL     1       1.003   8.393  21.714  0.00  0.00    +0.000 C 
ATOM     17  C   UNL     1       0.798   9.841  21.309  0.00  0.00    +0.000 C 
ATOM     18  C   UNL     1      -0.382   8.934  21.403  0.00  0.00    +0.000 C 
ENDBRANCH   7  16
ENDBRANCH   3   5
BRANCH   1  19
ATOM     19  C   UNL     1       4.889   7.056  15.949  0.00  0.00    +0.000 C 
BRANCH  19  24
ATOM     20  C   UNL     1       7.918   5.700  19.404  0.00  0.00    +0.000 C 
ATOM     21  C   UNL     1       7.266   5.781  18.082  0.00  0.00    +0.000 A 
ATOM     22  N   UNL     1       7.630   5.008  17.010  0.00  0.00    +0.000 NA
ATOM     23  C   UNL     1       6.809   5.382  16.037  0.00  0.00    +0.000 A 
ATOM     24  N   UNL     1       5.973   6.338  16.555  0.00  0.00    +0.000 N 
ATOM     25  N   UNL     1       6.263   6.626  17.838  0.00  0.00    +0.000 NA
BRANCH  23  26
ATOM     26  C   UNL     1       6.802   4.904  14.649  0.00  0.00    +0.000 A 
ATOM     27  C   UNL     1       5.936   3.905  14.226  0.00  0.00    +0.000 A 
ATOM     28  C   UNL     1       6.028   3.454  12.910  0.00  0.00    +0.000 A 
ATOM     29  C   UNL     1       6.985   4.001  12.062  0.00  0.00    +0.000 A 
ATOM     30  C   UNL     1       7.801   4.997  12.560  0.00  0.00    +0.000 A 
ATOM     31  N   UNL     1       7.718   5.473  13.824  0.00  0.00    +0.000 NA
ENDBRANCH  23  26
ENDBRANCH  19  24
ENDBRANCH   1  19
TORSDOF 6
ENDMDL
MODEL 8
REMARK VINA RESULT:      -8.0      2.872      7.464
REMARK  Name = 
REMARK  7 active torsions:
REMARK  status: ('A' for Active; 'I' for Inactive)
REMARK    1  A    between atoms: C_1  and  C_2
REMARK    2  A    between atoms: C_4  and  C_5
REMARK    3  A    between atoms: N_11  and  C_12
REMARK    4  A    between atoms: C_12  and  C_13
REMARK    5  A    between atoms: N_15  and  C_16
REMARK    6  A    between atoms: C_18  and  C_19
REMARK    7  A    between atoms: N_23  and  C_24
REMARK                            x       y       z     vdW  Elec       q    Type
REMARK                         _______ _______ _______ _____ _____    ______ ____
ROOT
ATOM      1  C   UNL     1       1.621   9.310  18.005  0.00  0.00    +0.000 C 
ATOM      2  O   UNL     1       2.550   9.848  17.427  0.00  0.00    +0.000 OA
ATOM      3  N   UNL     1       1.767   7.944  18.431  0.00  0.00    +0.000 N 
ATOM      4  H   UNL     1       1.068   7.496  19.014  0.00  0.00    +0.000 HD
ENDROOT
BRANCH   3   5
ATOM      5  C   UNL     1       2.957   7.262  18.203  0.00  0.00    +0.000 A 
ATOM      6  C   UNL     1       4.113   7.811  17.700  0.00  0.00    +0.000 A 
ATOM      7  C   UNL     1       4.952   6.708  17.474  0.00  0.00    +0.000 A 
ATOM      8  N   UNL     1       4.388   5.551  17.824  0.00  0.00    +0.000 NA
ATOM      9  N   UNL     1       3.173   5.896  18.312  0.00  0.00    +0.000 N 
BRANCH   9  10
ATOM     10  C   UNL     1       2.292   4.916  18.846  0.00  0.00    +0.000 A 
ATOM     11  C   UNL     1       1.674   3.957  18.030  0.00  0.00    +0.000 A 
ATOM     12  C   UNL     1       0.856   2.978  18.596  0.00  0.00    +0.000 A 
ATOM     13  C   UNL     1       0.646   2.961  19.971  0.00  0.00    +0.000 A 
ATOM     14  C   UNL     1       1.226   3.933  20.783  0.00  0.00    +0.000 A 
ATOM     15  C   UNL     1       2.037   4.920  20.224  0.00  0.00    +0.000 A 
ENDBRANCH   9  10
BRANCH   7  16
ATOM     16  C   UNL     1       6.328   6.813  16.836  0.00  0.00    +0.000 C 
ATOM     17  C   UNL     1       7.330   7.809  17.388  0.00  0.00    +0.000 C 
ATOM     18  C   UNL     1       7.518   6.356  17.663  0.00  0.00    +0.000 C 
ENDBRANCH   7  16
ENDBRANCH   3   5
BRANCH   1  19
ATOM     19  C   UNL     1       0.330   9.955  18.416  0.00  0.00    +0.000 C 
BRANCH  19  24
ATOM     20  C   UNL     1      -0.049   9.326  23.150  0.00  0.00    +0.000 C 
ATOM     21  C   UNL     1       0.204   9.983  21.852  0.00  0.00    +0.000 A 
ATOM     22  N   UNL     1       0.656  11.271  21.731  0.00  0.00    +0.000 NA
ATOM     23  C   UNL     1       0.753  11.468  20.424  0.00  0.00    +0.000 A 
ATOM     24  N   UNL     1       0.384  10.299  19.808  0.00  0.00    +0.000 N 
ATOM     25  N   UNL     1       0.005   9.356  20.692  0.00  0.00    +0.000 NA
BRANCH  23  26
ATOM     26  C   UNL     1       1.143  12.707  19.738  0.00  0.00    +0.000 A 
ATOM     27  C   UNL     1       0.261  13.768  19.591  0.00  0.00    +0.000 A 
ATOM     28  C   UNL     1       0.677  14.888  18.873  0.00  0.00    +0.000 A 
ATOM     29  C   UNL     1       1.950  14.911  18.314  0.00  0.00    +0.000 A 
ATOM     30  C   UNL     1       2.768  13.817  18.515  0.00  0.00    +0.000 A 
ATOM     31  N   UNL     1       2.401  12.728  19.229  0.00  0.00    +0.000 NA
ENDBRANCH  23  26
ENDBRANCH  19  24
ENDBRANCH   1  19
TORSDOF 6
ENDMDL
MODEL 9
REMARK VINA RESULT:      -8.0      2.914      7.915
REMARK  Name = 
REMARK  7 active torsions:
REMARK  status: ('A' for Active; 'I' for Inactive)
REMARK    1  A    between atoms: C_1  and  C_2
REMARK    2  A    between atoms: C_4  and  C_5
REMARK    3  A    between atoms: N_11  and  C_12
REMARK    4  A    between atoms: C_12  and  C_13
REMARK    5  A    between atoms: N_15  and  C_16
REMARK    6  A    between atoms: C_18  and  C_19
REMARK    7  A    between atoms: N_23  and  C_24
REMARK                            x       y       z     vdW  Elec       q    Type
REMARK                         _______ _______ _______ _____ _____    ______ ____
ROOT
ATOM      1  C   UNL     1       1.537   8.859  18.573  0.00  0.00    +0.000 C 
ATOM      2  O   UNL     1       1.732   9.079  17.388  0.00  0.00    +0.000 OA
ATOM      3  N   UNL     1       2.208   7.747  19.190  0.00  0.00    +0.000 N 
ATOM      4  H   UNL     1       2.166   7.597  20.193  0.00  0.00    +0.000 HD
ENDROOT
BRANCH   3   5
ATOM      5  C   UNL     1       3.078   6.953  18.452  0.00  0.00    +0.000 A 
ATOM      6  C   UNL     1       3.958   7.404  17.495  0.00  0.00    +0.000 A 
ATOM      7  C   UNL     1       4.462   6.232  16.908  0.00  0.00    +0.000 A 
ATOM      8  N   UNL     1       3.963   5.124  17.456  0.00  0.00    +0.000 NA
ATOM      9  N   UNL     1       3.141   5.567  18.436  0.00  0.00    +0.000 N 
BRANCH   9  10
ATOM     10  C   UNL     1       2.463   4.658  19.293  0.00  0.00    +0.000 A 
ATOM     11  C   UNL     1       2.749   4.585  20.665  0.00  0.00    +0.000 A 
ATOM     12  C   UNL     1       2.028   3.718  21.485  0.00  0.00    +0.000 A 
ATOM     13  C   UNL     1       1.030   2.915  20.940  0.00  0.00    +0.000 A 
ATOM     14  C   UNL     1       0.768   2.955  19.572  0.00  0.00    +0.000 A 
ATOM     15  C   UNL     1       1.490   3.812  18.743  0.00  0.00    +0.000 A 
ENDBRANCH   9  10
BRANCH   7  16
ATOM     16  C   UNL     1       5.421   6.227  15.728  0.00  0.00    +0.000 C 
ATOM     17  C   UNL     1       6.628   5.308  15.753  0.00  0.00    +0.000 C 
ATOM     18  C   UNL     1       5.472   4.972  14.874  0.00  0.00    +0.000 C 
ENDBRANCH   7  16
ENDBRANCH   3   5
BRANCH   1  19
ATOM     19  C   UNL     1       0.719   9.693  19.513  0.00  0.00    +0.000 C 
BRANCH  19  24
ATOM     20  C   UNL     1       2.559  14.051  18.758  0.00  0.00    +0.000 C 
ATOM     21  C   UNL     1       1.587  12.940  18.787  0.00  0.00    +0.000 A 
ATOM     22  N   UNL     1       0.314  13.035  18.288  0.00  0.00    +0.000 NA
ATOM     23  C   UNL     1      -0.217  11.838  18.503  0.00  0.00    +0.000 A 
ATOM     24  N   UNL     1       0.750  11.065  19.094  0.00  0.00    +0.000 N 
ATOM     25  N   UNL     1       1.889  11.750  19.309  0.00  0.00    +0.000 NA
BRANCH  23  26
ATOM     26  C   UNL     1      -1.590  11.410  18.207  0.00  0.00    +0.000 A 
ATOM     27  C   UNL     1      -2.684  11.972  18.850  0.00  0.00    +0.000 A 
ATOM     28  C   UNL     1      -3.954  11.471  18.568  0.00  0.00    +0.000 A 
ATOM     29  C   UNL     1      -4.093  10.422  17.667  0.00  0.00    +0.000 A 
ATOM     30  C   UNL     1      -2.954   9.926  17.064  0.00  0.00    +0.000 A 
ATOM     31  N   UNL     1      -1.712  10.409  17.299  0.00  0.00    +0.000 NA
ENDBRANCH  23  26
ENDBRANCH  19  24
ENDBRANCH   1  19
TORSDOF 6
ENDMDL
