MODEL 1
REMARK VINA RESULT:      -7.9      0.000      0.000
REMARK  Name = 
REMARK  7 active torsions:
REMARK  status: ('A' for Active; 'I' for Inactive)
REMARK    1  A    between atoms: C_1  and  C_2
REMARK    2  A    between atoms: C_2  and  C_3
REMARK    3  A    between atoms: C_3  and  C_4
REMARK    4  A    between atoms: C_3  and  N_7
REMARK    5  A    between atoms: C_4  and  C_5
REMARK    6  A    between atoms: C_8  and  C_10
REMARK    7  A    between atoms: C_13  and  N_14
REMARK                            x       y       z     vdW  Elec       q    Type
REMARK                         _______ _______ _______ _____ _____    ______ ____
ROOT
ATOM      1  C   UNL     1       2.727   7.734  18.232  0.00  0.00    +0.000 A 
ATOM      2  C   UNL     1       2.181   8.896  17.666  0.00  0.00    +0.000 A 
ATOM      3  C   UNL     1       1.281   9.734  18.403  0.00  0.00    +0.000 A 
ATOM      4  C   UNL     1       0.902   9.444  19.722  0.00  0.00    +0.000 A 
ATOM      5  C   UNL     1       1.455   8.292  20.291  0.00  0.00    +0.000 A 
ATOM      6  C   UNL     1       2.336   7.455  19.558  0.00  0.00    +0.000 A 
ENDROOT
BRANCH   4   7
ATOM      7  N   UNL     1       0.026  10.250  20.516  0.00  0.00    +0.000 N 
ATOM      8  C   UNL     1       0.344  11.426  21.168  0.00  0.00    +0.000 C 
ATOM      9  O   UNL     1       1.431  11.999  21.066  0.00  0.00    +0.000 OA
ATOM     10  N   UNL     1      -0.658  11.984  21.940  0.00  0.00    +0.000 N 
ATOM     11  C   UNL     1      -0.466  13.305  22.560  0.00  0.00    +0.000 C 
ATOM     12  C   UNL     1      -1.701  13.522  23.376  0.00  0.00    +0.000 A 
ATOM     13  C   UNL     1      -2.116  14.619  24.113  0.00  0.00    +0.000 A 
ATOM     14  C   UNL     1      -3.323  14.527  24.801  0.00  0.00    +0.000 A 
ATOM     15  C   UNL     1      -4.052  13.340  24.718  0.00  0.00    +0.000 A 
ATOM     16  N   UNL     1      -3.671  12.256  23.998  0.00  0.00    +0.000 NA
ATOM     17  C   UNL     1      -2.499  12.384  23.346  0.00  0.00    +0.000 A 
ATOM     18  C   UNL     1      -1.856  11.324  22.481  0.00  0.00    +0.000 C 
ATOM     19  H   UNL     1      -0.959  10.094  20.378  0.00  0.00    +0.000 HD
ENDBRANCH   4   7
BRANCH   1  21
ATOM     20  N   UNL     1       3.907   5.485  18.064  0.00  0.00    +0.000 N 
ATOM     21  C   UNL     1       3.726   6.766  17.570  0.00  0.00    +0.000 C 
ATOM     22  O   UNL     1       4.362   7.129  16.593  0.00  0.00    +0.000 OA
ATOM     23  H   UNL     1       3.491   5.286  18.961  0.00  0.00    +0.000 HD
BRANCH  20  24
ATOM     24  C   UNL     1       4.881   4.396  17.508  0.00  0.00    +0.000 C 
BRANCH  24  26
ATOM     25  C   UNL     1       2.674   2.958  17.450  0.00  0.00    +0.000 C 
ATOM     26  C   UNL     1       4.159   3.012  17.797  0.00  0.00    +0.000 C 
ENDBRANCH  24  26
BRANCH  24  27
ATOM     27  C   UNL     1       6.470   4.391  18.257  0.00  0.00    +0.000 C 
BRANCH  27  28
ATOM     28  C   UNL     1       6.993   4.636  16.851  0.00  0.00    +0.000 C 
ATOM     29  N   UNL     1       7.426   4.839  15.685  0.00  0.00    +0.000 NA
ENDBRANCH  27  28
ENDBRANCH  24  27
ENDBRANCH  20  24
ENDBRANCH   1  21
TORSDOF 6
ENDMDL
MODEL 2
REMARK VINA RESULT:      -7.4      1.300      1.898
REMARK  Name = 
REMARK  7 active torsions:
REMARK  status: ('A' for Active; 'I' for Inactive)
REMARK    1  A    between atoms: C_1  and  C_2
REMARK    2  A    between atoms: C_2  and  C_3
REMARK    3  A    between atoms: C_3  and  C_4
REMARK    4  A    between atoms: C_3  and  N_7
REMARK    5  A    between atoms: C_4  and  C_5
REMARK    6  A    between atoms: C_8  and  C_10
REMARK    7  A    between atoms: C_13  and  N_14
REMARK                            x       y       z     vdW  Elec       q    Type
REMARK                         _______ _______ _______ _____ _____    ______ ____
ROOT
ATOM      1  C   UNL     1       2.542   7.448  18.749  0.00  0.00    +0.000 A 
ATOM      2  C   UNL     1       2.044   8.552  18.039  0.00  0.00    +0.000 A 
ATOM      3  C   UNL     1       1.191   9.519  18.664  0.00  0.00    +0.000 A 
ATOM      4  C   UNL     1       0.810   9.419  20.011  0.00  0.00    +0.000 A 
ATOM      5  C   UNL     1       1.316   8.325  20.722  0.00  0.00    +0.000 A 
ATOM      6  C   UNL     1       2.150   7.360  20.100  0.00  0.00    +0.000 A 
ENDROOT
BRANCH   4   7
ATOM      7  N   UNL     1      -0.021  10.359  20.697  0.00  0.00    +0.000 N 
ATOM      8  C   UNL     1       0.366  11.574  21.231  0.00  0.00    +0.000 C 
ATOM      9  O   UNL     1       1.491  12.060  21.096  0.00  0.00    +0.000 OA
ATOM     10  N   UNL     1      -0.607  12.275  21.919  0.00  0.00    +0.000 N 
ATOM     11  C   UNL     1      -0.335  13.638  22.403  0.00  0.00    +0.000 C 
ATOM     12  C   UNL     1      -1.565  14.020  23.164  0.00  0.00    +0.000 A 
ATOM     13  C   UNL     1      -1.915  15.214  23.774  0.00  0.00    +0.000 A 
ATOM     14  C   UNL     1      -3.137  15.274  24.440  0.00  0.00    +0.000 A 
ATOM     15  C   UNL     1      -3.944  14.136  24.464  0.00  0.00    +0.000 A 
ATOM     16  N   UNL     1      -3.627  12.960  23.869  0.00  0.00    +0.000 NA
ATOM     17  C   UNL     1      -2.438  12.941  23.234  0.00  0.00    +0.000 A 
ATOM     18  C   UNL     1      -1.856  11.756  22.498  0.00  0.00    +0.000 C 
ATOM     19  H   UNL     1      -1.012  10.255  20.554  0.00  0.00    +0.000 HD
ENDBRANCH   4   7
BRANCH   1  21
ATOM     20  N   UNL     1       3.175   5.016  18.348  0.00  0.00    +0.000 N 
ATOM     21  C   UNL     1       3.490   6.358  18.213  0.00  0.00    +0.000 C 
ATOM     22  O   UNL     1       4.528   6.680  17.658  0.00  0.00    +0.000 OA
ATOM     23  H   UNL     1       2.400   4.794  18.955  0.00  0.00    +0.000 HD
BRANCH  20  24
ATOM     24  C   UNL     1       4.032   3.801  17.866  0.00  0.00    +0.000 C 
BRANCH  24  26
ATOM     25  C   UNL     1       5.737   3.874  15.858  0.00  0.00    +0.000 C 
ATOM     26  C   UNL     1       4.297   4.072  16.324  0.00  0.00    +0.000 C 
ENDBRANCH  24  26
BRANCH  24  27
ATOM     27  C   UNL     1       3.252   2.239  18.057  0.00  0.00    +0.000 C 
BRANCH  27  28
ATOM     28  C   UNL     1       4.116   2.102  19.300  0.00  0.00    +0.000 C 
ATOM     29  N   UNL     1       4.833   1.990  20.331  0.00  0.00    +0.000 NA
ENDBRANCH  27  28
ENDBRANCH  24  27
ENDBRANCH  20  24
ENDBRANCH   1  21
TORSDOF 6
ENDMDL
MODEL 3
REMARK VINA RESULT:      -7.4      1.007      1.105
REMARK  Name = 
REMARK  7 active torsions:
REMARK  status: ('A' for Active; 'I' for Inactive)
REMARK    1  A    between atoms: C_1  and  C_2
REMARK    2  A    between atoms: C_2  and  C_3
REMARK    3  A    between atoms: C_3  and  C_4
REMARK    4  A    between atoms: C_3  and  N_7
REMARK    5  A    between atoms: C_4  and  C_5
REMARK    6  A    between atoms: C_8  and  C_10
REMARK    7  A    between atoms: C_13  and  N_14
REMARK                            x       y       z     vdW  Elec       q    Type
REMARK                         _______ _______ _______ _____ _____    ______ ____
ROOT
ATOM      1  C   UNL     1       2.209   8.035  18.556  0.00  0.00    +0.000 A 
ATOM      2  C   UNL     1       1.678   9.110  17.828  0.00  0.00    +0.000 A 
ATOM      3  C   UNL     1       0.817  10.077  18.443  0.00  0.00    +0.000 A 
ATOM      4  C   UNL     1       0.462  10.005  19.798  0.00  0.00    +0.000 A 
ATOM      5  C   UNL     1       1.001   8.940  20.528  0.00  0.00    +0.000 A 
ATOM      6  C   UNL     1       1.843   7.975  19.917  0.00  0.00    +0.000 A 
ENDROOT
BRANCH   4   7
ATOM      7  N   UNL     1      -0.374  10.948  20.474  0.00  0.00    +0.000 N 
ATOM      8  C   UNL     1       0.035  11.993  21.280  0.00  0.00    +0.000 C 
ATOM      9  O   UNL     1       1.214  12.315  21.446  0.00  0.00    +0.000 OA
ATOM     10  N   UNL     1      -0.968  12.724  21.888  0.00  0.00    +0.000 N 
ATOM     11  C   UNL     1      -0.642  13.940  22.651  0.00  0.00    +0.000 C 
ATOM     12  C   UNL     1      -1.949  14.387  23.225  0.00  0.00    +0.000 A 
ATOM     13  C   UNL     1      -2.272  15.514  23.962  0.00  0.00    +0.000 A 
ATOM     14  C   UNL     1      -3.590  15.661  24.389  0.00  0.00    +0.000 A 
ATOM     15  C   UNL     1      -4.515  14.671  24.057  0.00  0.00    +0.000 A 
ATOM     16  N   UNL     1      -4.225  13.563  23.331  0.00  0.00    +0.000 NA
ATOM     17  C   UNL     1      -2.941  13.458  22.936  0.00  0.00    +0.000 A 
ATOM     18  C   UNL     1      -2.364  12.322  22.121  0.00  0.00    +0.000 C 
ATOM     19  H   UNL     1      -1.318  11.021  20.133  0.00  0.00    +0.000 HD
ENDBRANCH   4   7
BRANCH   1  21
ATOM     20  N   UNL     1       2.897   5.605  18.235  0.00  0.00    +0.000 N 
ATOM     21  C   UNL     1       3.168   6.949  18.033  0.00  0.00    +0.000 C 
ATOM     22  O   UNL     1       4.176   7.274  17.427  0.00  0.00    +0.000 OA
ATOM     23  H   UNL     1       2.151   5.389  18.878  0.00  0.00    +0.000 HD
BRANCH  20  24
ATOM     24  C   UNL     1       3.770   4.395  17.772  0.00  0.00    +0.000 C 
BRANCH  24  26
ATOM     25  C   UNL     1       1.406   3.314  18.203  0.00  0.00    +0.000 C 
ATOM     26  C   UNL     1       2.732   3.238  17.450  0.00  0.00    +0.000 C 
ENDBRANCH  24  26
BRANCH  24  27
ATOM     27  C   UNL     1       4.921   3.827  18.973  0.00  0.00    +0.000 C 
BRANCH  27  28
ATOM     28  C   UNL     1       5.981   4.343  18.015  0.00  0.00    +0.000 C 
ATOM     29  N   UNL     1       6.861   4.772  17.219  0.00  0.00    +0.000 NA
ENDBRANCH  27  28
ENDBRANCH  24  27
ENDBRANCH  20  24
ENDBRANCH   1  21
TORSDOF 6
ENDMDL
MODEL 4
REMARK VINA RESULT:      -7.4      1.468      1.934
REMARK  Name = 
REMARK  7 active torsions:
REMARK  status: ('A' for Active; 'I' for Inactive)
REMARK    1  A    between atoms: C_1  and  C_2
REMARK    2  A    between atoms: C_2  and  C_3
REMARK    3  A    between atoms: C_3  and  C_4
REMARK    4  A    between atoms: C_3  and  N_7
REMARK    5  A    between atoms: C_4  and  C_5
REMARK    6  A    between atoms: C_8  and  C_10
REMARK    7  A    between atoms: C_13  and  N_14
REMARK                            x       y       z     vdW  Elec       q    Type
REMARK                         _______ _______ _______ _____ _____    ______ ____
ROOT
ATOM      1  C   UNL     1       2.351   7.784  18.588  0.00  0.00    +0.000 A 
ATOM      2  C   UNL     1       1.780   8.881  17.924  0.00  0.00    +0.000 A 
ATOM      3  C   UNL     1       0.933   9.812  18.611  0.00  0.00    +0.000 A 
ATOM      4  C   UNL     1       0.633   9.682  19.975  0.00  0.00    +0.000 A 
ATOM      5  C   UNL     1       1.212   8.596  20.640  0.00  0.00    +0.000 A 
ATOM      6  C   UNL     1       2.039   7.666  19.958  0.00  0.00    +0.000 A 
ENDROOT
BRANCH   4   7
ATOM      7  N   UNL     1      -0.186  10.587  20.721  0.00  0.00    +0.000 N 
ATOM      8  C   UNL     1       0.213  11.766  21.321  0.00  0.00    +0.000 C 
ATOM      9  O   UNL     1       1.341  12.252  21.205  0.00  0.00    +0.000 OA
ATOM     10  N   UNL     1      -0.749  12.432  22.056  0.00  0.00    +0.000 N 
ATOM     11  C   UNL     1      -0.465  13.764  22.615  0.00  0.00    +0.000 C 
ATOM     12  C   UNL     1      -1.686  14.109  23.407  0.00  0.00    +0.000 A 
ATOM     13  C   UNL     1      -2.023  15.268  24.087  0.00  0.00    +0.000 A 
ATOM     14  C   UNL     1      -3.240  15.298  24.765  0.00  0.00    +0.000 A 
ATOM     15  C   UNL     1      -4.054  14.165  24.730  0.00  0.00    +0.000 A 
ATOM     16  N   UNL     1      -3.750  13.023  24.066  0.00  0.00    +0.000 NA
ATOM     17  C   UNL     1      -2.566  13.033  23.421  0.00  0.00    +0.000 A 
ATOM     18  C   UNL     1      -1.998  11.889  22.613  0.00  0.00    +0.000 C 
ATOM     19  H   UNL     1      -1.179  10.498  20.580  0.00  0.00    +0.000 HD
ENDBRANCH   4   7
BRANCH   1  21
ATOM     20  N   UNL     1       4.574   7.079  17.569  0.00  0.00    +0.000 N 
ATOM     21  C   UNL     1       3.299   6.731  17.984  0.00  0.00    +0.000 C 
ATOM     22  O   UNL     1       2.925   5.574  17.873  0.00  0.00    +0.000 OA
ATOM     23  H   UNL     1       4.779   8.065  17.523  0.00  0.00    +0.000 HD
BRANCH  20  24
ATOM     24  C   UNL     1       5.643   6.131  16.935  0.00  0.00    +0.000 C 
BRANCH  24  26
ATOM     25  C   UNL     1       7.696   6.222  18.584  0.00  0.00    +0.000 C 
ATOM     26  C   UNL     1       7.042   6.774  17.320  0.00  0.00    +0.000 C 
ENDBRANCH  24  26
BRANCH  24  27
ATOM     27  C   UNL     1       5.534   5.976  15.189  0.00  0.00    +0.000 C 
BRANCH  27  28
ATOM     28  C   UNL     1       5.678   4.484  15.439  0.00  0.00    +0.000 C 
ATOM     29  N   UNL     1       5.797   3.247  15.648  0.00  0.00    +0.000 NA
ENDBRANCH  27  28
ENDBRANCH  24  27
ENDBRANCH  20  24
ENDBRANCH   1  21
TORSDOF 6
ENDMDL
MODEL 5
REMARK VINA RESULT:      -7.3      1.998     10.977
REMARK  Name = 
REMARK  7 active torsions:
REMARK  status: ('A' for Active; 'I' for Inactive)
REMARK    1  A    between atoms: C_1  and  C_2
REMARK    2  A    between atoms: C_2  and  C_3
REMARK    3  A    between atoms: C_3  and  C_4
REMARK    4  A    between atoms: C_3  and  N_7
REMARK    5  A    between atoms: C_4  and  C_5
REMARK    6  A    between atoms: C_8  and  C_10
REMARK    7  A    between atoms: C_13  and  N_14
REMARK                            x       y       z     vdW  Elec       q    Type
REMARK                         _______ _______ _______ _____ _____    ______ ____
ROOT
ATOM      1  C   UNL     1      -0.189  10.327  21.488  0.00  0.00    +0.000 A 
ATOM      2  C   UNL     1       0.640   9.304  21.975  0.00  0.00    +0.000 A 
ATOM      3  C   UNL     1       1.453   8.519  21.094  0.00  0.00    +0.000 A 
ATOM      4  C   UNL     1       1.469   8.728  19.707  0.00  0.00    +0.000 A 
ATOM      5  C   UNL     1       0.652   9.755  19.223  0.00  0.00    +0.000 A 
ATOM      6  C   UNL     1      -0.163  10.525  20.092  0.00  0.00    +0.000 A 
ENDROOT
BRANCH   4   7
ATOM      7  N   UNL     1       2.272   7.993  18.779  0.00  0.00    +0.000 N 
ATOM      8  C   UNL     1       2.573   6.646  18.827  0.00  0.00    +0.000 C 
ATOM      9  O   UNL     1       2.092   5.860  19.647  0.00  0.00    +0.000 OA
ATOM     10  N   UNL     1       3.437   6.179  17.854  0.00  0.00    +0.000 N 
ATOM     11  C   UNL     1       3.708   4.737  17.733  0.00  0.00    +0.000 C 
ATOM     12  C   UNL     1       4.741   4.637  16.656  0.00  0.00    +0.000 A 
ATOM     13  C   UNL     1       5.318   3.528  16.059  0.00  0.00    +0.000 A 
ATOM     14  C   UNL     1       6.285   3.741  15.080  0.00  0.00    +0.000 A 
ATOM     15  C   UNL     1       6.628   5.053  14.751  0.00  0.00    +0.000 A 
ATOM     16  N   UNL     1       6.073   6.154  15.316  0.00  0.00    +0.000 NA
ATOM     17  C   UNL     1       5.141   5.907  16.257  0.00  0.00    +0.000 A 
ATOM     18  C   UNL     1       4.379   6.956  17.033  0.00  0.00    +0.000 C 
ATOM     19  H   UNL     1       2.416   8.428  17.883  0.00  0.00    +0.000 HD
ENDBRANCH   4   7
BRANCH   1  21
ATOM     20  N   UNL     1      -1.840  12.251  21.709  0.00  0.00    +0.000 N 
ATOM     21  C   UNL     1      -1.084  11.264  22.320  0.00  0.00    +0.000 C 
ATOM     22  O   UNL     1      -1.133  11.133  23.533  0.00  0.00    +0.000 OA
ATOM     23  H   UNL     1      -1.642  12.432  20.737  0.00  0.00    +0.000 HD
BRANCH  20  24
ATOM     24  C   UNL     1      -2.785  13.277  22.414  0.00  0.00    +0.000 C 
BRANCH  24  26
ATOM     25  C   UNL     1      -5.364  12.991  22.870  0.00  0.00    +0.000 C 
ATOM     26  C   UNL     1      -4.233  12.960  21.846  0.00  0.00    +0.000 C 
ENDBRANCH  24  26
BRANCH  24  27
ATOM     27  C   UNL     1      -2.394  14.961  22.103  0.00  0.00    +0.000 C 
BRANCH  27  28
ATOM     28  C   UNL     1      -1.610  14.887  23.403  0.00  0.00    +0.000 C 
ATOM     29  N   UNL     1      -0.960  14.826  24.482  0.00  0.00    +0.000 NA
ENDBRANCH  27  28
ENDBRANCH  24  27
ENDBRANCH  20  24
ENDBRANCH   1  21
TORSDOF 6
ENDMDL
MODEL 6
REMARK VINA RESULT:      -7.2      2.757      3.421
REMARK  Name = 
REMARK  7 active torsions:
REMARK  status: ('A' for Active; 'I' for Inactive)
REMARK    1  A    between atoms: C_1  and  C_2
REMARK    2  A    between atoms: C_2  and  C_3
REMARK    3  A    between atoms: C_3  and  C_4
REMARK    4  A    between atoms: C_3  and  N_7
REMARK    5  A    between atoms: C_4  and  C_5
REMARK    6  A    between atoms: C_8  and  C_10
REMARK    7  A    between atoms: C_13  and  N_14
REMARK                            x       y       z     vdW  Elec       q    Type
REMARK                         _______ _______ _______ _____ _____    ______ ____
ROOT
ATOM      1  C   UNL     1       2.338   7.298  19.020  0.00  0.00    +0.000 A 
ATOM      2  C   UNL     1       2.153   8.096  17.880  0.00  0.00    +0.000 A 
ATOM      3  C   UNL     1       1.468   9.352  17.951  0.00  0.00    +0.000 A 
ATOM      4  C   UNL     1       0.949   9.853  19.155  0.00  0.00    +0.000 A 
ATOM      5  C   UNL     1       1.143   9.064  20.293  0.00  0.00    +0.000 A 
ATOM      6  C   UNL     1       1.810   7.813  20.222  0.00  0.00    +0.000 A 
ENDROOT
BRANCH   4   7
ATOM      7  N   UNL     1       0.274  11.106  19.294  0.00  0.00    +0.000 N 
ATOM      8  C   UNL     1       0.779  12.359  19.001  0.00  0.00    +0.000 C 
ATOM      9  O   UNL     1       1.877  12.553  18.473  0.00  0.00    +0.000 OA
ATOM     10  N   UNL     1      -0.041  13.431  19.294  0.00  0.00    +0.000 N 
ATOM     11  C   UNL     1       0.346  14.793  18.890  0.00  0.00    +0.000 C 
ATOM     12  C   UNL     1      -0.724  15.673  19.456  0.00  0.00    +0.000 A 
ATOM     13  C   UNL     1      -0.931  17.036  19.330  0.00  0.00    +0.000 A 
ATOM     14  C   UNL     1      -2.018  17.597  19.998  0.00  0.00    +0.000 A 
ATOM     15  C   UNL     1      -2.838  16.764  20.759  0.00  0.00    +0.000 A 
ATOM     16  N   UNL     1      -2.660  15.427  20.892  0.00  0.00    +0.000 NA
ATOM     17  C   UNL     1      -1.600  14.922  20.231  0.00  0.00    +0.000 A 
ATOM     18  C   UNL     1      -1.185  13.468  20.219  0.00  0.00    +0.000 C 
ATOM     19  H   UNL     1      -0.729  11.059  19.363  0.00  0.00    +0.000 HD
ENDBRANCH   4   7
BRANCH   1  21
ATOM     20  N   UNL     1       3.662   5.398  17.963  0.00  0.00    +0.000 N 
ATOM     21  C   UNL     1       3.080   5.950  19.093  0.00  0.00    +0.000 C 
ATOM     22  O   UNL     1       3.160   5.362  20.160  0.00  0.00    +0.000 OA
ATOM     23  H   UNL     1       3.430   5.829  17.081  0.00  0.00    +0.000 HD
BRANCH  20  24
ATOM     24  C   UNL     1       4.439   4.045  17.878  0.00  0.00    +0.000 C 
BRANCH  24  26
ATOM     25  C   UNL     1       5.256   5.470  15.818  0.00  0.00    +0.000 C 
ATOM     26  C   UNL     1       5.214   4.102  16.494  0.00  0.00    +0.000 C 
ENDBRANCH  24  26
BRANCH  24  27
ATOM     27  C   UNL     1       3.416   2.616  17.913  0.00  0.00    +0.000 C 
BRANCH  27  28
ATOM     28  C   UNL     1       4.146   2.282  19.203  0.00  0.00    +0.000 C 
ATOM     29  N   UNL     1       4.751   2.005  20.274  0.00  0.00    +0.000 NA
ENDBRANCH  27  28
ENDBRANCH  24  27
ENDBRANCH  20  24
ENDBRANCH   1  21
TORSDOF 6
ENDMDL
MODEL 7
REMARK VINA RESULT:      -7.2      1.075      1.492
REMARK  Name = 
REMARK  7 active torsions:
REMARK  status: ('A' for Active; 'I' for Inactive)
REMARK    1  A    between atoms: C_1  and  C_2
REMARK    2  A    between atoms: C_2  and  C_3
REMARK    3  A    between atoms: C_3  and  C_4
REMARK    4  A    between atoms: C_3  and  N_7
REMARK    5  A    between atoms: C_4  and  C_5
REMARK    6  A    between atoms: C_8  and  C_10
REMARK    7  A    between atoms: C_13  and  N_14
REMARK                            x       y       z     vdW  Elec       q    Type
REMARK                         _______ _______ _______ _____ _____    ______ ____
ROOT
ATOM      1  C   UNL     1       2.148   7.902  18.902  0.00  0.00    +0.000 A 
ATOM      2  C   UNL     1       1.865   7.839  20.275  0.00  0.00    +0.000 A 
ATOM      3  C   UNL     1       1.028   8.813  20.911  0.00  0.00    +0.000 A 
ATOM      4  C   UNL     1       0.445   9.874  20.202  0.00  0.00    +0.000 A 
ATOM      5  C   UNL     1       0.717   9.931  18.830  0.00  0.00    +0.000 A 
ATOM      6  C   UNL     1       1.557   8.975  18.202  0.00  0.00    +0.000 A 
ENDROOT
BRANCH   4   7
ATOM      7  N   UNL     1      -0.415  10.864  20.773  0.00  0.00    +0.000 N 
ATOM      8  C   UNL     1      -0.032  11.993  21.472  0.00  0.00    +0.000 C 
ATOM      9  O   UNL     1       1.139  12.352  21.613  0.00  0.00    +0.000 OA
ATOM     10  N   UNL     1      -1.054  12.761  21.996  0.00  0.00    +0.000 N 
ATOM     11  C   UNL     1      -0.757  14.054  22.634  0.00  0.00    +0.000 C 
ATOM     12  C   UNL     1      -2.078  14.532  23.150  0.00  0.00    +0.000 A 
ATOM     13  C   UNL     1      -2.428  15.721  23.768  0.00  0.00    +0.000 A 
ATOM     14  C   UNL     1      -3.753  15.885  24.167  0.00  0.00    +0.000 A 
ATOM     15  C   UNL     1      -4.656  14.849  23.931  0.00  0.00    +0.000 A 
ATOM     16  N   UNL     1      -4.339  13.679  23.322  0.00  0.00    +0.000 NA
ATOM     17  C   UNL     1      -3.049  13.559  22.949  0.00  0.00    +0.000 A 
ATOM     18  C   UNL     1      -2.445  12.359  22.258  0.00  0.00    +0.000 C 
ATOM     19  H   UNL     1      -1.357  10.884  20.418  0.00  0.00    +0.000 HD
ENDBRANCH   4   7
BRANCH   1  21
ATOM     20  N   UNL     1       2.763   5.547  18.158  0.00  0.00    +0.000 N 
ATOM     21  C   UNL     1       3.000   6.910  18.088  0.00  0.00    +0.000 C 
ATOM     22  O   UNL     1       3.893   7.329  17.369  0.00  0.00    +0.000 OA
ATOM     23  H   UNL     1       2.135   5.236  18.884  0.00  0.00    +0.000 HD
BRANCH  20  24
ATOM     24  C   UNL     1       3.541   4.422  17.402  0.00  0.00    +0.000 C 
BRANCH  24  26
ATOM     25  C   UNL     1       1.336   3.291  18.297  0.00  0.00    +0.000 C 
ATOM     26  C   UNL     1       2.551   3.181  17.380  0.00  0.00    +0.000 C 
ENDBRANCH  24  26
BRANCH  24  27
ATOM     27  C   UNL     1       5.053   3.947  18.161  0.00  0.00    +0.000 C 
BRANCH  27  28
ATOM     28  C   UNL     1       5.694   4.355  16.845  0.00  0.00    +0.000 C 
ATOM     29  N   UNL     1       6.225   4.692  15.752  0.00  0.00    +0.000 NA
ENDBRANCH  27  28
ENDBRANCH  24  27
ENDBRANCH  20  24
ENDBRANCH   1  21
TORSDOF 6
ENDMDL
MODEL 8
REMARK VINA RESULT:      -7.2      1.038      1.141
REMARK  Name = 
REMARK  7 active torsions:
REMARK  status: ('A' for Active; 'I' for Inactive)
REMARK    1  A    between atoms: C_1  and  C_2
REMARK    2  A    between atoms: C_2  and  C_3
REMARK    3  A    between atoms: C_3  and  C_4
REMARK    4  A    between atoms: C_3  and  N_7
REMARK    5  A    between atoms: C_4  and  C_5
REMARK    6  A    between atoms: C_8  and  C_10
REMARK    7  A    between atoms: C_13  and  N_14
REMARK                            x       y       z     vdW  Elec       q    Type
REMARK                         _______ _______ _______ _____ _____    ______ ____
ROOT
ATOM      1  C   UNL     1       2.300   7.498  18.900  0.00  0.00    +0.000 A 
ATOM      2  C   UNL     1       1.860   8.619  18.180  0.00  0.00    +0.000 A 
ATOM      3  C   UNL     1       1.090   9.654  18.806  0.00  0.00    +0.000 A 
ATOM      4  C   UNL     1       0.739   9.606  20.164  0.00  0.00    +0.000 A 
ATOM      5  C   UNL     1       1.188   8.494  20.884  0.00  0.00    +0.000 A 
ATOM      6  C   UNL     1       1.938   7.463  20.263  0.00  0.00    +0.000 A 
ENDROOT
BRANCH   4   7
ATOM      7  N   UNL     1      -0.007  10.614  20.850  0.00  0.00    +0.000 N 
ATOM      8  C   UNL     1       0.454  11.847  21.271  0.00  0.00    +0.000 C 
ATOM      9  O   UNL     1       1.576  12.287  21.015  0.00  0.00    +0.000 OA
ATOM     10  N   UNL     1      -0.441  12.621  21.986  0.00  0.00    +0.000 N 
ATOM     11  C   UNL     1      -0.095  14.003  22.357  0.00  0.00    +0.000 C 
ATOM     12  C   UNL     1      -1.248  14.471  23.187  0.00  0.00    +0.000 A 
ATOM     13  C   UNL     1      -1.515  15.711  23.743  0.00  0.00    +0.000 A 
ATOM     14  C   UNL     1      -2.676  15.853  24.498  0.00  0.00    +0.000 A 
ATOM     15  C   UNL     1      -3.508  14.745  24.661  0.00  0.00    +0.000 A 
ATOM     16  N   UNL     1      -3.272  13.524  24.121  0.00  0.00    +0.000 NA
ATOM     17  C   UNL     1      -2.140  13.427  23.396  0.00  0.00    +0.000 A 
ATOM     18  C   UNL     1      -1.652  12.180  22.696  0.00  0.00    +0.000 C 
ATOM     19  H   UNL     1      -1.009  10.533  20.794  0.00  0.00    +0.000 HD
ENDBRANCH   4   7
BRANCH   1  21
ATOM     20  N   UNL     1       4.420   6.090  18.875  0.00  0.00    +0.000 N 
ATOM     21  C   UNL     1       3.157   6.335  18.364  0.00  0.00    +0.000 C 
ATOM     22  O   UNL     1       2.715   5.616  17.481  0.00  0.00    +0.000 OA
ATOM     23  H   UNL     1       4.808   6.801  19.476  0.00  0.00    +0.000 HD
BRANCH  20  24
ATOM     24  C   UNL     1       5.405   4.960  18.433  0.00  0.00    +0.000 C 
BRANCH  24  26
ATOM     25  C   UNL     1       4.014   2.728  18.583  0.00  0.00    +0.000 C 
ATOM     26  C   UNL     1       4.977   3.687  19.279  0.00  0.00    +0.000 C 
ENDBRANCH  24  26
BRANCH  24  27
ATOM     27  C   UNL     1       7.100   5.314  18.733  0.00  0.00    +0.000 C 
BRANCH  27  28
ATOM     28  C   UNL     1       7.184   5.551  17.234  0.00  0.00    +0.000 C 
ATOM     29  N   UNL     1       7.255   5.747  15.990  0.00  0.00    +0.000 NA
ENDBRANCH  27  28
ENDBRANCH  24  27
ENDBRANCH  20  24
ENDBRANCH   1  21
TORSDOF 6
ENDMDL
MODEL 9
REMARK VINA RESULT:      -7.2      2.196      2.654
REMARK  Name = 
REMARK  7 active torsions:
REMARK  status: ('A' for Active; 'I' for Inactive)
REMARK    1  A    between atoms: C_1  and  C_2
REMARK    2  A    between atoms: C_2  and  C_3
REMARK    3  A    between atoms: C_3  and  C_4
REMARK    4  A    between atoms: C_3  and  N_7
REMARK    5  A    between atoms: C_4  and  C_5
REMARK    6  A    between atoms: C_8  and  C_10
REMARK    7  A    between atoms: C_13  and  N_14
REMARK                            x       y       z     vdW  Elec       q    Type
REMARK                         _______ _______ _______ _____ _____    ______ ____
ROOT
ATOM      1  C   UNL     1       2.426   7.303  19.035  0.00  0.00    +0.000 A 
ATOM      2  C   UNL     1       2.194   8.211  17.990  0.00  0.00    +0.000 A 
ATOM      3  C   UNL     1       1.408   9.393  18.189  0.00  0.00    +0.000 A 
ATOM      4  C   UNL     1       0.834   9.709  19.429  0.00  0.00    +0.000 A 
ATOM      5  C   UNL     1       1.075   8.810  20.474  0.00  0.00    +0.000 A 
ATOM      6  C   UNL     1       1.841   7.632  20.276  0.00  0.00    +0.000 A 
ENDROOT
BRANCH   4   7
ATOM      7  N   UNL     1       0.059  10.880  19.696  0.00  0.00    +0.000 N 
ATOM      8  C   UNL     1       0.422  11.954  20.486  0.00  0.00    +0.000 C 
ATOM      9  O   UNL     1       1.535  12.087  21.000  0.00  0.00    +0.000 OA
ATOM     10  N   UNL     1      -0.534  12.938  20.654  0.00  0.00    +0.000 N 
ATOM     11  C   UNL     1      -0.197  14.186  21.360  0.00  0.00    +0.000 C 
ATOM     12  C   UNL     1      -1.486  14.943  21.423  0.00  0.00    +0.000 A 
ATOM     13  C   UNL     1      -1.764  16.214  21.899  0.00  0.00    +0.000 A 
ATOM     14  C   UNL     1      -3.083  16.657  21.850  0.00  0.00    +0.000 A 
ATOM     15  C   UNL     1      -4.057  15.804  21.329  0.00  0.00    +0.000 A 
ATOM     16  N   UNL     1      -3.809  14.559  20.851  0.00  0.00    +0.000 NA
ATOM     17  C   UNL     1      -2.521  14.167  20.915  0.00  0.00    +0.000 A 
ATOM     18  C   UNL     1      -1.987  12.832  20.451  0.00  0.00    +0.000 C 
ATOM     19  H   UNL     1      -0.697  11.062  19.056  0.00  0.00    +0.000 HD
ENDBRANCH   4   7
BRANCH   1  21
ATOM     20  N   UNL     1       3.444   5.340  17.775  0.00  0.00    +0.000 N 
ATOM     21  C   UNL     1       3.273   6.018  18.970  0.00  0.00    +0.000 C 
ATOM     22  O   UNL     1       3.805   5.593  19.984  0.00  0.00    +0.000 OA
ATOM     23  H   UNL     1       2.857   5.627  17.007  0.00  0.00    +0.000 HD
BRANCH  20  24
ATOM     24  C   UNL     1       4.264   4.028  17.552  0.00  0.00    +0.000 C 
BRANCH  24  26
ATOM     25  C   UNL     1       6.353   4.223  15.958  0.00  0.00    +0.000 C 
ATOM     26  C   UNL     1       4.833   4.145  16.075  0.00  0.00    +0.000 C 
ENDBRANCH  24  26
BRANCH  24  27
ATOM     27  C   UNL     1       3.326   2.550  17.700  0.00  0.00    +0.000 C 
BRANCH  27  28
ATOM     28  C   UNL     1       4.089   2.347  18.999  0.00  0.00    +0.000 C 
ATOM     29  N   UNL     1       4.721   2.177  20.076  0.00  0.00    +0.000 NA
ENDBRANCH  27  28
ENDBRANCH  24  27
ENDBRANCH  20  24
ENDBRANCH   1  21
TORSDOF 6
ENDMDL
