MODEL 1
REMARK VINA RESULT:      -7.6      0.000      0.000
REMARK  Name = 
REMARK  9 active torsions:
REMARK  status: ('A' for Active; 'I' for Inactive)
REMARK    1  A    between atoms: C_1  and  O_2
REMARK    2  A    between atoms: O_2  and  C_3
REMARK    3  A    between atoms: C_6  and  C_7
REMARK    4  A    between atoms: C_7  and  N_8
REMARK    5  A    between atoms: N_8  and  C_9
REMARK    6  A    between atoms: C_10  and  C_12
REMARK    7  A    between atoms: C_12  and  N_13
REMARK    8  A    between atoms: C_15  and  N_16
REMARK    9  A    between atoms: C_18  and  C_19
REMARK                            x       y       z     vdW  Elec       q    Type
REMARK                         _______ _______ _______ _____ _____    ______ ____
ROOT
ATOM      1  N   UNL     1       2.632   4.314  19.288  0.00  0.00    +0.000 N 
ATOM      2  C   UNL     1       1.208   4.014  19.231  0.00  0.00    +0.000 C 
ATOM      3  C   UNL     1       3.490   3.579  18.474  0.00  0.00    +0.000 C 
ATOM      4  O   UNL     1       3.074   2.673  17.745  0.00  0.00    +0.000 OA
ENDROOT
BRANCH   1   5
ATOM      5  C   UNL     1       3.052   5.421  20.147  0.00  0.00    +0.000 C 
BRANCH   5   9
ATOM      6  C   UNL     1       1.112   9.236  19.378  0.00  0.00    +0.000 A 
ATOM      7  C   UNL     1       1.014   8.604  20.619  0.00  0.00    +0.000 A 
ATOM      8  C   UNL     1       1.668   7.387  20.853  0.00  0.00    +0.000 A 
ATOM      9  C   UNL     1       2.438   6.773  19.850  0.00  0.00    +0.000 A 
ATOM     10  C   UNL     1       2.564   7.434  18.623  0.00  0.00    +0.000 A 
ATOM     11  C   UNL     1       1.906   8.646  18.395  0.00  0.00    +0.000 A 
ATOM     12  F   UNL     1       2.067   9.216  17.192  0.00  0.00    +0.000 F 
BRANCH   6  14
ATOM     13  C   UNL     1       0.437  11.270  20.402  0.00  0.00    +0.000 C 
ATOM     14  O   UNL     1       0.394  10.397  19.279  0.00  0.00    +0.000 OA
ENDBRANCH   6  14
ENDBRANCH   5   9
ENDBRANCH   1   5
BRANCH   3  15
ATOM     15  C   UNL     1       4.993   3.886  18.506  0.00  0.00    +0.000 C 
BRANCH  15  16
ATOM     16  N   UNL     1       5.472   4.144  17.147  0.00  0.00    +0.000 NA
ATOM     17  C   UNL     1       5.129   5.512  16.676  0.00  0.00    +0.000 C 
ATOM     18  C   UNL     1       6.542   5.600  16.044  0.00  0.00    +0.000 C 
ATOM     19  C   UNL     1       6.897   4.543  17.132  0.00  0.00    +0.000 C 
BRANCH  18  20
ATOM     20  N   UNL     1       6.661   5.059  14.706  0.00  0.00    +0.000 N 
ATOM     21  C   UNL     1       5.876   4.097  14.119  0.00  0.00    +0.000 A 
ATOM     22  C   UNL     1       6.422   3.830  12.881  0.00  0.00    +0.000 A 
ATOM     23  C   UNL     1       5.961   2.841  11.886  0.00  0.00    +0.000 C 
ATOM     24  C   UNL     1       7.519   4.713  12.801  0.00  0.00    +0.000 A 
ATOM     25  N   UNL     1       7.659   5.470  13.892  0.00  0.00    +0.000 NA
ENDBRANCH  18  20
ENDBRANCH  15  16
ENDBRANCH   3  15
TORSDOF 6
ENDMDL
MODEL 2
REMARK VINA RESULT:      -7.3      1.180      1.521
REMARK  Name = 
REMARK  9 active torsions:
REMARK  status: ('A' for Active; 'I' for Inactive)
REMARK    1  A    between atoms: C_1  and  O_2
REMARK    2  A    between atoms: O_2  and  C_3
REMARK    3  A    between atoms: C_6  and  C_7
REMARK    4  A    between atoms: C_7  and  N_8
REMARK    5  A    between atoms: N_8  and  C_9
REMARK    6  A    between atoms: C_10  and  C_12
REMARK    7  A    between atoms: C_12  and  N_13
REMARK    8  A    between atoms: C_15  and  N_16
REMARK    9  A    between atoms: C_18  and  C_19
REMARK                            x       y       z     vdW  Elec       q    Type
REMARK                         _______ _______ _______ _____ _____    ______ ____
ROOT
ATOM      1  N   UNL     1       2.551   4.209  19.227  0.00  0.00    +0.000 N 
ATOM      2  C   UNL     1       1.203   3.665  19.131  0.00  0.00    +0.000 C 
ATOM      3  C   UNL     1       3.482   3.828  18.264  0.00  0.00    +0.000 C 
ATOM      4  O   UNL     1       3.197   3.026  17.369  0.00  0.00    +0.000 OA
ENDROOT
BRANCH   1   5
ATOM      5  C   UNL     1       2.811   5.178  20.292  0.00  0.00    +0.000 C 
BRANCH   5   9
ATOM      6  C   UNL     1       1.099   9.143  19.786  0.00  0.00    +0.000 A 
ATOM      7  C   UNL     1       1.831   8.529  18.768  0.00  0.00    +0.000 A 
ATOM      8  C   UNL     1       2.353   7.241  18.944  0.00  0.00    +0.000 A 
ATOM      9  C   UNL     1       2.153   6.534  20.142  0.00  0.00    +0.000 A 
ATOM     10  C   UNL     1       1.382   7.141  21.141  0.00  0.00    +0.000 A 
ATOM     11  C   UNL     1       0.868   8.428  20.961  0.00  0.00    +0.000 A 
ATOM     12  F   UNL     1       0.148   8.947  21.965  0.00  0.00    +0.000 F 
BRANCH   6  14
ATOM     13  C   UNL     1      -0.228  10.550  18.406  0.00  0.00    +0.000 C 
ATOM     14  O   UNL     1       0.682  10.413  19.492  0.00  0.00    +0.000 OA
ENDBRANCH   6  14
ENDBRANCH   5   9
ENDBRANCH   1   5
BRANCH   3  15
ATOM     15  C   UNL     1       4.904   4.398  18.336  0.00  0.00    +0.000 C 
BRANCH  15  16
ATOM     16  N   UNL     1       5.459   4.507  16.986  0.00  0.00    +0.000 NA
ATOM     17  C   UNL     1       5.604   5.921  16.546  0.00  0.00    +0.000 C 
ATOM     18  C   UNL     1       6.972   5.539  15.924  0.00  0.00    +0.000 C 
ATOM     19  C   UNL     1       6.936   4.403  16.988  0.00  0.00    +0.000 C 
BRANCH  18  20
ATOM     20  N   UNL     1       6.920   5.017  14.574  0.00  0.00    +0.000 N 
ATOM     21  C   UNL     1       6.078   4.048  14.083  0.00  0.00    +0.000 A 
ATOM     22  C   UNL     1       6.458   3.807  12.779  0.00  0.00    +0.000 A 
ATOM     23  C   UNL     1       5.883   2.823  11.841  0.00  0.00    +0.000 C 
ATOM     24  C   UNL     1       7.520   4.710  12.567  0.00  0.00    +0.000 A 
ATOM     25  N   UNL     1       7.792   5.456  13.640  0.00  0.00    +0.000 NA
ENDBRANCH  18  20
ENDBRANCH  15  16
ENDBRANCH   3  15
TORSDOF 6
ENDMDL
MODEL 3
REMARK VINA RESULT:      -7.1      2.299      3.413
REMARK  Name = 
REMARK  9 active torsions:
REMARK  status: ('A' for Active; 'I' for Inactive)
REMARK    1  A    between atoms: C_1  and  O_2
REMARK    2  A    between atoms: O_2  and  C_3
REMARK    3  A    between atoms: C_6  and  C_7
REMARK    4  A    between atoms: C_7  and  N_8
REMARK    5  A    between atoms: N_8  and  C_9
REMARK    6  A    between atoms: C_10  and  C_12
REMARK    7  A    between atoms: C_12  and  N_13
REMARK    8  A    between atoms: C_15  and  N_16
REMARK    9  A    between atoms: C_18  and  C_19
REMARK                            x       y       z     vdW  Elec       q    Type
REMARK                         _______ _______ _______ _____ _____    ______ ____
ROOT
ATOM      1  N   UNL     1       2.232   4.518  19.748  0.00  0.00    +0.000 N 
ATOM      2  C   UNL     1       1.598   4.187  21.017  0.00  0.00    +0.000 C 
ATOM      3  C   UNL     1       1.971   3.700  18.651  0.00  0.00    +0.000 C 
ATOM      4  O   UNL     1       1.253   2.701  18.745  0.00  0.00    +0.000 OA
ENDROOT
BRANCH   1   5
ATOM      5  C   UNL     1       3.043   5.735  19.700  0.00  0.00    +0.000 C 
BRANCH   5   9
ATOM      6  C   UNL     1       1.042   9.558  19.166  0.00  0.00    +0.000 A 
ATOM      7  C   UNL     1       1.678   8.912  18.103  0.00  0.00    +0.000 A 
ATOM      8  C   UNL     1       2.295   7.669  18.292  0.00  0.00    +0.000 A 
ATOM      9  C   UNL     1       2.290   7.040  19.549  0.00  0.00    +0.000 A 
ATOM     10  C   UNL     1       1.615   7.676  20.598  0.00  0.00    +0.000 A 
ATOM     11  C   UNL     1       1.004   8.917  20.403  0.00  0.00    +0.000 A 
ATOM     12  F   UNL     1       0.384   9.468  21.456  0.00  0.00    +0.000 F 
BRANCH   6  14
ATOM     13  C   UNL     1      -0.822  10.790  18.358  0.00  0.00    +0.000 C 
ATOM     14  O   UNL     1       0.515  10.780  18.846  0.00  0.00    +0.000 OA
ENDBRANCH   6  14
ENDBRANCH   5   9
ENDBRANCH   1   5
BRANCH   3  15
ATOM     15  C   UNL     1       2.617   4.037  17.301  0.00  0.00    +0.000 C 
BRANCH  15  16
ATOM     16  N   UNL     1       3.960   4.577  17.519  0.00  0.00    +0.000 NA
ATOM     17  C   UNL     1       4.978   3.508  17.697  0.00  0.00    +0.000 C 
ATOM     18  C   UNL     1       5.944   4.344  16.819  0.00  0.00    +0.000 C 
ATOM     19  C   UNL     1       4.622   4.935  16.245  0.00  0.00    +0.000 C 
BRANCH  18  20
ATOM     20  N   UNL     1       6.721   5.343  17.524  0.00  0.00    +0.000 N 
ATOM     21  C   UNL     1       6.890   6.664  17.187  0.00  0.00    +0.000 A 
ATOM     22  C   UNL     1       7.787   7.199  18.087  0.00  0.00    +0.000 A 
ATOM     23  C   UNL     1       8.320   8.575  18.120  0.00  0.00    +0.000 C 
ATOM     24  C   UNL     1       8.074   6.123  18.953  0.00  0.00    +0.000 A 
ATOM     25  N   UNL     1       7.421   5.005  18.629  0.00  0.00    +0.000 NA
ENDBRANCH  18  20
ENDBRANCH  15  16
ENDBRANCH   3  15
TORSDOF 6
ENDMDL
MODEL 4
REMARK VINA RESULT:      -7.0      3.288      6.735
REMARK  Name = 
REMARK  9 active torsions:
REMARK  status: ('A' for Active; 'I' for Inactive)
REMARK    1  A    between atoms: C_1  and  O_2
REMARK    2  A    between atoms: O_2  and  C_3
REMARK    3  A    between atoms: C_6  and  C_7
REMARK    4  A    between atoms: C_7  and  N_8
REMARK    5  A    between atoms: N_8  and  C_9
REMARK    6  A    between atoms: C_10  and  C_12
REMARK    7  A    between atoms: C_12  and  N_13
REMARK    8  A    between atoms: C_15  and  N_16
REMARK    9  A    between atoms: C_18  and  C_19
REMARK                            x       y       z     vdW  Elec       q    Type
REMARK                         _______ _______ _______ _____ _____    ______ ____
ROOT
ATOM      1  N   UNL     1       3.690   2.406  19.204  0.00  0.00    +0.000 N 
ATOM      2  C   UNL     1       4.608   1.687  20.077  0.00  0.00    +0.000 C 
ATOM      3  C   UNL     1       2.519   2.915  19.760  0.00  0.00    +0.000 C 
ATOM      4  O   UNL     1       2.238   2.742  20.950  0.00  0.00    +0.000 OA
ENDROOT
BRANCH   1   5
ATOM      5  C   UNL     1       4.101   2.604  17.814  0.00  0.00    +0.000 C 
BRANCH   5   9
ATOM      6  C   UNL     1       6.125   6.387  17.112  0.00  0.00    +0.000 A 
ATOM      7  C   UNL     1       6.338   5.650  18.279  0.00  0.00    +0.000 A 
ATOM      8  C   UNL     1       5.694   4.422  18.473  0.00  0.00    +0.000 A 
ATOM      9  C   UNL     1       4.822   3.898  17.504  0.00  0.00    +0.000 A 
ATOM     10  C   UNL     1       4.647   4.624  16.319  0.00  0.00    +0.000 A 
ATOM     11  C   UNL     1       5.289   5.851  16.134  0.00  0.00    +0.000 A 
ATOM     12  F   UNL     1       5.066   6.492  14.977  0.00  0.00    +0.000 F 
BRANCH   6  14
ATOM     13  C   UNL     1       7.911   7.718  17.939  0.00  0.00    +0.000 C 
ATOM     14  O   UNL     1       6.789   7.583  17.073  0.00  0.00    +0.000 OA
ENDBRANCH   6  14
ENDBRANCH   5   9
ENDBRANCH   1   5
BRANCH   3  15
ATOM     15  C   UNL     1       1.543   3.688  18.863  0.00  0.00    +0.000 C 
BRANCH  15  16
ATOM     16  N   UNL     1       1.508   5.094  19.272  0.00  0.00    +0.000 NA
ATOM     17  C   UNL     1       2.678   5.469  20.110  0.00  0.00    +0.000 C 
ATOM     18  C   UNL     1       2.751   6.806  19.328  0.00  0.00    +0.000 C 
ATOM     19  C   UNL     1       2.034   5.986  18.215  0.00  0.00    +0.000 C 
BRANCH  18  20
ATOM     20  N   UNL     1       1.914   7.873  19.837  0.00  0.00    +0.000 N 
ATOM     21  C   UNL     1       1.367   7.981  21.093  0.00  0.00    +0.000 A 
ATOM     22  C   UNL     1       0.567   9.105  21.090  0.00  0.00    +0.000 A 
ATOM     23  C   UNL     1      -0.265   9.622  22.194  0.00  0.00    +0.000 C 
ATOM     24  C   UNL     1       0.728   9.627  19.789  0.00  0.00    +0.000 A 
ATOM     25  N   UNL     1       1.554   8.898  19.034  0.00  0.00    +0.000 NA
ENDBRANCH  18  20
ENDBRANCH  15  16
ENDBRANCH   3  15
TORSDOF 6
ENDMDL
MODEL 5
REMARK VINA RESULT:      -7.0      1.283      1.448
REMARK  Name = 
REMARK  9 active torsions:
REMARK  status: ('A' for Active; 'I' for Inactive)
REMARK    1  A    between atoms: C_1  and  O_2
REMARK    2  A    between atoms: O_2  and  C_3
REMARK    3  A    between atoms: C_6  and  C_7
REMARK    4  A    between atoms: C_7  and  N_8
REMARK    5  A    between atoms: N_8  and  C_9
REMARK    6  A    between atoms: C_10  and  C_12
REMARK    7  A    between atoms: C_12  and  N_13
REMARK    8  A    between atoms: C_15  and  N_16
REMARK    9  A    between atoms: C_18  and  C_19
REMARK                            x       y       z     vdW  Elec       q    Type
REMARK                         _______ _______ _______ _____ _____    ______ ____
ROOT
ATOM      1  N   UNL     1       2.688   5.050  18.853  0.00  0.00    +0.000 N 
ATOM      2  C   UNL     1       1.521   4.203  19.060  0.00  0.00    +0.000 C 
ATOM      3  C   UNL     1       3.911   4.616  19.359  0.00  0.00    +0.000 C 
ATOM      4  O   UNL     1       4.011   3.564  19.997  0.00  0.00    +0.000 OA
ENDROOT
BRANCH   1   5
ATOM      5  C   UNL     1       2.504   6.266  18.061  0.00  0.00    +0.000 C 
BRANCH   5   9
ATOM      6  C   UNL     1       1.121   9.698  20.344  0.00  0.00    +0.000 A 
ATOM      7  C   UNL     1       1.470   8.499  20.968  0.00  0.00    +0.000 A 
ATOM      8  C   UNL     1       1.936   7.414  20.215  0.00  0.00    +0.000 A 
ATOM      9  C   UNL     1       2.067   7.502  18.819  0.00  0.00    +0.000 A 
ATOM     10  C   UNL     1       1.754   8.722  18.207  0.00  0.00    +0.000 A 
ATOM     11  C   UNL     1       1.286   9.799  18.963  0.00  0.00    +0.000 A 
ATOM     12  F   UNL     1       0.999  10.932  18.306  0.00  0.00    +0.000 F 
BRANCH   6  14
ATOM     13  C   UNL     1      -0.542  10.344  21.913  0.00  0.00    +0.000 C 
ATOM     14  O   UNL     1       0.646  10.659  21.196  0.00  0.00    +0.000 OA
ENDBRANCH   6  14
ENDBRANCH   5   9
ENDBRANCH   1   5
BRANCH   3  15
ATOM     15  C   UNL     1       5.157   5.485  19.142  0.00  0.00    +0.000 C 
BRANCH  15  16
ATOM     16  N   UNL     1       5.687   5.255  17.796  0.00  0.00    +0.000 NA
ATOM     17  C   UNL     1       6.996   5.929  17.581  0.00  0.00    +0.000 C 
ATOM     18  C   UNL     1       7.472   4.660  16.827  0.00  0.00    +0.000 C 
ATOM     19  C   UNL     1       6.389   3.956  17.696  0.00  0.00    +0.000 C 
BRANCH  18  20
ATOM     20  N   UNL     1       7.148   4.615  15.416  0.00  0.00    +0.000 N 
ATOM     21  C   UNL     1       6.272   3.765  14.786  0.00  0.00    +0.000 A 
ATOM     22  C   UNL     1       6.363   4.021  13.434  0.00  0.00    +0.000 A 
ATOM     23  C   UNL     1       5.648   3.340  12.337  0.00  0.00    +0.000 C 
ATOM     24  C   UNL     1       7.301   5.072  13.354  0.00  0.00    +0.000 A 
ATOM     25  N   UNL     1       7.765   5.447  14.549  0.00  0.00    +0.000 NA
ENDBRANCH  18  20
ENDBRANCH  15  16
ENDBRANCH   3  15
TORSDOF 6
ENDMDL
MODEL 6
REMARK VINA RESULT:      -6.9      1.510      1.854
REMARK  Name = 
REMARK  9 active torsions:
REMARK  status: ('A' for Active; 'I' for Inactive)
REMARK    1  A    between atoms: C_1  and  O_2
REMARK    2  A    between atoms: O_2  and  C_3
REMARK    3  A    between atoms: C_6  and  C_7
REMARK    4  A    between atoms: C_7  and  N_8
REMARK    5  A    between atoms: N_8  and  C_9
REMARK    6  A    between atoms: C_10  and  C_12
REMARK    7  A    between atoms: C_12  and  N_13
REMARK    8  A    between atoms: C_15  and  N_16
REMARK    9  A    between atoms: C_18  and  C_19
REMARK                            x       y       z     vdW  Elec       q    Type
REMARK                         _______ _______ _______ _____ _____    ______ ____
ROOT
ATOM      1  N   UNL     1       3.348   4.560  18.849  0.00  0.00    +0.000 N 
ATOM      2  C   UNL     1       2.634   3.427  19.423  0.00  0.00    +0.000 C 
ATOM      3  C   UNL     1       4.719   4.654  19.075  0.00  0.00    +0.000 C 
ATOM      4  O   UNL     1       5.319   3.828  19.768  0.00  0.00    +0.000 OA
ENDROOT
BRANCH   1   5
ATOM      5  C   UNL     1       2.581   5.482  18.011  0.00  0.00    +0.000 C 
BRANCH   5   9
ATOM      6  C   UNL     1       1.393   9.260  19.805  0.00  0.00    +0.000 A 
ATOM      7  C   UNL     1       1.612   9.142  18.431  0.00  0.00    +0.000 A 
ATOM      8  C   UNL     1       1.970   7.909  17.871  0.00  0.00    +0.000 A 
ATOM      9  C   UNL     1       2.117   6.763  18.671  0.00  0.00    +0.000 A 
ATOM     10  C   UNL     1       1.856   6.883  20.042  0.00  0.00    +0.000 A 
ATOM     11  C   UNL     1       1.503   8.117  20.594  0.00  0.00    +0.000 A 
ATOM     12  F   UNL     1       1.276   8.155  21.915  0.00  0.00    +0.000 F 
BRANCH   6  14
ATOM     13  C   UNL     1      -0.240  10.978  19.964  0.00  0.00    +0.000 C 
ATOM     14  O   UNL     1       1.086  10.529  20.218  0.00  0.00    +0.000 OA
ENDBRANCH   6  14
ENDBRANCH   5   9
ENDBRANCH   1   5
BRANCH   3  15
ATOM     15  C   UNL     1       5.494   5.831  18.469  0.00  0.00    +0.000 C 
BRANCH  15  16
ATOM     16  N   UNL     1       5.914   5.495  17.107  0.00  0.00    +0.000 NA
ATOM     17  C   UNL     1       7.132   6.239  16.690  0.00  0.00    +0.000 C 
ATOM     18  C   UNL     1       7.646   4.935  16.027  0.00  0.00    +0.000 C 
ATOM     19  C   UNL     1       6.714   4.250  17.070  0.00  0.00    +0.000 C 
BRANCH  18  20
ATOM     20  N   UNL     1       7.196   4.707  14.669  0.00  0.00    +0.000 N 
ATOM     21  C   UNL     1       6.212   3.846  14.247  0.00  0.00    +0.000 A 
ATOM     22  C   UNL     1       6.200   3.891  12.868  0.00  0.00    +0.000 A 
ATOM     23  C   UNL     1       5.346   3.114  11.948  0.00  0.00    +0.000 C 
ATOM     24  C   UNL     1       7.196   4.839  12.556  0.00  0.00    +0.000 A 
ATOM     25  N   UNL     1       7.788   5.349  13.639  0.00  0.00    +0.000 NA
ENDBRANCH  18  20
ENDBRANCH  15  16
ENDBRANCH   3  15
TORSDOF 6
ENDMDL
MODEL 7
REMARK VINA RESULT:      -6.8      1.379      1.739
REMARK  Name = 
REMARK  9 active torsions:
REMARK  status: ('A' for Active; 'I' for Inactive)
REMARK    1  A    between atoms: C_1  and  O_2
REMARK    2  A    between atoms: O_2  and  C_3
REMARK    3  A    between atoms: C_6  and  C_7
REMARK    4  A    between atoms: C_7  and  N_8
REMARK    5  A    between atoms: N_8  and  C_9
REMARK    6  A    between atoms: C_10  and  C_12
REMARK    7  A    between atoms: C_12  and  N_13
REMARK    8  A    between atoms: C_15  and  N_16
REMARK    9  A    between atoms: C_18  and  C_19
REMARK                            x       y       z     vdW  Elec       q    Type
REMARK                         _______ _______ _______ _____ _____    ______ ____
ROOT
ATOM      1  N   UNL     1       2.531   4.861  18.981  0.00  0.00    +0.000 N 
ATOM      2  C   UNL     1       1.270   4.168  19.205  0.00  0.00    +0.000 C 
ATOM      3  C   UNL     1       3.301   4.484  17.883  0.00  0.00    +0.000 C 
ATOM      4  O   UNL     1       2.953   3.568  17.133  0.00  0.00    +0.000 OA
ENDROOT
BRANCH   1   5
ATOM      5  C   UNL     1       2.866   5.958  19.890  0.00  0.00    +0.000 C 
BRANCH   5   9
ATOM      6  C   UNL     1       1.103   9.836  19.018  0.00  0.00    +0.000 A 
ATOM      7  C   UNL     1       1.808   9.120  18.048  0.00  0.00    +0.000 A 
ATOM      8  C   UNL     1       2.347   7.861  18.344  0.00  0.00    +0.000 A 
ATOM      9  C   UNL     1       2.192   7.286  19.617  0.00  0.00    +0.000 A 
ATOM     10  C   UNL     1       1.448   7.994  20.570  0.00  0.00    +0.000 A 
ATOM     11  C   UNL     1       0.917   9.251  20.269  0.00  0.00    +0.000 A 
ATOM     12  F   UNL     1       0.224   9.871  21.235  0.00  0.00    +0.000 F 
BRANCH   6  14
ATOM     13  C   UNL     1       1.395  12.193  19.073  0.00  0.00    +0.000 C 
ATOM     14  O   UNL     1       0.666  11.066  18.602  0.00  0.00    +0.000 OA
ENDBRANCH   6  14
ENDBRANCH   5   9
ENDBRANCH   1   5
BRANCH   3  15
ATOM     15  C   UNL     1       4.627   5.209  17.619  0.00  0.00    +0.000 C 
BRANCH  15  16
ATOM     16  N   UNL     1       5.098   4.896  16.269  0.00  0.00    +0.000 NA
ATOM     17  C   UNL     1       6.160   5.831  15.809  0.00  0.00    +0.000 C 
ATOM     18  C   UNL     1       6.901   4.615  15.196  0.00  0.00    +0.000 C 
ATOM     19  C   UNL     1       6.112   3.818  16.277  0.00  0.00    +0.000 C 
BRANCH  18  20
ATOM     20  N   UNL     1       6.498   4.250  13.854  0.00  0.00    +0.000 N 
ATOM     21  C   UNL     1       5.259   3.827  13.438  0.00  0.00    +0.000 A 
ATOM     22  C   UNL     1       5.371   3.500  12.103  0.00  0.00    +0.000 A 
ATOM     23  C   UNL     1       4.322   2.958  11.216  0.00  0.00    +0.000 C 
ATOM     24  C   UNL     1       6.716   3.795  11.797  0.00  0.00    +0.000 A 
ATOM     25  N   UNL     1       7.397   4.266  12.845  0.00  0.00    +0.000 NA
ENDBRANCH  18  20
ENDBRANCH  15  16
ENDBRANCH   3  15
TORSDOF 6
ENDMDL
MODEL 8
REMARK VINA RESULT:      -6.8      3.470      6.664
REMARK  Name = 
REMARK  9 active torsions:
REMARK  status: ('A' for Active; 'I' for Inactive)
REMARK    1  A    between atoms: C_1  and  O_2
REMARK    2  A    between atoms: O_2  and  C_3
REMARK    3  A    between atoms: C_6  and  C_7
REMARK    4  A    between atoms: C_7  and  N_8
REMARK    5  A    between atoms: N_8  and  C_9
REMARK    6  A    between atoms: C_10  and  C_12
REMARK    7  A    between atoms: C_12  and  N_13
REMARK    8  A    between atoms: C_15  and  N_16
REMARK    9  A    between atoms: C_18  and  C_19
REMARK                            x       y       z     vdW  Elec       q    Type
REMARK                         _______ _______ _______ _____ _____    ______ ____
ROOT
ATOM      1  N   UNL     1       3.632   2.427  19.878  0.00  0.00    +0.000 N 
ATOM      2  C   UNL     1       4.739   1.900  20.666  0.00  0.00    +0.000 C 
ATOM      3  C   UNL     1       2.527   2.935  20.557  0.00  0.00    +0.000 C 
ATOM      4  O   UNL     1       2.459   2.917  21.789  0.00  0.00    +0.000 OA
ENDROOT
BRANCH   1   5
ATOM      5  C   UNL     1       3.793   2.448  18.424  0.00  0.00    +0.000 C 
BRANCH   5   9
ATOM      6  C   UNL     1       6.158   5.791  16.961  0.00  0.00    +0.000 A 
ATOM      7  C   UNL     1       6.252   5.353  18.283  0.00  0.00    +0.000 A 
ATOM      8  C   UNL     1       5.499   4.259  18.727  0.00  0.00    +0.000 A 
ATOM      9  C   UNL     1       4.634   3.573  17.858  0.00  0.00    +0.000 A 
ATOM     10  C   UNL     1       4.577   3.993  16.523  0.00  0.00    +0.000 A 
ATOM     11  C   UNL     1       5.328   5.088  16.088  0.00  0.00    +0.000 A 
ATOM     12  F   UNL     1       5.215   5.436  14.799  0.00  0.00    +0.000 F 
BRANCH   6  14
ATOM     13  C   UNL     1       7.663   7.448  17.755  0.00  0.00    +0.000 C 
ATOM     14  O   UNL     1       6.921   6.892  16.676  0.00  0.00    +0.000 OA
ENDBRANCH   6  14
ENDBRANCH   5   9
ENDBRANCH   1   5
BRANCH   3  15
ATOM     15  C   UNL     1       1.355   3.507  19.748  0.00  0.00    +0.000 C 
BRANCH  15  16
ATOM     16  N   UNL     1       1.401   4.970  19.785  0.00  0.00    +0.000 NA
ATOM     17  C   UNL     1       2.615   5.482  20.474  0.00  0.00    +0.000 C 
ATOM     18  C   UNL     1       2.725   6.570  19.375  0.00  0.00    +0.000 C 
ATOM     19  C   UNL     1       1.932   5.535  18.524  0.00  0.00    +0.000 C 
BRANCH  18  20
ATOM     20  N   UNL     1       1.957   7.775  19.613  0.00  0.00    +0.000 N 
ATOM     21  C   UNL     1       1.636   8.756  18.706  0.00  0.00    +0.000 A 
ATOM     22  C   UNL     1       0.985   9.753  19.403  0.00  0.00    +0.000 A 
ATOM     23  C   UNL     1       0.477  11.036  18.878  0.00  0.00    +0.000 C 
ATOM     24  C   UNL     1       0.932   9.259  20.723  0.00  0.00    +0.000 A 
ATOM     25  N   UNL     1       1.501   8.058  20.853  0.00  0.00    +0.000 NA
ENDBRANCH  18  20
ENDBRANCH  15  16
ENDBRANCH   3  15
TORSDOF 6
ENDMDL
MODEL 9
REMARK VINA RESULT:      -6.8      1.365      1.660
REMARK  Name = 
REMARK  9 active torsions:
REMARK  status: ('A' for Active; 'I' for Inactive)
REMARK    1  A    between atoms: C_1  and  O_2
REMARK    2  A    between atoms: O_2  and  C_3
REMARK    3  A    between atoms: C_6  and  C_7
REMARK    4  A    between atoms: C_7  and  N_8
REMARK    5  A    between atoms: N_8  and  C_9
REMARK    6  A    between atoms: C_10  and  C_12
REMARK    7  A    between atoms: C_12  and  N_13
REMARK    8  A    between atoms: C_15  and  N_16
REMARK    9  A    between atoms: C_18  and  C_19
REMARK                            x       y       z     vdW  Elec       q    Type
REMARK                         _______ _______ _______ _____ _____    ______ ____
ROOT
ATOM      1  N   UNL     1       3.249   3.423  19.106  0.00  0.00    +0.000 N 
ATOM      2  C   UNL     1       2.423   2.280  19.475  0.00  0.00    +0.000 C 
ATOM      3  C   UNL     1       4.573   3.442  19.538  0.00  0.00    +0.000 C 
ATOM      4  O   UNL     1       5.038   2.540  20.241  0.00  0.00    +0.000 OA
ENDROOT
BRANCH   1   5
ATOM      5  C   UNL     1       2.644   4.438  18.243  0.00  0.00    +0.000 C 
BRANCH   5   9
ATOM      6  C   UNL     1       1.585   8.188  20.171  0.00  0.00    +0.000 A 
ATOM      7  C   UNL     1       1.503   6.970  20.849  0.00  0.00    +0.000 A 
ATOM      8  C   UNL     1       1.873   5.777  20.216  0.00  0.00    +0.000 A 
ATOM      9  C   UNL     1       2.336   5.772  18.889  0.00  0.00    +0.000 A 
ATOM     10  C   UNL     1       2.454   7.003  18.232  0.00  0.00    +0.000 A 
ATOM     11  C   UNL     1       2.080   8.189  18.868  0.00  0.00    +0.000 A 
ATOM     12  F   UNL     1       2.213   9.327  18.172  0.00  0.00    +0.000 F 
BRANCH   6  14
ATOM     13  C   UNL     1       1.307   9.182  22.311  0.00  0.00    +0.000 C 
ATOM     14  O   UNL     1       1.157   9.267  20.898  0.00  0.00    +0.000 OA
ENDBRANCH   6  14
ENDBRANCH   5   9
ENDBRANCH   1   5
BRANCH   3  15
ATOM     15  C   UNL     1       5.465   4.628  19.150  0.00  0.00    +0.000 C 
BRANCH  15  16
ATOM     16  N   UNL     1       5.715   4.605  17.708  0.00  0.00    +0.000 NA
ATOM     17  C   UNL     1       5.675   5.964  17.104  0.00  0.00    +0.000 C 
ATOM     18  C   UNL     1       6.903   5.568  16.244  0.00  0.00    +0.000 C 
ATOM     19  C   UNL     1       7.163   4.560  17.402  0.00  0.00    +0.000 C 
BRANCH  18  20
ATOM     20  N   UNL     1       6.600   4.894  14.998  0.00  0.00    +0.000 N 
ATOM     21  C   UNL     1       7.425   4.732  13.912  0.00  0.00    +0.000 A 
ATOM     22  C   UNL     1       6.680   4.120  12.926  0.00  0.00    +0.000 A 
ATOM     23  C   UNL     1       7.109   3.768  11.558  0.00  0.00    +0.000 C 
ATOM     24  C   UNL     1       5.421   3.922  13.532  0.00  0.00    +0.000 A 
ATOM     25  N   UNL     1       5.372   4.371  14.788  0.00  0.00    +0.000 NA
ENDBRANCH  18  20
ENDBRANCH  15  16
ENDBRANCH   3  15
TORSDOF 6
ENDMDL
