MODEL 1
REMARK VINA RESULT:      -6.3      0.000      0.000
REMARK  Name = 
REMARK  11 active torsions:
REMARK  status: ('A' for Active; 'I' for Inactive)
REMARK    1  A    between atoms: C_1  and  C_2
REMARK    2  A    between atoms: C_2  and  O_3
REMARK    3  A    between atoms: O_3  and  C_4
REMARK    4  A    between atoms: C_4  and  C_5
REMARK    5  A    between atoms: C_5  and  O_6
REMARK    6  A    between atoms: O_6  and  C_7
REMARK    7  A    between atoms: C_7  and  C_9
REMARK    8  A    between atoms: C_9  and  C_10
REMARK    9  A    between atoms: C_12  and  N_13
REMARK   10  A    between atoms: N_13  and  C_14
REMARK   11  A    between atoms: C_14  and  C_15
REMARK                            x       y       z     vdW  Elec       q    Type
REMARK                         _______ _______ _______ _____ _____    ______ ____
ROOT
ATOM      1  C   UNL     1       2.936   2.910  19.829  0.00  0.00    +0.000 C 
ATOM      2  C   UNL     1       4.265   3.116  19.821  0.00  0.00    +0.000 C 
ENDROOT
BRANCH   1   3
ATOM      3  C   UNL     1       2.082   2.800  18.625  0.00  0.00    +0.000 C 
ATOM      4  O   UNL     1       1.205   1.963  18.483  0.00  0.00    +0.000 OA
BRANCH   3   5
ATOM      5  O   UNL     1       2.491   3.671  17.664  0.00  0.00    +0.000 OA
BRANCH   5   6
ATOM      6  C   UNL     1       1.832   4.939  17.703  0.00  0.00    +0.000 C 
BRANCH   6   7
ATOM      7  C   UNL     1       2.743   6.078  18.128  0.00  0.00    +0.000 C 
BRANCH   7   8
ATOM      8  O   UNL     1       1.919   7.238  18.229  0.00  0.00    +0.000 OA
BRANCH   8  10
ATOM      9  C   UNL     1       1.617   9.581  17.991  0.00  0.00    +0.000 C 
ATOM     10  C   UNL     1       2.625   8.447  17.986  0.00  0.00    +0.000 C 
ENDBRANCH   8  10
ENDBRANCH   7   8
ENDBRANCH   6   7
ENDBRANCH   5   6
ENDBRANCH   3   5
ENDBRANCH   1   3
BRANCH   1  11
ATOM     11  C   UNL     1       2.255   2.636  21.160  0.00  0.00    +0.000 C 
ATOM     12  N   UNL     1       1.691   2.408  22.264  0.00  0.00    +0.000 NA
ENDBRANCH   1  11
BRANCH   2  13
ATOM     13  N   UNL     1       5.162   3.221  18.764  0.00  0.00    +0.000 N 
ATOM     14  H   UNL     1       4.689   2.980  17.886  0.00  0.00    +0.000 HD
BRANCH  13  15
ATOM     15  C   UNL     1       5.883   4.476  18.520  0.00  0.00    +0.000 C 
BRANCH  15  16
ATOM     16  C   UNL     1       6.225   4.580  17.065  0.00  0.00    +0.000 A 
ATOM     17  C   UNL     1       5.617   3.743  16.118  0.00  0.00    +0.000 A 
ATOM     18  C   UNL     1       5.951   3.858  14.776  0.00  0.00    +0.000 A 
ATOM     19  C   UNL     1       6.891   4.808  14.425  0.00  0.00    +0.000 A 
ATOM     20 CL   UNL     1       7.343   5.036  12.788  0.00  0.00    +0.000 Cl
ATOM     21  N   UNL     1       7.514   5.626  15.301  0.00  0.00    +0.000 NA
ATOM     22  C   UNL     1       7.167   5.489  16.599  0.00  0.00    +0.000 A 
ENDBRANCH  15  16
ENDBRANCH  13  15
ENDBRANCH   2  13
TORSDOF 10
ENDMDL
MODEL 2
REMARK VINA RESULT:      -6.1      3.893      7.099
REMARK  Name = 
REMARK  11 active torsions:
REMARK  status: ('A' for Active; 'I' for Inactive)
REMARK    1  A    between atoms: C_1  and  C_2
REMARK    2  A    between atoms: C_2  and  O_3
REMARK    3  A    between atoms: O_3  and  C_4
REMARK    4  A    between atoms: C_4  and  C_5
REMARK    5  A    between atoms: C_5  and  O_6
REMARK    6  A    between atoms: O_6  and  C_7
REMARK    7  A    between atoms: C_7  and  C_9
REMARK    8  A    between atoms: C_9  and  C_10
REMARK    9  A    between atoms: C_12  and  N_13
REMARK   10  A    between atoms: N_13  and  C_14
REMARK   11  A    between atoms: C_14  and  C_15
REMARK                            x       y       z     vdW  Elec       q    Type
REMARK                         _______ _______ _______ _____ _____    ______ ____
ROOT
ATOM      1  C   UNL     1       6.523   6.426  17.258  0.00  0.00    +0.000 C 
ATOM      2  C   UNL     1       5.227   6.619  17.560  0.00  0.00    +0.000 C 
ENDROOT
BRANCH   1   3
ATOM      3  C   UNL     1       7.043   5.357  16.374  0.00  0.00    +0.000 C 
ATOM      4  O   UNL     1       7.885   4.541  16.711  0.00  0.00    +0.000 OA
BRANCH   3   5
ATOM      5  O   UNL     1       6.546   5.490  15.116  0.00  0.00    +0.000 OA
BRANCH   5   6
ATOM      6  C   UNL     1       6.955   4.461  14.212  0.00  0.00    +0.000 C 
BRANCH   6   7
ATOM      7  C   UNL     1       5.802   3.845  13.438  0.00  0.00    +0.000 C 
BRANCH   7   8
ATOM      8  O   UNL     1       6.368   3.263  12.265  0.00  0.00    +0.000 OA
BRANCH   8  10
ATOM      9  C   UNL     1       4.196   3.207  11.306  0.00  0.00    +0.000 C 
ATOM     10  C   UNL     1       5.463   2.415  11.571  0.00  0.00    +0.000 C 
ENDBRANCH   8  10
ENDBRANCH   7   8
ENDBRANCH   6   7
ENDBRANCH   5   6
ENDBRANCH   3   5
ENDBRANCH   1   3
BRANCH   1  11
ATOM     11  C   UNL     1       7.539   7.447  17.743  0.00  0.00    +0.000 C 
ATOM     12  N   UNL     1       8.381   8.295  18.144  0.00  0.00    +0.000 NA
ENDBRANCH   1  11
BRANCH   2  13
ATOM     13  N   UNL     1       4.083   5.962  17.122  0.00  0.00    +0.000 N 
ATOM     14  H   UNL     1       4.201   4.950  17.243  0.00  0.00    +0.000 HD
BRANCH  13  15
ATOM     15  C   UNL     1       2.769   6.299  17.683  0.00  0.00    +0.000 C 
BRANCH  15  16
ATOM     16  C   UNL     1       2.434   5.338  18.782  0.00  0.00    +0.000 A 
ATOM     17  C   UNL     1       2.263   5.781  20.102  0.00  0.00    +0.000 A 
ATOM     18  C   UNL     1       1.952   4.872  21.103  0.00  0.00    +0.000 A 
ATOM     19  C   UNL     1       1.828   3.541  20.749  0.00  0.00    +0.000 A 
ATOM     20 CL   UNL     1       1.421   2.354  21.916  0.00  0.00    +0.000 Cl
ATOM     21  N   UNL     1       1.997   3.065  19.496  0.00  0.00    +0.000 NA
ATOM     22  C   UNL     1       2.298   3.976  18.545  0.00  0.00    +0.000 A 
ENDBRANCH  15  16
ENDBRANCH  13  15
ENDBRANCH   2  13
TORSDOF 10
ENDMDL
MODEL 3
REMARK VINA RESULT:      -6.0      1.500      1.850
REMARK  Name = 
REMARK  11 active torsions:
REMARK  status: ('A' for Active; 'I' for Inactive)
REMARK    1  A    between atoms: C_1  and  C_2
REMARK    2  A    between atoms: C_2  and  O_3
REMARK    3  A    between atoms: O_3  and  C_4
REMARK    4  A    between atoms: C_4  and  C_5
REMARK    5  A    between atoms: C_5  and  O_6
REMARK    6  A    between atoms: O_6  and  C_7
REMARK    7  A    between atoms: C_7  and  C_9
REMARK    8  A    between atoms: C_9  and  C_10
REMARK    9  A    between atoms: C_12  and  N_13
REMARK   10  A    between atoms: N_13  and  C_14
REMARK   11  A    between atoms: C_14  and  C_15
REMARK                            x       y       z     vdW  Elec       q    Type
REMARK                         _______ _______ _______ _____ _____    ______ ____
ROOT
ATOM      1  C   UNL     1       2.660   4.133  20.243  0.00  0.00    +0.000 C 
ATOM      2  C   UNL     1       3.536   3.600  19.372  0.00  0.00    +0.000 C 
ENDROOT
BRANCH   1   3
ATOM      3  C   UNL     1       2.156   5.525  20.202  0.00  0.00    +0.000 C 
ATOM      4  O   UNL     1       1.536   6.054  21.111  0.00  0.00    +0.000 OA
BRANCH   3   5
ATOM      5  O   UNL     1       2.371   6.079  18.979  0.00  0.00    +0.000 OA
BRANCH   5   6
ATOM      6  C   UNL     1       2.331   7.507  18.967  0.00  0.00    +0.000 C 
BRANCH   6   7
ATOM      7  C   UNL     1       2.758   8.111  17.639  0.00  0.00    +0.000 C 
BRANCH   7   8
ATOM      8  O   UNL     1       1.996   9.305  17.475  0.00  0.00    +0.000 OA
BRANCH   8  10
ATOM      9  C   UNL     1      -0.100  10.082  18.276  0.00  0.00    +0.000 C 
ATOM     10  C   UNL     1       1.318   9.701  18.660  0.00  0.00    +0.000 C 
ENDBRANCH   8  10
ENDBRANCH   7   8
ENDBRANCH   6   7
ENDBRANCH   5   6
ENDBRANCH   3   5
ENDBRANCH   1   3
BRANCH   1  11
ATOM     11  C   UNL     1       2.025   3.220  21.279  0.00  0.00    +0.000 C 
ATOM     12  N   UNL     1       1.498   2.463  22.138  0.00  0.00    +0.000 NA
ENDBRANCH   1  11
BRANCH   2  13
ATOM     13  N   UNL     1       4.133   4.140  18.239  0.00  0.00    +0.000 N 
ATOM     14  H   UNL     1       3.575   4.931  17.900  0.00  0.00    +0.000 HD
BRANCH  13  15
ATOM     15  C   UNL     1       5.527   4.597  18.276  0.00  0.00    +0.000 C 
BRANCH  15  16
ATOM     16  C   UNL     1       6.059   4.690  16.879  0.00  0.00    +0.000 A 
ATOM     17  C   UNL     1       5.582   3.846  15.866  0.00  0.00    +0.000 A 
ATOM     18  C   UNL     1       6.090   3.952  14.578  0.00  0.00    +0.000 A 
ATOM     19  C   UNL     1       7.068   4.902  14.348  0.00  0.00    +0.000 A 
ATOM     20 CL   UNL     1       7.732   5.119  12.784  0.00  0.00    +0.000 Cl
ATOM     21  N   UNL     1       7.569   5.727  15.293  0.00  0.00    +0.000 NA
ATOM     22  C   UNL     1       7.053   5.598  16.535  0.00  0.00    +0.000 A 
ENDBRANCH  15  16
ENDBRANCH  13  15
ENDBRANCH   2  13
TORSDOF 10
ENDMDL
MODEL 4
REMARK VINA RESULT:      -6.0      4.151      7.160
REMARK  Name = 
REMARK  11 active torsions:
REMARK  status: ('A' for Active; 'I' for Inactive)
REMARK    1  A    between atoms: C_1  and  C_2
REMARK    2  A    between atoms: C_2  and  O_3
REMARK    3  A    between atoms: O_3  and  C_4
REMARK    4  A    between atoms: C_4  and  C_5
REMARK    5  A    between atoms: C_5  and  O_6
REMARK    6  A    between atoms: O_6  and  C_7
REMARK    7  A    between atoms: C_7  and  C_9
REMARK    8  A    between atoms: C_9  and  C_10
REMARK    9  A    between atoms: C_12  and  N_13
REMARK   10  A    between atoms: N_13  and  C_14
REMARK   11  A    between atoms: C_14  and  C_15
REMARK                            x       y       z     vdW  Elec       q    Type
REMARK                         _______ _______ _______ _____ _____    ______ ____
ROOT
ATOM      1  C   UNL     1       5.324   6.189  17.811  0.00  0.00    +0.000 C 
ATOM      2  C   UNL     1       4.279   6.944  17.426  0.00  0.00    +0.000 C 
ENDROOT
BRANCH   1   3
ATOM      3  C   UNL     1       5.389   5.396  19.060  0.00  0.00    +0.000 C 
ATOM      4  O   UNL     1       6.414   5.201  19.693  0.00  0.00    +0.000 OA
BRANCH   3   5
ATOM      5  O   UNL     1       4.186   4.824  19.330  0.00  0.00    +0.000 OA
BRANCH   5   6
ATOM      6  C   UNL     1       4.169   3.401  19.192  0.00  0.00    +0.000 C 
BRANCH   6   7
ATOM      7  C   UNL     1       3.944   2.937  17.762  0.00  0.00    +0.000 C 
BRANCH   7   8
ATOM      8  O   UNL     1       2.749   2.159  17.773  0.00  0.00    +0.000 OA
BRANCH   8  10
ATOM      9  C   UNL     1       0.696   2.446  18.931  0.00  0.00    +0.000 C 
ATOM     10  C   UNL     1       2.158   2.063  19.063  0.00  0.00    +0.000 C 
ENDBRANCH   8  10
ENDBRANCH   7   8
ENDBRANCH   6   7
ENDBRANCH   5   6
ENDBRANCH   3   5
ENDBRANCH   1   3
BRANCH   1  11
ATOM     11  C   UNL     1       6.485   6.016  16.846  0.00  0.00    +0.000 C 
ATOM     12  N   UNL     1       7.449   5.872  16.046  0.00  0.00    +0.000 NA
ENDBRANCH   1  11
BRANCH   2  13
ATOM     13  N   UNL     1       3.034   7.140  18.012  0.00  0.00    +0.000 N 
ATOM     14  H   UNL     1       3.093   6.944  19.017  0.00  0.00    +0.000 HD
BRANCH  13  15
ATOM     15  C   UNL     1       2.341   8.427  17.876  0.00  0.00    +0.000 C 
BRANCH  15  16
ATOM     16  C   UNL     1       1.641   8.754  19.160  0.00  0.00    +0.000 A 
ATOM     17  C   UNL     1       1.744   7.910  20.274  0.00  0.00    +0.000 A 
ATOM     18  C   UNL     1       1.086   8.234  21.453  0.00  0.00    +0.000 A 
ATOM     19  C   UNL     1       0.341   9.398  21.474  0.00  0.00    +0.000 A 
ATOM     20 CL   UNL     1      -0.482   9.890  22.895  0.00  0.00    +0.000 Cl
ATOM     21  N   UNL     1       0.200  10.236  20.423  0.00  0.00    +0.000 NA
ATOM     22  C   UNL     1       0.853   9.890  19.292  0.00  0.00    +0.000 A 
ENDBRANCH  15  16
ENDBRANCH  13  15
ENDBRANCH   2  13
TORSDOF 10
ENDMDL
MODEL 5
REMARK VINA RESULT:      -6.0      1.804      2.005
REMARK  Name = 
REMARK  11 active torsions:
REMARK  status: ('A' for Active; 'I' for Inactive)
REMARK    1  A    between atoms: C_1  and  C_2
REMARK    2  A    between atoms: C_2  and  O_3
REMARK    3  A    between atoms: O_3  and  C_4
REMARK    4  A    between atoms: C_4  and  C_5
REMARK    5  A    between atoms: C_5  and  O_6
REMARK    6  A    between atoms: O_6  and  C_7
REMARK    7  A    between atoms: C_7  and  C_9
REMARK    8  A    between atoms: C_9  and  C_10
REMARK    9  A    between atoms: C_12  and  N_13
REMARK   10  A    between atoms: N_13  and  C_14
REMARK   11  A    between atoms: C_14  and  C_15
REMARK                            x       y       z     vdW  Elec       q    Type
REMARK                         _______ _______ _______ _____ _____    ______ ____
ROOT
ATOM      1  C   UNL     1       2.784   3.485  19.867  0.00  0.00    +0.000 C 
ATOM      2  C   UNL     1       4.008   3.082  19.481  0.00  0.00    +0.000 C 
ENDROOT
BRANCH   1   3
ATOM      3  C   UNL     1       1.894   4.374  19.087  0.00  0.00    +0.000 C 
ATOM      4  O   UNL     1       1.659   4.234  17.898  0.00  0.00    +0.000 OA
BRANCH   3   5
ATOM      5  O   UNL     1       1.480   5.425  19.845  0.00  0.00    +0.000 OA
BRANCH   5   6
ATOM      6  C   UNL     1       2.401   6.517  19.887  0.00  0.00    +0.000 C 
BRANCH   6   7
ATOM      7  C   UNL     1       1.725   7.869  20.040  0.00  0.00    +0.000 C 
BRANCH   7   8
ATOM      8  O   UNL     1       1.032   7.835  21.287  0.00  0.00    +0.000 OA
BRANCH   8  10
ATOM      9  C   UNL     1       0.110   9.851  22.138  0.00  0.00    +0.000 C 
ATOM     10  C   UNL     1       1.329   8.948  22.120  0.00  0.00    +0.000 C 
ENDBRANCH   8  10
ENDBRANCH   7   8
ENDBRANCH   6   7
ENDBRANCH   5   6
ENDBRANCH   3   5
ENDBRANCH   1   3
BRANCH   1  11
ATOM     11  C   UNL     1       2.195   2.891  21.136  0.00  0.00    +0.000 C 
ATOM     12  N   UNL     1       1.705   2.399  22.188  0.00  0.00    +0.000 NA
ENDBRANCH   1  11
BRANCH   2  13
ATOM     13  N   UNL     1       4.715   3.317  18.308  0.00  0.00    +0.000 N 
ATOM     14  H   UNL     1       4.082   3.243  17.504  0.00  0.00    +0.000 HD
BRANCH  13  15
ATOM     15  C   UNL     1       5.471   4.564  18.130  0.00  0.00    +0.000 C 
BRANCH  15  16
ATOM     16  C   UNL     1       5.966   4.650  16.719  0.00  0.00    +0.000 A 
ATOM     17  C   UNL     1       5.256   4.056  15.666  0.00  0.00    +0.000 A 
ATOM     18  C   UNL     1       5.735   4.149  14.367  0.00  0.00    +0.000 A 
ATOM     19  C   UNL     1       6.918   4.834  14.165  0.00  0.00    +0.000 A 
ATOM     20 CL   UNL     1       7.569   5.021  12.591  0.00  0.00    +0.000 Cl
ATOM     21  N   UNL     1       7.645   5.410  15.148  0.00  0.00    +0.000 NA
ATOM     22  C   UNL     1       7.151   5.301  16.400  0.00  0.00    +0.000 A 
ENDBRANCH  15  16
ENDBRANCH  13  15
ENDBRANCH   2  13
TORSDOF 10
ENDMDL
MODEL 6
REMARK VINA RESULT:      -5.9      0.945      1.318
REMARK  Name = 
REMARK  11 active torsions:
REMARK  status: ('A' for Active; 'I' for Inactive)
REMARK    1  A    between atoms: C_1  and  C_2
REMARK    2  A    between atoms: C_2  and  O_3
REMARK    3  A    between atoms: O_3  and  C_4
REMARK    4  A    between atoms: C_4  and  C_5
REMARK    5  A    between atoms: C_5  and  O_6
REMARK    6  A    between atoms: O_6  and  C_7
REMARK    7  A    between atoms: C_7  and  C_9
REMARK    8  A    between atoms: C_9  and  C_10
REMARK    9  A    between atoms: C_12  and  N_13
REMARK   10  A    between atoms: N_13  and  C_14
REMARK   11  A    between atoms: C_14  and  C_15
REMARK                            x       y       z     vdW  Elec       q    Type
REMARK                         _______ _______ _______ _____ _____    ______ ____
ROOT
ATOM      1  C   UNL     1       3.611   2.848  19.767  0.00  0.00    +0.000 C 
ATOM      2  C   UNL     1       4.762   3.544  19.733  0.00  0.00    +0.000 C 
ENDROOT
BRANCH   1   3
ATOM      3  C   UNL     1       3.040   2.088  18.632  0.00  0.00    +0.000 C 
ATOM      4  O   UNL     1       3.706   1.596  17.735  0.00  0.00    +0.000 OA
BRANCH   3   5
ATOM      5  O   UNL     1       1.681   2.122  18.666  0.00  0.00    +0.000 OA
BRANCH   5   6
ATOM      6  C   UNL     1       1.127   3.439  18.655  0.00  0.00    +0.000 C 
BRANCH   6   7
ATOM      7  C   UNL     1       1.789   4.363  17.647  0.00  0.00    +0.000 C 
BRANCH   7   8
ATOM      8  O   UNL     1       1.860   5.648  18.263  0.00  0.00    +0.000 OA
BRANCH   8  10
ATOM      9  C   UNL     1       2.604   7.892  18.042  0.00  0.00    +0.000 C 
ATOM     10  C   UNL     1       2.944   6.435  17.787  0.00  0.00    +0.000 C 
ENDBRANCH   8  10
ENDBRANCH   7   8
ENDBRANCH   6   7
ENDBRANCH   5   6
ENDBRANCH   3   5
ENDBRANCH   1   3
BRANCH   1  11
ATOM     11  C   UNL     1       2.891   2.708  21.098  0.00  0.00    +0.000 C 
ATOM     12  N   UNL     1       2.294   2.593  22.202  0.00  0.00    +0.000 NA
ENDBRANCH   1  11
BRANCH   2  13
ATOM     13  N   UNL     1       5.703   3.695  18.721  0.00  0.00    +0.000 N 
ATOM     14  H   UNL     1       5.501   3.035  17.962  0.00  0.00    +0.000 HD
BRANCH  13  15
ATOM     15  C   UNL     1       5.918   5.004  18.091  0.00  0.00    +0.000 C 
BRANCH  15  16
ATOM     16  C   UNL     1       6.174   4.817  16.627  0.00  0.00    +0.000 A 
ATOM     17  C   UNL     1       5.247   4.154  15.811  0.00  0.00    +0.000 A 
ATOM     18  C   UNL     1       5.506   3.992  14.456  0.00  0.00    +0.000 A 
ATOM     19  C   UNL     1       6.694   4.500  13.964  0.00  0.00    +0.000 A 
ATOM     20 CL   UNL     1       7.083   4.370  12.300  0.00  0.00    +0.000 Cl
ATOM     21  N   UNL     1       7.623   5.133  14.713  0.00  0.00    +0.000 NA
ATOM     22  C   UNL     1       7.340   5.273  16.026  0.00  0.00    +0.000 A 
ENDBRANCH  15  16
ENDBRANCH  13  15
ENDBRANCH   2  13
TORSDOF 10
ENDMDL
MODEL 7
REMARK VINA RESULT:      -5.8      3.927      6.706
REMARK  Name = 
REMARK  11 active torsions:
REMARK  status: ('A' for Active; 'I' for Inactive)
REMARK    1  A    between atoms: C_1  and  C_2
REMARK    2  A    between atoms: C_2  and  O_3
REMARK    3  A    between atoms: O_3  and  C_4
REMARK    4  A    between atoms: C_4  and  C_5
REMARK    5  A    between atoms: C_5  and  O_6
REMARK    6  A    between atoms: O_6  and  C_7
REMARK    7  A    between atoms: C_7  and  C_9
REMARK    8  A    between atoms: C_9  and  C_10
REMARK    9  A    between atoms: C_12  and  N_13
REMARK   10  A    between atoms: N_13  and  C_14
REMARK   11  A    between atoms: C_14  and  C_15
REMARK                            x       y       z     vdW  Elec       q    Type
REMARK                         _______ _______ _______ _____ _____    ______ ____
ROOT
ATOM      1  C   UNL     1       5.910   4.045  14.942  0.00  0.00    +0.000 C 
ATOM      2  C   UNL     1       4.772   3.514  15.424  0.00  0.00    +0.000 C 
ENDROOT
BRANCH   1   3
ATOM      3  C   UNL     1       6.940   4.734  15.753  0.00  0.00    +0.000 C 
ATOM      4  O   UNL     1       7.700   5.583  15.315  0.00  0.00    +0.000 OA
BRANCH   3   5
ATOM      5  O   UNL     1       7.000   4.205  17.005  0.00  0.00    +0.000 OA
BRANCH   5   6
ATOM      6  C   UNL     1       7.979   4.811  17.851  0.00  0.00    +0.000 C 
BRANCH   6   7
ATOM      7  C   UNL     1       7.388   5.791  18.851  0.00  0.00    +0.000 C 
BRANCH   7   8
ATOM      8  O   UNL     1       8.180   6.974  18.774  0.00  0.00    +0.000 OA
BRANCH   8  10
ATOM      9  C   UNL     1       8.323   9.238  18.070  0.00  0.00    +0.000 C 
ATOM     10  C   UNL     1       7.751   7.868  17.755  0.00  0.00    +0.000 C 
ENDBRANCH   8  10
ENDBRANCH   7   8
ENDBRANCH   6   7
ENDBRANCH   5   6
ENDBRANCH   3   5
ENDBRANCH   1   3
BRANCH   1  11
ATOM     11  C   UNL     1       6.251   3.819  13.478  0.00  0.00    +0.000 C 
ATOM     12  N   UNL     1       6.532   3.631  12.264  0.00  0.00    +0.000 NA
ENDBRANCH   1  11
BRANCH   2  13
ATOM     13  N   UNL     1       4.295   3.414  16.725  0.00  0.00    +0.000 N 
ATOM     14  H   UNL     1       5.077   3.246  17.367  0.00  0.00    +0.000 HD
BRANCH  13  15
ATOM     15  C   UNL     1       3.499   4.500  17.312  0.00  0.00    +0.000 C 
BRANCH  15  16
ATOM     16  C   UNL     1       2.858   4.020  18.578  0.00  0.00    +0.000 A 
ATOM     17  C   UNL     1       1.553   4.404  18.918  0.00  0.00    +0.000 A 
ATOM     18  C   UNL     1       0.980   3.946  20.097  0.00  0.00    +0.000 A 
ATOM     19  C   UNL     1       1.739   3.117  20.902  0.00  0.00    +0.000 A 
ATOM     20 CL   UNL     1       1.102   2.484  22.361  0.00  0.00    +0.000 Cl
ATOM     21  N   UNL     1       3.004   2.731  20.624  0.00  0.00    +0.000 NA
ATOM     22  C   UNL     1       3.531   3.195  19.470  0.00  0.00    +0.000 A 
ENDBRANCH  15  16
ENDBRANCH  13  15
ENDBRANCH   2  13
TORSDOF 10
ENDMDL
MODEL 8
REMARK VINA RESULT:      -5.8      0.857      1.115
REMARK  Name = 
REMARK  11 active torsions:
REMARK  status: ('A' for Active; 'I' for Inactive)
REMARK    1  A    between atoms: C_1  and  C_2
REMARK    2  A    between atoms: C_2  and  O_3
REMARK    3  A    between atoms: O_3  and  C_4
REMARK    4  A    between atoms: C_4  and  C_5
REMARK    5  A    between atoms: C_5  and  O_6
REMARK    6  A    between atoms: O_6  and  C_7
REMARK    7  A    between atoms: C_7  and  C_9
REMARK    8  A    between atoms: C_9  and  C_10
REMARK    9  A    between atoms: C_12  and  N_13
REMARK   10  A    between atoms: N_13  and  C_14
REMARK   11  A    between atoms: C_14  and  C_15
REMARK                            x       y       z     vdW  Elec       q    Type
REMARK                         _______ _______ _______ _____ _____    ______ ____
ROOT
ATOM      1  C   UNL     1       3.017   3.563  19.372  0.00  0.00    +0.000 C 
ATOM      2  C   UNL     1       4.316   3.266  19.561  0.00  0.00    +0.000 C 
ENDROOT
BRANCH   1   3
ATOM      3  C   UNL     1       2.441   4.117  18.126  0.00  0.00    +0.000 C 
ATOM      4  O   UNL     1       1.699   3.497  17.381  0.00  0.00    +0.000 OA
BRANCH   3   5
ATOM      5  O   UNL     1       2.947   5.353  17.870  0.00  0.00    +0.000 OA
BRANCH   5   6
ATOM      6  C   UNL     1       1.989   6.410  17.961  0.00  0.00    +0.000 C 
BRANCH   6   7
ATOM      7  C   UNL     1       2.619   7.780  18.144  0.00  0.00    +0.000 C 
BRANCH   7   8
ATOM      8  O   UNL     1       1.823   8.465  19.109  0.00  0.00    +0.000 OA
BRANCH   8  10
ATOM      9  C   UNL     1       0.072   9.734  18.127  0.00  0.00    +0.000 C 
ATOM     10  C   UNL     1       1.473   9.783  18.709  0.00  0.00    +0.000 C 
ENDBRANCH   8  10
ENDBRANCH   7   8
ENDBRANCH   6   7
ENDBRANCH   5   6
ENDBRANCH   3   5
ENDBRANCH   1   3
BRANCH   1  11
ATOM     11  C   UNL     1       2.025   3.187  20.460  0.00  0.00    +0.000 C 
ATOM     12  N   UNL     1       1.201   2.875  21.362  0.00  0.00    +0.000 NA
ENDBRANCH   1  11
BRANCH   2  13
ATOM     13  N   UNL     1       5.399   3.334  18.692  0.00  0.00    +0.000 N 
ATOM     14  H   UNL     1       5.166   2.858  17.814  0.00  0.00    +0.000 HD
BRANCH  13  15
ATOM     15  C   UNL     1       5.979   4.631  18.325  0.00  0.00    +0.000 C 
BRANCH  15  16
ATOM     16  C   UNL     1       6.284   4.644  16.858  0.00  0.00    +0.000 A 
ATOM     17  C   UNL     1       5.517   3.894  15.954  0.00  0.00    +0.000 A 
ATOM     18  C   UNL     1       5.818   3.922  14.600  0.00  0.00    +0.000 A 
ATOM     19  C   UNL     1       6.886   4.700  14.194  0.00  0.00    +0.000 A 
ATOM     20 CL   UNL     1       7.312   4.814  12.538  0.00  0.00    +0.000 Cl
ATOM     21  N   UNL     1       7.662   5.428  15.027  0.00  0.00    +0.000 NA
ATOM     22  C   UNL     1       7.341   5.379  16.338  0.00  0.00    +0.000 A 
ENDBRANCH  15  16
ENDBRANCH  13  15
ENDBRANCH   2  13
TORSDOF 10
ENDMDL
MODEL 9
REMARK VINA RESULT:      -5.8      0.954      1.245
REMARK  Name = 
REMARK  11 active torsions:
REMARK  status: ('A' for Active; 'I' for Inactive)
REMARK    1  A    between atoms: C_1  and  C_2
REMARK    2  A    between atoms: C_2  and  O_3
REMARK    3  A    between atoms: O_3  and  C_4
REMARK    4  A    between atoms: C_4  and  C_5
REMARK    5  A    between atoms: C_5  and  O_6
REMARK    6  A    between atoms: O_6  and  C_7
REMARK    7  A    between atoms: C_7  and  C_9
REMARK    8  A    between atoms: C_9  and  C_10
REMARK    9  A    between atoms: C_12  and  N_13
REMARK   10  A    between atoms: N_13  and  C_14
REMARK   11  A    between atoms: C_14  and  C_15
REMARK                            x       y       z     vdW  Elec       q    Type
REMARK                         _______ _______ _______ _____ _____    ______ ____
ROOT
ATOM      1  C   UNL     1       2.889   3.157  19.817  0.00  0.00    +0.000 C 
ATOM      2  C   UNL     1       4.232   3.068  19.833  0.00  0.00    +0.000 C 
ENDROOT
BRANCH   1   3
ATOM      3  C   UNL     1       2.067   3.435  18.618  0.00  0.00    +0.000 C 
ATOM      4  O   UNL     1       1.248   2.656  18.156  0.00  0.00    +0.000 OA
BRANCH   3   5
ATOM      5  O   UNL     1       2.438   4.609  18.041  0.00  0.00    +0.000 OA
BRANCH   5   6
ATOM      6  C   UNL     1       2.253   5.756  18.874  0.00  0.00    +0.000 C 
BRANCH   6   7
ATOM      7  C   UNL     1       2.970   6.994  18.363  0.00  0.00    +0.000 C 
BRANCH   7   8
ATOM      8  O   UNL     1       2.233   8.115  18.846  0.00  0.00    +0.000 OA
BRANCH   8  10
ATOM      9  C   UNL     1       0.831   9.985  18.427  0.00  0.00    +0.000 C 
ATOM     10  C   UNL     1       1.774   8.970  17.808  0.00  0.00    +0.000 C 
ENDBRANCH   8  10
ENDBRANCH   7   8
ENDBRANCH   6   7
ENDBRANCH   5   6
ENDBRANCH   3   5
ENDBRANCH   1   3
BRANCH   1  11
ATOM     11  C   UNL     1       2.128   2.823  21.089  0.00  0.00    +0.000 C 
ATOM     12  N   UNL     1       1.496   2.546  22.145  0.00  0.00    +0.000 NA
ENDBRANCH   1  11
BRANCH   2  13
ATOM     13  N   UNL     1       5.160   3.147  18.802  0.00  0.00    +0.000 N 
ATOM     14  H   UNL     1       4.765   2.733  17.951  0.00  0.00    +0.000 HD
BRANCH  13  15
ATOM     15  C   UNL     1       5.731   4.442  18.411  0.00  0.00    +0.000 C 
BRANCH  15  16
ATOM     16  C   UNL     1       6.024   4.435  16.942  0.00  0.00    +0.000 A 
ATOM     17  C   UNL     1       7.259   4.879  16.449  0.00  0.00    +0.000 A 
ATOM     18  C   UNL     1       7.507   4.863  15.083  0.00  0.00    +0.000 A 
ATOM     19  C   UNL     1       6.502   4.404  14.252  0.00  0.00    +0.000 A 
ATOM     20 CL   UNL     1       6.731   4.324  12.556  0.00  0.00    +0.000 Cl
ATOM     21  N   UNL     1       5.292   3.980  14.678  0.00  0.00    +0.000 NA
ATOM     22  C   UNL     1       5.084   4.009  16.013  0.00  0.00    +0.000 A 
ENDBRANCH  15  16
ENDBRANCH  13  15
ENDBRANCH   2  13
TORSDOF 10
ENDMDL
