MODEL 1
REMARK VINA RESULT:      -7.5      0.000      0.000
REMARK  Name = 
REMARK  13 active torsions:
REMARK  status: ('A' for Active; 'I' for Inactive)
REMARK    1  A    between atoms: C_1  and  O_2
REMARK    2  A    between atoms: O_2  and  C_3
REMARK    3  A    between atoms: C_5  and  N_6
REMARK    4  A    between atoms: N_6  and  C_7
REMARK    5  A    between atoms: C_7  and  N_9
REMARK    6  A    between atoms: N_9  and  C_10
REMARK    7  A    between atoms: C_10  and  C_11
REMARK    8  A    between atoms: C_14  and  C_15
REMARK    9  A    between atoms: C_15  and  C_16
REMARK   10  A    between atoms: C_15  and  C_17
REMARK   11  A    between atoms: C_15  and  C_18
REMARK   12  A    between atoms: C_23  and  N_24
REMARK   13  A    between atoms: C_25  and  C_27
REMARK                            x       y       z     vdW  Elec       q    Type
REMARK                         _______ _______ _______ _____ _____    ______ ____
ROOT
ATOM      1  C   UNL     1       1.140   9.750  20.722  0.00  0.00    +0.000 A 
ATOM      2  C   UNL     1       0.886  11.051  20.231  0.00  0.00    +0.000 A 
ATOM      3  C   UNL     1       0.993  11.341  18.864  0.00  0.00    +0.000 A 
ATOM      4  C   UNL     1       1.291  10.305  17.998  0.00  0.00    +0.000 A 
ATOM      5  C   UNL     1       1.481   9.009  18.462  0.00  0.00    +0.000 A 
ATOM      6  C   UNL     1       1.401   8.706  19.816  0.00  0.00    +0.000 A 
ENDROOT
BRANCH   6   7
ATOM      7  N   UNL     1       1.524   7.365  20.259  0.00  0.00    +0.000 N 
ATOM      8  C   UNL     1       2.356   6.412  19.683  0.00  0.00    +0.000 C 
ATOM      9  O   UNL     1       3.273   6.656  18.905  0.00  0.00    +0.000 OA
ATOM     10  H   UNL     1       0.959   7.118  21.065  0.00  0.00    +0.000 HD
BRANCH   8  11
ATOM     11  C   UNL     1       2.131   4.975  19.995  0.00  0.00    +0.000 A 
ATOM     12  C   UNL     1       2.356   4.606  21.341  0.00  0.00    +0.000 A 
ATOM     13  C   UNL     1       2.118   3.305  21.785  0.00  0.00    +0.000 A 
ATOM     14  C   UNL     1       1.652   2.351  20.889  0.00  0.00    +0.000 A 
ATOM     15  C   UNL     1       1.443   2.698  19.553  0.00  0.00    +0.000 A 
ATOM     16  C   UNL     1       1.682   4.002  19.097  0.00  0.00    +0.000 A 
ATOM     17 CL   UNL     1       1.348   4.313  17.432  0.00  0.00    +0.000 Cl
ENDBRANCH   8  11
ENDBRANCH   6   7
BRANCH   1  19
ATOM     18  C   UNL     1      -0.122   9.572  22.704  0.00  0.00    +0.000 C 
ATOM     19  O   UNL     1       1.156   9.460  22.065  0.00  0.00    +0.000 OA
ENDBRANCH   1  19
BRANCH   3  20
ATOM     20  N   UNL     1       0.783  12.674  18.453  0.00  0.00    +0.000 N 
ATOM     21  H   UNL     1       0.802  12.813  17.452  0.00  0.00    +0.000 HD
BRANCH  20  22
ATOM     22  C   UNL     1       0.567  13.840  19.183  0.00  0.00    +0.000 C 
ATOM     23  S   UNL     1       1.678  14.929  19.806  0.00  0.00    +0.000 S 
BRANCH  22  24
ATOM     24  N   UNL     1      -0.797  14.016  19.364  0.00  0.00    +0.000 N 
ATOM     25  H   UNL     1      -1.378  13.897  18.545  0.00  0.00    +0.000 HD
BRANCH  24  26
ATOM     26  C   UNL     1      -1.473  13.785  20.628  0.00  0.00    +0.000 C 
BRANCH  26  27
ATOM     27  C   UNL     1      -2.831  13.209  20.391  0.00  0.00    +0.000 A 
ATOM     28  C   UNL     1      -3.890  13.526  21.241  0.00  0.00    +0.000 A 
ATOM     29  C   UNL     1      -5.159  13.008  21.000  0.00  0.00    +0.000 A 
ATOM     30  C   UNL     1      -5.407  12.158  19.909  0.00  0.00    +0.000 A 
ATOM     31  C   UNL     1      -4.321  11.818  19.086  0.00  0.00    +0.000 A 
ATOM     32  C   UNL     1      -3.044  12.335  19.323  0.00  0.00    +0.000 A 
BRANCH  30  33
ATOM     33  C   UNL     1      -6.811  11.627  19.587  0.00  0.00    +0.000 C 
ATOM     34  C   UNL     1      -6.795  10.234  18.921  0.00  0.00    +0.000 C 
ATOM     35  C   UNL     1      -7.620  11.505  20.896  0.00  0.00    +0.000 C 
ATOM     36  C   UNL     1      -7.535  12.593  18.628  0.00  0.00    +0.000 C 
ENDBRANCH  30  33
ENDBRANCH  26  27
ENDBRANCH  24  26
ENDBRANCH  22  24
ENDBRANCH  20  22
ENDBRANCH   3  20
TORSDOF 9
ENDMDL
MODEL 2
REMARK VINA RESULT:      -7.4      3.942     10.262
REMARK  Name = 
REMARK  13 active torsions:
REMARK  status: ('A' for Active; 'I' for Inactive)
REMARK    1  A    between atoms: C_1  and  O_2
REMARK    2  A    between atoms: O_2  and  C_3
REMARK    3  A    between atoms: C_5  and  N_6
REMARK    4  A    between atoms: N_6  and  C_7
REMARK    5  A    between atoms: C_7  and  N_9
REMARK    6  A    between atoms: N_9  and  C_10
REMARK    7  A    between atoms: C_10  and  C_11
REMARK    8  A    between atoms: C_14  and  C_15
REMARK    9  A    between atoms: C_15  and  C_16
REMARK   10  A    between atoms: C_15  and  C_17
REMARK   11  A    between atoms: C_15  and  C_18
REMARK   12  A    between atoms: C_23  and  N_24
REMARK   13  A    between atoms: C_25  and  C_27
REMARK                            x       y       z     vdW  Elec       q    Type
REMARK                         _______ _______ _______ _____ _____    ______ ____
ROOT
ATOM      1  C   UNL     1       0.972   9.544  19.958  0.00  0.00    +0.000 A 
ATOM      2  C   UNL     1       1.663   8.311  19.963  0.00  0.00    +0.000 A 
ATOM      3  C   UNL     1       1.382   7.330  20.922  0.00  0.00    +0.000 A 
ATOM      4  C   UNL     1       0.364   7.572  21.826  0.00  0.00    +0.000 A 
ATOM      5  C   UNL     1      -0.365   8.754  21.791  0.00  0.00    +0.000 A 
ATOM      6  C   UNL     1      -0.086   9.749  20.862  0.00  0.00    +0.000 A 
ENDROOT
BRANCH   6   7
ATOM      7  N   UNL     1      -0.891  10.915  20.797  0.00  0.00    +0.000 N 
ATOM      8  C   UNL     1      -1.102  11.793  21.853  0.00  0.00    +0.000 C 
ATOM      9  O   UNL     1      -0.431  11.835  22.879  0.00  0.00    +0.000 OA
ATOM     10  H   UNL     1      -1.320  11.099  19.895  0.00  0.00    +0.000 HD
BRANCH   8  11
ATOM     11  C   UNL     1      -2.232  12.758  21.774  0.00  0.00    +0.000 A 
ATOM     12  C   UNL     1      -3.306  12.505  22.657  0.00  0.00    +0.000 A 
ATOM     13  C   UNL     1      -4.400  13.368  22.736  0.00  0.00    +0.000 A 
ATOM     14  C   UNL     1      -4.436  14.499  21.930  0.00  0.00    +0.000 A 
ATOM     15  C   UNL     1      -3.390  14.751  21.040  0.00  0.00    +0.000 A 
ATOM     16  C   UNL     1      -2.289  13.887  20.953  0.00  0.00    +0.000 A 
ATOM     17 CL   UNL     1      -1.044  14.331  19.842  0.00  0.00    +0.000 Cl
ENDBRANCH   8  11
ENDBRANCH   6   7
BRANCH   1  19
ATOM     18  C   UNL     1       2.077  10.163  17.971  0.00  0.00    +0.000 C 
ATOM     19  O   UNL     1       1.302  10.570  19.105  0.00  0.00    +0.000 OA
ENDBRANCH   1  19
BRANCH   3  20
ATOM     20  N   UNL     1       2.151   6.148  20.903  0.00  0.00    +0.000 N 
ATOM     21  H   UNL     1       3.143   6.288  21.041  0.00  0.00    +0.000 HD
BRANCH  20  22
ATOM     22  C   UNL     1       1.790   4.816  20.713  0.00  0.00    +0.000 C 
ATOM     23  S   UNL     1       2.204   3.461  21.609  0.00  0.00    +0.000 S 
BRANCH  22  24
ATOM     24  N   UNL     1       0.981   4.721  19.591  0.00  0.00    +0.000 N 
ATOM     25  H   UNL     1       0.355   5.496  19.421  0.00  0.00    +0.000 HD
BRANCH  24  26
ATOM     26  C   UNL     1       1.339   3.958  18.409  0.00  0.00    +0.000 C 
BRANCH  26  27
ATOM     27  C   UNL     1       2.717   4.319  17.958  0.00  0.00    +0.000 A 
ATOM     28  C   UNL     1       3.034   5.640  17.645  0.00  0.00    +0.000 A 
ATOM     29  C   UNL     1       4.326   5.975  17.250  0.00  0.00    +0.000 A 
ATOM     30  C   UNL     1       5.336   5.003  17.153  0.00  0.00    +0.000 A 
ATOM     31  C   UNL     1       4.990   3.672  17.435  0.00  0.00    +0.000 A 
ATOM     32  C   UNL     1       3.694   3.329  17.831  0.00  0.00    +0.000 A 
BRANCH  30  33
ATOM     33  C   UNL     1       6.782   5.360  16.784  0.00  0.00    +0.000 C 
ATOM     34  C   UNL     1       7.096   5.150  15.286  0.00  0.00    +0.000 C 
ATOM     35  C   UNL     1       7.036   6.849  17.104  0.00  0.00    +0.000 C 
ATOM     36  C   UNL     1       7.766   4.490  17.591  0.00  0.00    +0.000 C 
ENDBRANCH  30  33
ENDBRANCH  26  27
ENDBRANCH  24  26
ENDBRANCH  22  24
ENDBRANCH  20  22
ENDBRANCH   3  20
TORSDOF 9
ENDMDL
MODEL 3
REMARK VINA RESULT:      -7.3      4.072     10.199
REMARK  Name = 
REMARK  13 active torsions:
REMARK  status: ('A' for Active; 'I' for Inactive)
REMARK    1  A    between atoms: C_1  and  O_2
REMARK    2  A    between atoms: O_2  and  C_3
REMARK    3  A    between atoms: C_5  and  N_6
REMARK    4  A    between atoms: N_6  and  C_7
REMARK    5  A    between atoms: C_7  and  N_9
REMARK    6  A    between atoms: N_9  and  C_10
REMARK    7  A    between atoms: C_10  and  C_11
REMARK    8  A    between atoms: C_14  and  C_15
REMARK    9  A    between atoms: C_15  and  C_16
REMARK   10  A    between atoms: C_15  and  C_17
REMARK   11  A    between atoms: C_15  and  C_18
REMARK   12  A    between atoms: C_23  and  N_24
REMARK   13  A    between atoms: C_25  and  C_27
REMARK                            x       y       z     vdW  Elec       q    Type
REMARK                         _______ _______ _______ _____ _____    ______ ____
ROOT
ATOM      1  C   UNL     1       0.517   8.754  21.086  0.00  0.00    +0.000 A 
ATOM      2  C   UNL     1       0.964   7.481  21.505  0.00  0.00    +0.000 A 
ATOM      3  C   UNL     1       1.818   6.714  20.702  0.00  0.00    +0.000 A 
ATOM      4  C   UNL     1       2.267   7.264  19.516  0.00  0.00    +0.000 A 
ATOM      5  C   UNL     1       1.885   8.540  19.122  0.00  0.00    +0.000 A 
ATOM      6  C   UNL     1       1.020   9.307  19.893  0.00  0.00    +0.000 A 
ENDROOT
BRANCH   6   7
ATOM      7  N   UNL     1       0.703  10.635  19.510  0.00  0.00    +0.000 N 
ATOM      8  C   UNL     1       1.045  11.772  20.231  0.00  0.00    +0.000 C 
ATOM      9  O   UNL     1       1.876  11.811  21.132  0.00  0.00    +0.000 OA
ATOM     10  H   UNL     1       0.198  10.726  18.634  0.00  0.00    +0.000 HD
BRANCH   8  11
ATOM     11  C   UNL     1       0.355  13.055  19.926  0.00  0.00    +0.000 A 
ATOM     12  C   UNL     1      -0.828  13.295  20.661  0.00  0.00    +0.000 A 
ATOM     13  C   UNL     1      -1.538  14.488  20.523  0.00  0.00    +0.000 A 
ATOM     14  C   UNL     1      -1.075  15.461  19.646  0.00  0.00    +0.000 A 
ATOM     15  C   UNL     1       0.083  15.229  18.900  0.00  0.00    +0.000 A 
ATOM     16  C   UNL     1       0.800  14.031  19.031  0.00  0.00    +0.000 A 
ATOM     17 CL   UNL     1       2.236  13.882  18.082  0.00  0.00    +0.000 Cl
ENDBRANCH   8  11
ENDBRANCH   6   7
BRANCH   1  19
ATOM     18  C   UNL     1      -0.141   9.561  23.199  0.00  0.00    +0.000 C 
ATOM     19  O   UNL     1      -0.410   9.481  21.794  0.00  0.00    +0.000 OA
ENDBRANCH   1  19
BRANCH   3  20
ATOM     20  N   UNL     1       2.177   5.428  21.158  0.00  0.00    +0.000 N 
ATOM     21  H   UNL     1       2.787   5.422  21.964  0.00  0.00    +0.000 HD
BRANCH  20  22
ATOM     22  C   UNL     1       1.851   4.159  20.687  0.00  0.00    +0.000 C 
ATOM     23  S   UNL     1       0.544   3.671  19.757  0.00  0.00    +0.000 S 
BRANCH  22  24
ATOM     24  N   UNL     1       2.809   3.254  21.118  0.00  0.00    +0.000 N 
ATOM     25  H   UNL     1       2.661   2.842  22.028  0.00  0.00    +0.000 HD
BRANCH  24  26
ATOM     26  C   UNL     1       3.622   2.459  20.215  0.00  0.00    +0.000 C 
BRANCH  26  27
ATOM     27  C   UNL     1       4.268   3.336  19.192  0.00  0.00    +0.000 A 
ATOM     28  C   UNL     1       5.212   4.288  19.574  0.00  0.00    +0.000 A 
ATOM     29  C   UNL     1       5.830   5.085  18.613  0.00  0.00    +0.000 A 
ATOM     30  C   UNL     1       5.522   4.956  17.249  0.00  0.00    +0.000 A 
ATOM     31  C   UNL     1       4.541   4.019  16.886  0.00  0.00    +0.000 A 
ATOM     32  C   UNL     1       3.917   3.217  17.846  0.00  0.00    +0.000 A 
BRANCH  30  33
ATOM     33  C   UNL     1       6.238   5.777  16.167  0.00  0.00    +0.000 C 
ATOM     34  C   UNL     1       7.288   6.753  16.742  0.00  0.00    +0.000 C 
ATOM     35  C   UNL     1       6.974   4.819  15.206  0.00  0.00    +0.000 C 
ATOM     36  C   UNL     1       5.214   6.612  15.371  0.00  0.00    +0.000 C 
ENDBRANCH  30  33
ENDBRANCH  26  27
ENDBRANCH  24  26
ENDBRANCH  22  24
ENDBRANCH  20  22
ENDBRANCH   3  20
TORSDOF 9
ENDMDL
MODEL 4
REMARK VINA RESULT:      -7.2      3.059      6.104
REMARK  Name = 
REMARK  13 active torsions:
REMARK  status: ('A' for Active; 'I' for Inactive)
REMARK    1  A    between atoms: C_1  and  O_2
REMARK    2  A    between atoms: O_2  and  C_3
REMARK    3  A    between atoms: C_5  and  N_6
REMARK    4  A    between atoms: N_6  and  C_7
REMARK    5  A    between atoms: C_7  and  N_9
REMARK    6  A    between atoms: N_9  and  C_10
REMARK    7  A    between atoms: C_10  and  C_11
REMARK    8  A    between atoms: C_14  and  C_15
REMARK    9  A    between atoms: C_15  and  C_16
REMARK   10  A    between atoms: C_15  and  C_17
REMARK   11  A    between atoms: C_15  and  C_18
REMARK   12  A    between atoms: C_23  and  N_24
REMARK   13  A    between atoms: C_25  and  C_27
REMARK                            x       y       z     vdW  Elec       q    Type
REMARK                         _______ _______ _______ _____ _____    ______ ____
ROOT
ATOM      1  C   UNL     1       1.081   8.784  20.370  0.00  0.00    +0.000 A 
ATOM      2  C   UNL     1       0.364   9.917  19.922  0.00  0.00    +0.000 A 
ATOM      3  C   UNL     1       0.603  10.469  18.656  0.00  0.00    +0.000 A 
ATOM      4  C   UNL     1       1.514   9.837  17.830  0.00  0.00    +0.000 A 
ATOM      5  C   UNL     1       2.179   8.687  18.235  0.00  0.00    +0.000 A 
ATOM      6  C   UNL     1       1.972   8.137  19.495  0.00  0.00    +0.000 A 
ENDROOT
BRANCH   6   7
ATOM      7  N   UNL     1       2.605   6.922  19.860  0.00  0.00    +0.000 N 
ATOM      8  C   UNL     1       2.461   5.718  19.181  0.00  0.00    +0.000 C 
ATOM      9  O   UNL     1       1.999   5.597  18.051  0.00  0.00    +0.000 OA
ATOM     10  H   UNL     1       3.209   6.972  20.674  0.00  0.00    +0.000 HD
BRANCH   8  11
ATOM     11  C   UNL     1       2.872   4.456  19.855  0.00  0.00    +0.000 A 
ATOM     12  C   UNL     1       2.047   4.047  20.927  0.00  0.00    +0.000 A 
ATOM     13  C   UNL     1       2.277   2.848  21.603  0.00  0.00    +0.000 A 
ATOM     14  C   UNL     1       3.338   2.040  21.217  0.00  0.00    +0.000 A 
ATOM     15  C   UNL     1       4.172   2.441  20.170  0.00  0.00    +0.000 A 
ATOM     16  C   UNL     1       3.949   3.645  19.488  0.00  0.00    +0.000 A 
ATOM     17 CL   UNL     1       5.027   4.009  18.189  0.00  0.00    +0.000 Cl
ENDBRANCH   8  11
ENDBRANCH   6   7
BRANCH   1  19
ATOM     18  C   UNL     1       0.698   9.290  22.640  0.00  0.00    +0.000 C 
ATOM     19  O   UNL     1       0.953   8.289  21.646  0.00  0.00    +0.000 OA
ENDBRANCH   1  19
BRANCH   3  20
ATOM     20  N   UNL     1      -0.107  11.633  18.298  0.00  0.00    +0.000 N 
ATOM     21  H   UNL     1       0.134  12.012  17.393  0.00  0.00    +0.000 HD
BRANCH  20  22
ATOM     22  C   UNL     1      -1.076  12.368  18.979  0.00  0.00    +0.000 C 
ATOM     23  S   UNL     1      -2.728  12.104  19.093  0.00  0.00    +0.000 S 
BRANCH  22  24
ATOM     24  N   UNL     1      -0.472  13.448  19.603  0.00  0.00    +0.000 N 
ATOM     25  H   UNL     1       0.113  13.237  20.399  0.00  0.00    +0.000 HD
BRANCH  24  26
ATOM     26  C   UNL     1      -0.146  14.687  18.920  0.00  0.00    +0.000 C 
BRANCH  26  27
ATOM     27  C   UNL     1       1.332  14.904  18.918  0.00  0.00    +0.000 A 
ATOM     28  C   UNL     1       1.887  15.981  18.228  0.00  0.00    +0.000 A 
ATOM     29  C   UNL     1       3.263  16.193  18.251  0.00  0.00    +0.000 A 
ATOM     30  C   UNL     1       4.122  15.336  18.959  0.00  0.00    +0.000 A 
ATOM     31  C   UNL     1       3.551  14.235  19.616  0.00  0.00    +0.000 A 
ATOM     32  C   UNL     1       2.170  14.017  19.596  0.00  0.00    +0.000 A 
BRANCH  30  33
ATOM     33  C   UNL     1       5.634  15.588  19.052  0.00  0.00    +0.000 C 
ATOM     34  C   UNL     1       6.252  15.087  20.376  0.00  0.00    +0.000 C 
ATOM     35  C   UNL     1       6.344  14.845  17.900  0.00  0.00    +0.000 C 
ATOM     36  C   UNL     1       5.928  17.098  18.944  0.00  0.00    +0.000 C 
ENDBRANCH  30  33
ENDBRANCH  26  27
ENDBRANCH  24  26
ENDBRANCH  22  24
ENDBRANCH  20  22
ENDBRANCH   3  20
TORSDOF 9
ENDMDL
MODEL 5
REMARK VINA RESULT:      -7.2      2.607      4.223
REMARK  Name = 
REMARK  13 active torsions:
REMARK  status: ('A' for Active; 'I' for Inactive)
REMARK    1  A    between atoms: C_1  and  O_2
REMARK    2  A    between atoms: O_2  and  C_3
REMARK    3  A    between atoms: C_5  and  N_6
REMARK    4  A    between atoms: N_6  and  C_7
REMARK    5  A    between atoms: C_7  and  N_9
REMARK    6  A    between atoms: N_9  and  C_10
REMARK    7  A    between atoms: C_10  and  C_11
REMARK    8  A    between atoms: C_14  and  C_15
REMARK    9  A    between atoms: C_15  and  C_16
REMARK   10  A    between atoms: C_15  and  C_17
REMARK   11  A    between atoms: C_15  and  C_18
REMARK   12  A    between atoms: C_23  and  N_24
REMARK   13  A    between atoms: C_25  and  C_27
REMARK                            x       y       z     vdW  Elec       q    Type
REMARK                         _______ _______ _______ _____ _____    ______ ____
ROOT
ATOM      1  C   UNL     1       1.026   8.888  20.465  0.00  0.00    +0.000 A 
ATOM      2  C   UNL     1       0.306  10.010  19.996  0.00  0.00    +0.000 A 
ATOM      3  C   UNL     1       0.481  10.486  18.690  0.00  0.00    +0.000 A 
ATOM      4  C   UNL     1       1.330   9.789  17.849  0.00  0.00    +0.000 A 
ATOM      5  C   UNL     1       1.995   8.648  18.280  0.00  0.00    +0.000 A 
ATOM      6  C   UNL     1       1.852   8.174  19.578  0.00  0.00    +0.000 A 
ENDROOT
BRANCH   6   7
ATOM      7  N   UNL     1       2.482   6.966  19.974  0.00  0.00    +0.000 N 
ATOM      8  C   UNL     1       2.443   5.779  19.255  0.00  0.00    +0.000 C 
ATOM      9  O   UNL     1       2.099   5.676  18.082  0.00  0.00    +0.000 OA
ATOM     10  H   UNL     1       3.000   7.011  20.846  0.00  0.00    +0.000 HD
BRANCH   8  11
ATOM     11  C   UNL     1       2.822   4.510  19.935  0.00  0.00    +0.000 A 
ATOM     12  C   UNL     1       1.972   4.113  20.992  0.00  0.00    +0.000 A 
ATOM     13  C   UNL     1       2.172   2.910  21.671  0.00  0.00    +0.000 A 
ATOM     14  C   UNL     1       3.227   2.086  21.302  0.00  0.00    +0.000 A 
ATOM     15  C   UNL     1       4.085   2.475  20.271  0.00  0.00    +0.000 A 
ATOM     16  C   UNL     1       3.893   3.683  19.586  0.00  0.00    +0.000 A 
ATOM     17 CL   UNL     1       4.999   4.031  18.306  0.00  0.00    +0.000 Cl
ENDBRANCH   8  11
ENDBRANCH   6   7
BRANCH   1  19
ATOM     18  C   UNL     1       0.286   9.376  22.649  0.00  0.00    +0.000 C 
ATOM     19  O   UNL     1       0.964   8.467  21.773  0.00  0.00    +0.000 OA
ENDBRANCH   1  19
BRANCH   3  20
ATOM     20  N   UNL     1      -0.226  11.645  18.308  0.00  0.00    +0.000 N 
ATOM     21  H   UNL     1       0.343  12.474  18.213  0.00  0.00    +0.000 HD
BRANCH  20  22
ATOM     22  C   UNL     1      -1.579  11.855  18.050  0.00  0.00    +0.000 C 
ATOM     23  S   UNL     1      -2.548  11.208  16.845  0.00  0.00    +0.000 S 
BRANCH  22  24
ATOM     24  N   UNL     1      -2.084  12.750  18.981  0.00  0.00    +0.000 N 
ATOM     25  H   UNL     1      -2.514  13.587  18.613  0.00  0.00    +0.000 HD
BRANCH  24  26
ATOM     26  C   UNL     1      -2.551  12.356  20.299  0.00  0.00    +0.000 C 
BRANCH  26  27
ATOM     27  C   UNL     1      -2.137  13.367  21.318  0.00  0.00    +0.000 A 
ATOM     28  C   UNL     1      -2.159  14.727  21.013  0.00  0.00    +0.000 A 
ATOM     29  C   UNL     1      -1.797  15.666  21.976  0.00  0.00    +0.000 A 
ATOM     30  C   UNL     1      -1.402  15.275  23.265  0.00  0.00    +0.000 A 
ATOM     31  C   UNL     1      -1.348  13.899  23.544  0.00  0.00    +0.000 A 
ATOM     32  C   UNL     1      -1.710  12.952  22.581  0.00  0.00    +0.000 A 
BRANCH  30  33
ATOM     33  C   UNL     1      -1.062  16.294  24.362  0.00  0.00    +0.000 C 
ATOM     34  C   UNL     1       0.366  16.869  24.235  0.00  0.00    +0.000 C 
ATOM     35  C   UNL     1      -2.047  17.480  24.275  0.00  0.00    +0.000 C 
ATOM     36  C   UNL     1      -1.177  15.637  25.752  0.00  0.00    +0.000 C 
ENDBRANCH  30  33
ENDBRANCH  26  27
ENDBRANCH  24  26
ENDBRANCH  22  24
ENDBRANCH  20  22
ENDBRANCH   3  20
TORSDOF 9
ENDMDL
MODEL 6
REMARK VINA RESULT:      -7.2      7.844     11.370
REMARK  Name = 
REMARK  13 active torsions:
REMARK  status: ('A' for Active; 'I' for Inactive)
REMARK    1  A    between atoms: C_1  and  O_2
REMARK    2  A    between atoms: O_2  and  C_3
REMARK    3  A    between atoms: C_5  and  N_6
REMARK    4  A    between atoms: N_6  and  C_7
REMARK    5  A    between atoms: C_7  and  N_9
REMARK    6  A    between atoms: N_9  and  C_10
REMARK    7  A    between atoms: C_10  and  C_11
REMARK    8  A    between atoms: C_14  and  C_15
REMARK    9  A    between atoms: C_15  and  C_16
REMARK   10  A    between atoms: C_15  and  C_17
REMARK   11  A    between atoms: C_15  and  C_18
REMARK   12  A    between atoms: C_23  and  N_24
REMARK   13  A    between atoms: C_25  and  C_27
REMARK                            x       y       z     vdW  Elec       q    Type
REMARK                         _______ _______ _______ _____ _____    ______ ____
ROOT
ATOM      1  C   UNL     1       8.712  11.806  18.004  0.00  0.00    +0.000 A 
ATOM      2  C   UNL     1       8.096  10.688  17.398  0.00  0.00    +0.000 A 
ATOM      3  C   UNL     1       8.268   9.398  17.918  0.00  0.00    +0.000 A 
ATOM      4  C   UNL     1       9.003   9.256  19.080  0.00  0.00    +0.000 A 
ATOM      5  C   UNL     1       9.560  10.354  19.721  0.00  0.00    +0.000 A 
ATOM      6  C   UNL     1       9.421  11.638  19.208  0.00  0.00    +0.000 A 
ENDROOT
BRANCH   6   7
ATOM      7  N   UNL     1       9.935  12.754  19.918  0.00  0.00    +0.000 N 
ATOM      8  C   UNL     1       9.693  13.020  21.260  0.00  0.00    +0.000 C 
ATOM      9  O   UNL     1       9.238  12.216  22.067  0.00  0.00    +0.000 OA
ATOM     10  H   UNL     1      10.529  13.377  19.380  0.00  0.00    +0.000 HD
BRANCH   8  11
ATOM     11  C   UNL     1       9.976  14.382  21.787  0.00  0.00    +0.000 A 
ATOM     12  C   UNL     1      10.945  15.120  21.070  0.00  0.00    +0.000 A 
ATOM     13  C   UNL     1      11.258  16.435  21.415  0.00  0.00    +0.000 A 
ATOM     14  C   UNL     1      10.605  17.033  22.486  0.00  0.00    +0.000 A 
ATOM     15  C   UNL     1       9.659  16.310  23.214  0.00  0.00    +0.000 A 
ATOM     16  C   UNL     1       9.341  14.987  22.875  0.00  0.00    +0.000 A 
ATOM     17 CL   UNL     1       8.126  14.215  23.830  0.00  0.00    +0.000 Cl
ENDBRANCH   8  11
ENDBRANCH   6   7
BRANCH   1  19
ATOM     18  C   UNL     1       7.445  13.774  17.732  0.00  0.00    +0.000 C 
ATOM     19  O   UNL     1       8.659  13.065  17.455  0.00  0.00    +0.000 OA
ENDBRANCH   1  19
BRANCH   3  20
ATOM     20  N   UNL     1       7.671   8.323  17.227  0.00  0.00    +0.000 N 
ATOM     21  H   UNL     1       7.323   8.555  16.307  0.00  0.00    +0.000 HD
BRANCH  20  22
ATOM     22  C   UNL     1       7.463   6.995  17.592  0.00  0.00    +0.000 C 
ATOM     23  S   UNL     1       7.913   6.192  18.993  0.00  0.00    +0.000 S 
BRANCH  22  24
ATOM     24  N   UNL     1       6.786   6.344  16.571  0.00  0.00    +0.000 N 
ATOM     25  H   UNL     1       7.088   5.404  16.360  0.00  0.00    +0.000 HD
BRANCH  24  26
ATOM     26  C   UNL     1       5.411   6.638  16.210  0.00  0.00    +0.000 C 
BRANCH  26  27
ATOM     27  C   UNL     1       4.473   5.818  17.035  0.00  0.00    +0.000 A 
ATOM     28  C   UNL     1       4.583   4.428  17.057  0.00  0.00    +0.000 A 
ATOM     29  C   UNL     1       3.722   3.671  17.848  0.00  0.00    +0.000 A 
ATOM     30  C   UNL     1       2.729   4.278  18.634  0.00  0.00    +0.000 A 
ATOM     31  C   UNL     1       2.607   5.675  18.570  0.00  0.00    +0.000 A 
ATOM     32  C   UNL     1       3.468   6.440  17.778  0.00  0.00    +0.000 A 
BRANCH  30  33
ATOM     33  C   UNL     1       1.813   3.469  19.563  0.00  0.00    +0.000 C 
ATOM     34  C   UNL     1       0.785   2.604  18.800  0.00  0.00    +0.000 C 
ATOM     35  C   UNL     1       2.673   2.515  20.420  0.00  0.00    +0.000 C 
ATOM     36  C   UNL     1       1.026   4.417  20.490  0.00  0.00    +0.000 C 
ENDBRANCH  30  33
ENDBRANCH  26  27
ENDBRANCH  24  26
ENDBRANCH  22  24
ENDBRANCH  20  22
ENDBRANCH   3  20
TORSDOF 9
ENDMDL
MODEL 7
REMARK VINA RESULT:      -7.1      3.896     10.272
REMARK  Name = 
REMARK  13 active torsions:
REMARK  status: ('A' for Active; 'I' for Inactive)
REMARK    1  A    between atoms: C_1  and  O_2
REMARK    2  A    between atoms: O_2  and  C_3
REMARK    3  A    between atoms: C_5  and  N_6
REMARK    4  A    between atoms: N_6  and  C_7
REMARK    5  A    between atoms: C_7  and  N_9
REMARK    6  A    between atoms: N_9  and  C_10
REMARK    7  A    between atoms: C_10  and  C_11
REMARK    8  A    between atoms: C_14  and  C_15
REMARK    9  A    between atoms: C_15  and  C_16
REMARK   10  A    between atoms: C_15  and  C_17
REMARK   11  A    between atoms: C_15  and  C_18
REMARK   12  A    between atoms: C_23  and  N_24
REMARK   13  A    between atoms: C_25  and  C_27
REMARK                            x       y       z     vdW  Elec       q    Type
REMARK                         _______ _______ _______ _____ _____    ______ ____
ROOT
ATOM      1  C   UNL     1       0.889   9.565  19.858  0.00  0.00    +0.000 A 
ATOM      2  C   UNL     1       1.561   8.322  19.871  0.00  0.00    +0.000 A 
ATOM      3  C   UNL     1       1.326   7.384  20.885  0.00  0.00    +0.000 A 
ATOM      4  C   UNL     1       0.368   7.679  21.837  0.00  0.00    +0.000 A 
ATOM      5  C   UNL     1      -0.344   8.871  21.799  0.00  0.00    +0.000 A 
ATOM      6  C   UNL     1      -0.108   9.823  20.816  0.00  0.00    +0.000 A 
ENDROOT
BRANCH   6   7
ATOM      7  N   UNL     1      -0.898  11.000  20.752  0.00  0.00    +0.000 N 
ATOM      8  C   UNL     1      -1.085  11.887  21.805  0.00  0.00    +0.000 C 
ATOM      9  O   UNL     1      -0.402  11.927  22.823  0.00  0.00    +0.000 OA
ATOM     10  H   UNL     1      -1.336  11.183  19.855  0.00  0.00    +0.000 HD
BRANCH   8  11
ATOM     11  C   UNL     1      -2.204  12.866  21.733  0.00  0.00    +0.000 A 
ATOM     12  C   UNL     1      -3.295  12.602  22.592  0.00  0.00    +0.000 A 
ATOM     13  C   UNL     1      -4.381  13.474  22.675  0.00  0.00    +0.000 A 
ATOM     14  C   UNL     1      -4.391  14.626  21.899  0.00  0.00    +0.000 A 
ATOM     15  C   UNL     1      -3.328  14.891  21.033  0.00  0.00    +0.000 A 
ATOM     16  C   UNL     1      -2.235  14.017  20.942  0.00  0.00    +0.000 A 
ATOM     17 CL   UNL     1      -0.967  14.476  19.863  0.00  0.00    +0.000 Cl
ENDBRANCH   8  11
ENDBRANCH   6   7
BRANCH   1  19
ATOM     18  C   UNL     1       2.113  10.153  17.932  0.00  0.00    +0.000 C 
ATOM     19  O   UNL     1       1.182  10.551  18.946  0.00  0.00    +0.000 OA
ENDBRANCH   1  19
BRANCH   3  20
ATOM     20  N   UNL     1       2.075   6.189  20.866  0.00  0.00    +0.000 N 
ATOM     21  H   UNL     1       3.069   6.313  21.000  0.00  0.00    +0.000 HD
BRANCH  20  22
ATOM     22  C   UNL     1       1.691   4.863  20.681  0.00  0.00    +0.000 C 
ATOM     23  S   UNL     1       2.011   3.518  21.630  0.00  0.00    +0.000 S 
BRANCH  22  24
ATOM     24  N   UNL     1       0.952   4.763  19.512  0.00  0.00    +0.000 N 
ATOM     25  H   UNL     1       0.191   5.419  19.404  0.00  0.00    +0.000 HD
BRANCH  24  26
ATOM     26  C   UNL     1       1.492   4.247  18.267  0.00  0.00    +0.000 C 
BRANCH  26  27
ATOM     27  C   UNL     1       2.937   4.605  18.141  0.00  0.00    +0.000 A 
ATOM     28  C   UNL     1       3.314   5.879  17.718  0.00  0.00    +0.000 A 
ATOM     29  C   UNL     1       4.662   6.216  17.628  0.00  0.00    +0.000 A 
ATOM     30  C   UNL     1       5.669   5.292  17.953  0.00  0.00    +0.000 A 
ATOM     31  C   UNL     1       5.273   4.002  18.339  0.00  0.00    +0.000 A 
ATOM     32  C   UNL     1       3.921   3.658  18.432  0.00  0.00    +0.000 A 
BRANCH  30  33
ATOM     33  C   UNL     1       7.159   5.662  17.923  0.00  0.00    +0.000 C 
ATOM     34  C   UNL     1       7.786   5.768  19.331  0.00  0.00    +0.000 C 
ATOM     35  C   UNL     1       7.937   4.574  17.151  0.00  0.00    +0.000 C 
ATOM     36  C   UNL     1       7.354   7.022  17.224  0.00  0.00    +0.000 C 
ENDBRANCH  30  33
ENDBRANCH  26  27
ENDBRANCH  24  26
ENDBRANCH  22  24
ENDBRANCH  20  22
ENDBRANCH   3  20
TORSDOF 9
ENDMDL
MODEL 8
REMARK VINA RESULT:      -7.1      3.099      4.032
REMARK  Name = 
REMARK  13 active torsions:
REMARK  status: ('A' for Active; 'I' for Inactive)
REMARK    1  A    between atoms: C_1  and  O_2
REMARK    2  A    between atoms: O_2  and  C_3
REMARK    3  A    between atoms: C_5  and  N_6
REMARK    4  A    between atoms: N_6  and  C_7
REMARK    5  A    between atoms: C_7  and  N_9
REMARK    6  A    between atoms: N_9  and  C_10
REMARK    7  A    between atoms: C_10  and  C_11
REMARK    8  A    between atoms: C_14  and  C_15
REMARK    9  A    between atoms: C_15  and  C_16
REMARK   10  A    between atoms: C_15  and  C_17
REMARK   11  A    between atoms: C_15  and  C_18
REMARK   12  A    between atoms: C_23  and  N_24
REMARK   13  A    between atoms: C_25  and  C_27
REMARK                            x       y       z     vdW  Elec       q    Type
REMARK                         _______ _______ _______ _____ _____    ______ ____
ROOT
ATOM      1  C   UNL     1       2.124   6.947  19.964  0.00  0.00    +0.000 A 
ATOM      2  C   UNL     1       1.365   7.890  20.694  0.00  0.00    +0.000 A 
ATOM      3  C   UNL     1       1.031   9.133  20.141  0.00  0.00    +0.000 A 
ATOM      4  C   UNL     1       1.408   9.389  18.836  0.00  0.00    +0.000 A 
ATOM      5  C   UNL     1       2.100   8.446  18.086  0.00  0.00    +0.000 A 
ATOM      6  C   UNL     1       2.460   7.217  18.625  0.00  0.00    +0.000 A 
ENDROOT
BRANCH   6   7
ATOM      7  N   UNL     1       3.100   6.240  17.819  0.00  0.00    +0.000 N 
ATOM      8  C   UNL     1       4.473   6.039  17.758  0.00  0.00    +0.000 C 
ATOM      9  O   UNL     1       5.286   6.476  18.566  0.00  0.00    +0.000 OA
ATOM     10  H   UNL     1       2.480   5.656  17.268  0.00  0.00    +0.000 HD
BRANCH   8  11
ATOM     11  C   UNL     1       5.038   5.252  16.628  0.00  0.00    +0.000 A 
ATOM     12  C   UNL     1       5.806   5.992  15.701  0.00  0.00    +0.000 A 
ATOM     13  C   UNL     1       6.449   5.368  14.631  0.00  0.00    +0.000 A 
ATOM     14  C   UNL     1       6.333   3.994  14.472  0.00  0.00    +0.000 A 
ATOM     15  C   UNL     1       5.562   3.253  15.371  0.00  0.00    +0.000 A 
ATOM     16  C   UNL     1       4.910   3.872  16.447  0.00  0.00    +0.000 A 
ATOM     17 CL   UNL     1       4.020   2.842  17.509  0.00  0.00    +0.000 Cl
ENDBRANCH   8  11
ENDBRANCH   6   7
BRANCH   1  19
ATOM     18  C   UNL     1       1.539   4.784  20.692  0.00  0.00    +0.000 C 
ATOM     19  O   UNL     1       2.565   5.769  20.517  0.00  0.00    +0.000 OA
ENDBRANCH   1  19
BRANCH   3  20
ATOM     20  N   UNL     1       0.322  10.047  20.948  0.00  0.00    +0.000 N 
ATOM     21  H   UNL     1      -0.229   9.621  21.681  0.00  0.00    +0.000 HD
BRANCH  20  22
ATOM     22  C   UNL     1       0.233  11.436  20.908  0.00  0.00    +0.000 C 
ATOM     23  S   UNL     1       1.401  12.568  20.501  0.00  0.00    +0.000 S 
BRANCH  22  24
ATOM     24  N   UNL     1      -1.045  11.820  21.286  0.00  0.00    +0.000 N 
ATOM     25  H   UNL     1      -1.810  11.391  20.784  0.00  0.00    +0.000 HD
BRANCH  24  26
ATOM     26  C   UNL     1      -1.378  12.288  22.619  0.00  0.00    +0.000 C 
BRANCH  26  27
ATOM     27  C   UNL     1      -2.825  12.650  22.694  0.00  0.00    +0.000 A 
ATOM     28  C   UNL     1      -3.530  12.502  23.888  0.00  0.00    +0.000 A 
ATOM     29  C   UNL     1      -4.872  12.866  23.959  0.00  0.00    +0.000 A 
ATOM     30  C   UNL     1      -5.548  13.383  22.842  0.00  0.00    +0.000 A 
ATOM     31  C   UNL     1      -4.835  13.490  21.637  0.00  0.00    +0.000 A 
ATOM     32  C   UNL     1      -3.487  13.126  21.560  0.00  0.00    +0.000 A 
BRANCH  30  33
ATOM     33  C   UNL     1      -7.009  13.852  22.914  0.00  0.00    +0.000 C 
ATOM     34  C   UNL     1      -7.916  13.174  21.864  0.00  0.00    +0.000 C 
ATOM     35  C   UNL     1      -7.582  13.514  24.308  0.00  0.00    +0.000 C 
ATOM     36  C   UNL     1      -7.089  15.374  22.685  0.00  0.00    +0.000 C 
ENDBRANCH  30  33
ENDBRANCH  26  27
ENDBRANCH  24  26
ENDBRANCH  22  24
ENDBRANCH  20  22
ENDBRANCH   3  20
TORSDOF 9
ENDMDL
MODEL 9
REMARK VINA RESULT:      -7.1      3.415      4.471
REMARK  Name = 
REMARK  13 active torsions:
REMARK  status: ('A' for Active; 'I' for Inactive)
REMARK    1  A    between atoms: C_1  and  O_2
REMARK    2  A    between atoms: O_2  and  C_3
REMARK    3  A    between atoms: C_5  and  N_6
REMARK    4  A    between atoms: N_6  and  C_7
REMARK    5  A    between atoms: C_7  and  N_9
REMARK    6  A    between atoms: N_9  and  C_10
REMARK    7  A    between atoms: C_10  and  C_11
REMARK    8  A    between atoms: C_14  and  C_15
REMARK    9  A    between atoms: C_15  and  C_16
REMARK   10  A    between atoms: C_15  and  C_17
REMARK   11  A    between atoms: C_15  and  C_18
REMARK   12  A    between atoms: C_23  and  N_24
REMARK   13  A    between atoms: C_25  and  C_27
REMARK                            x       y       z     vdW  Elec       q    Type
REMARK                         _______ _______ _______ _____ _____    ______ ____
ROOT
ATOM      1  C   UNL     1       2.033   6.426  20.186  0.00  0.00    +0.000 A 
ATOM      2  C   UNL     1       1.203   7.241  20.989  0.00  0.00    +0.000 A 
ATOM      3  C   UNL     1       0.984   8.587  20.667  0.00  0.00    +0.000 A 
ATOM      4  C   UNL     1       1.548   9.081  19.505  0.00  0.00    +0.000 A 
ATOM      5  C   UNL     1       2.314   8.273  18.675  0.00  0.00    +0.000 A 
ATOM      6  C   UNL     1       2.561   6.942  18.988  0.00  0.00    +0.000 A 
ENDROOT
BRANCH   6   7
ATOM      7  N   UNL     1       3.283   6.116  18.089  0.00  0.00    +0.000 N 
ATOM      8  C   UNL     1       4.612   5.743  18.247  0.00  0.00    +0.000 C 
ATOM      9  O   UNL     1       5.254   5.848  19.287  0.00  0.00    +0.000 OA
ATOM     10  H   UNL     1       2.757   5.780  17.289  0.00  0.00    +0.000 HD
BRANCH   8  11
ATOM     11  C   UNL     1       5.350   5.190  17.079  0.00  0.00    +0.000 A 
ATOM     12  C   UNL     1       4.699   4.139  16.395  0.00  0.00    +0.000 A 
ATOM     13  C   UNL     1       5.248   3.574  15.243  0.00  0.00    +0.000 A 
ATOM     14  C   UNL     1       6.457   4.053  14.757  0.00  0.00    +0.000 A 
ATOM     15  C   UNL     1       7.120   5.080  15.434  0.00  0.00    +0.000 A 
ATOM     16  C   UNL     1       6.577   5.650  16.594  0.00  0.00    +0.000 A 
ATOM     17 CL   UNL     1       7.474   6.938  17.315  0.00  0.00    +0.000 Cl
ENDBRANCH   8  11
ENDBRANCH   6   7
BRANCH   1  19
ATOM     18  C   UNL     1       1.295   4.195  20.360  0.00  0.00    +0.000 C 
ATOM     19  O   UNL     1       2.360   5.138  20.535  0.00  0.00    +0.000 OA
ENDBRANCH   1  19
BRANCH   3  20
ATOM     20  N   UNL     1       0.192   9.356  21.546  0.00  0.00    +0.000 N 
ATOM     21  H   UNL     1       0.171   9.018  22.498  0.00  0.00    +0.000 HD
BRANCH  20  22
ATOM     22  C   UNL     1      -0.581  10.495  21.332  0.00  0.00    +0.000 C 
ATOM     23  S   UNL     1      -0.968  11.266  19.895  0.00  0.00    +0.000 S 
BRANCH  22  24
ATOM     24  N   UNL     1      -1.030  10.974  22.554  0.00  0.00    +0.000 N 
ATOM     25  H   UNL     1      -0.875  10.378  23.354  0.00  0.00    +0.000 HD
BRANCH  24  26
ATOM     26  C   UNL     1      -1.155  12.387  22.862  0.00  0.00    +0.000 C 
BRANCH  26  27
ATOM     27  C   UNL     1      -2.596  12.779  22.920  0.00  0.00    +0.000 A 
ATOM     28  C   UNL     1      -3.398  12.364  23.983  0.00  0.00    +0.000 A 
ATOM     29  C   UNL     1      -4.733  12.754  24.045  0.00  0.00    +0.000 A 
ATOM     30  C   UNL     1      -5.305  13.564  23.050  0.00  0.00    +0.000 A 
ATOM     31  C   UNL     1      -4.494  13.941  21.968  0.00  0.00    +0.000 A 
ATOM     32  C   UNL     1      -3.152  13.552  21.900  0.00  0.00    +0.000 A 
BRANCH  30  33
ATOM     33  C   UNL     1      -6.756  14.060  23.132  0.00  0.00    +0.000 C 
ATOM     34  C   UNL     1      -7.426  14.208  21.749  0.00  0.00    +0.000 C 
ATOM     35  C   UNL     1      -7.592  13.049  23.945  0.00  0.00    +0.000 C 
ATOM     36  C   UNL     1      -6.807  15.437  23.824  0.00  0.00    +0.000 C 
ENDBRANCH  30  33
ENDBRANCH  26  27
ENDBRANCH  24  26
ENDBRANCH  22  24
ENDBRANCH  20  22
ENDBRANCH   3  20
TORSDOF 9
ENDMDL
