MODEL 1
REMARK VINA RESULT:      -8.0      0.000      0.000
REMARK  Name = 
REMARK  2 active torsions:
REMARK  status: ('A' for Active; 'I' for Inactive)
REMARK    1  A    between atoms: C_6  and  C_7
REMARK    2  A    between atoms: C_10  and  C_11
REMARK                            x       y       z     vdW  Elec       q    Type
REMARK                         _______ _______ _______ _____ _____    ______ ____
ROOT
ATOM      1  C   UNL     1       2.476   6.593  19.740  0.00  0.00    +0.000 A 
ATOM      2  N   UNL     1       2.261   5.426  20.368  0.00  0.00    +0.000 NA
ATOM      3  O   UNL     1       3.195   4.567  19.799  0.00  0.00    +0.000 OA
ATOM      4  C   UNL     1       3.880   5.296  18.872  0.00  0.00    +0.000 A 
ATOM      5  N   UNL     1       3.481   6.545  18.797  0.00  0.00    +0.000 NA
ENDROOT
BRANCH   1  11
ATOM      6  C   UNL     1      -1.078  11.484  22.105  0.00  0.00    +0.000 A 
ATOM      7  C   UNL     1      -0.927  10.509  23.089  0.00  0.00    +0.000 A 
ATOM      8  C   UNL     1      -0.188   9.357  22.819  0.00  0.00    +0.000 A 
ATOM      9  C   UNL     1       0.404   9.163  21.559  0.00  0.00    +0.000 A 
ATOM     10  C   UNL     1       1.135   8.002  21.270  0.00  0.00    +0.000 A 
ATOM     11  C   UNL     1       1.727   7.812  20.013  0.00  0.00    +0.000 A 
ATOM     12  C   UNL     1       1.583   8.806  19.038  0.00  0.00    +0.000 A 
ATOM     13  C   UNL     1       0.855   9.964  19.310  0.00  0.00    +0.000 A 
ATOM     14  C   UNL     1       0.258  10.156  20.565  0.00  0.00    +0.000 A 
ATOM     15  C   UNL     1      -0.487  11.311  20.853  0.00  0.00    +0.000 A 
ENDBRANCH   1  11
BRANCH   4  16
ATOM     16  C   UNL     1       4.967   4.598  18.117  0.00  0.00    +0.000 C 
ATOM     17  C   UNL     1       6.320   5.269  18.401  0.00  0.00    +0.000 C 
ATOM     18  C   UNL     1       7.445   4.645  17.582  0.00  0.00    +0.000 C 
ATOM     19  C   UNL     1       7.064   4.586  16.106  0.00  0.00    +0.000 C 
ATOM     20  C   UNL     1       5.718   3.897  15.913  0.00  0.00    +0.000 C 
ATOM     21  N   UNL     1       4.669   4.572  16.672  0.00  0.00    +0.000 NA
ATOM     22  H   UNL     1       3.779   4.094  16.527  0.00  0.00    +0.000 HD
ENDBRANCH   4  16
TORSDOF 2
ENDMDL
MODEL 2
REMARK VINA RESULT:      -8.0      2.436      8.206
REMARK  Name = 
REMARK  2 active torsions:
REMARK  status: ('A' for Active; 'I' for Inactive)
REMARK    1  A    between atoms: C_6  and  C_7
REMARK    2  A    between atoms: C_10  and  C_11
REMARK                            x       y       z     vdW  Elec       q    Type
REMARK                         _______ _______ _______ _____ _____    ______ ____
ROOT
ATOM      1  C   UNL     1       2.047   8.123  18.644  0.00  0.00    +0.000 A 
ATOM      2  N   UNL     1       1.534   9.108  17.889  0.00  0.00    +0.000 NA
ATOM      3  O   UNL     1       0.979   9.981  18.818  0.00  0.00    +0.000 OA
ATOM      4  C   UNL     1       1.204   9.435  20.047  0.00  0.00    +0.000 A 
ATOM      5  N   UNL     1       1.857   8.296  19.998  0.00  0.00    +0.000 NA
ENDROOT
BRANCH   1  11
ATOM      6  C   UNL     1       5.984   3.843  15.757  0.00  0.00    +0.000 A 
ATOM      7  C   UNL     1       6.497   5.127  15.586  0.00  0.00    +0.000 A 
ATOM      8  C   UNL     1       5.828   6.223  16.129  0.00  0.00    +0.000 A 
ATOM      9  C   UNL     1       4.632   6.048  16.846  0.00  0.00    +0.000 A 
ATOM     10  C   UNL     1       3.940   7.143  17.384  0.00  0.00    +0.000 A 
ATOM     11  C   UNL     1       2.748   6.966  18.102  0.00  0.00    +0.000 A 
ATOM     12  C   UNL     1       2.251   5.670  18.283  0.00  0.00    +0.000 A 
ATOM     13  C   UNL     1       2.926   4.572  17.751  0.00  0.00    +0.000 A 
ATOM     14  C   UNL     1       4.116   4.745  17.028  0.00  0.00    +0.000 A 
ATOM     15  C   UNL     1       4.804   3.652  16.477  0.00  0.00    +0.000 A 
ENDBRANCH   1  11
BRANCH   4  16
ATOM     16  C   UNL     1       0.710  10.197  21.237  0.00  0.00    +0.000 C 
ATOM     17  C   UNL     1      -0.210   9.307  22.088  0.00  0.00    +0.000 C 
ATOM     18  C   UNL     1      -0.808  10.071  23.265  0.00  0.00    +0.000 C 
ATOM     19  C   UNL     1      -1.446  11.372  22.790  0.00  0.00    +0.000 C 
ATOM     20  C   UNL     1      -0.465  12.197  21.964  0.00  0.00    +0.000 C 
ATOM     21  N   UNL     1       0.027  11.438  20.820  0.00  0.00    +0.000 NA
ATOM     22  H   UNL     1       0.681  12.009  20.284  0.00  0.00    +0.000 HD
ENDBRANCH   4  16
TORSDOF 2
ENDMDL
MODEL 3
REMARK VINA RESULT:      -7.8      6.210      8.103
REMARK  Name = 
REMARK  2 active torsions:
REMARK  status: ('A' for Active; 'I' for Inactive)
REMARK    1  A    between atoms: C_6  and  C_7
REMARK    2  A    between atoms: C_10  and  C_11
REMARK                            x       y       z     vdW  Elec       q    Type
REMARK                         _______ _______ _______ _____ _____    ______ ____
ROOT
ATOM      1  C   UNL     1       8.510   8.718  18.506  0.00  0.00    +0.000 A 
ATOM      2  N   UNL     1       8.658   7.600  19.235  0.00  0.00    +0.000 NA
ATOM      3  O   UNL     1       7.935   6.646  18.529  0.00  0.00    +0.000 OA
ATOM      4  C   UNL     1       7.411   7.282  17.442  0.00  0.00    +0.000 A 
ATOM      5  N   UNL     1       7.735   8.553  17.378  0.00  0.00    +0.000 NA
ENDROOT
BRANCH   1  11
ATOM      6  C   UNL     1      11.319  14.564  18.788  0.00  0.00    +0.000 A 
ATOM      7  C   UNL     1      11.160  14.195  17.453  0.00  0.00    +0.000 A 
ATOM      8  C   UNL     1      10.566  12.974  17.135  0.00  0.00    +0.000 A 
ATOM      9  C   UNL     1      10.129  12.104  18.148  0.00  0.00    +0.000 A 
ATOM     10  C   UNL     1       9.545  10.866  17.842  0.00  0.00    +0.000 A 
ATOM     11  C   UNL     1       9.107  10.000  18.855  0.00  0.00    +0.000 A 
ATOM     12  C   UNL     1       9.257  10.389  20.191  0.00  0.00    +0.000 A 
ATOM     13  C   UNL     1       9.839  11.615  20.510  0.00  0.00    +0.000 A 
ATOM     14  C   UNL     1      10.282  12.482  19.501  0.00  0.00    +0.000 A 
ATOM     15  C   UNL     1      10.880  13.716  19.804  0.00  0.00    +0.000 A 
ENDBRANCH   1  11
BRANCH   4  16
ATOM     16  C   UNL     1       6.589   6.461  16.498  0.00  0.00    +0.000 C 
ATOM     17  C   UNL     1       5.635   5.548  17.286  0.00  0.00    +0.000 C 
ATOM     18  C   UNL     1       4.840   4.629  16.365  0.00  0.00    +0.000 C 
ATOM     19  C   UNL     1       5.771   3.896  15.406  0.00  0.00    +0.000 C 
ATOM     20  C   UNL     1       6.673   4.873  14.659  0.00  0.00    +0.000 C 
ATOM     21  N   UNL     1       7.453   5.683  15.588  0.00  0.00    +0.000 NA
ATOM     22  H   UNL     1       8.047   6.328  15.066  0.00  0.00    +0.000 HD
ENDBRANCH   4  16
TORSDOF 2
ENDMDL
MODEL 4
REMARK VINA RESULT:      -7.7      2.017      2.604
REMARK  Name = 
REMARK  2 active torsions:
REMARK  status: ('A' for Active; 'I' for Inactive)
REMARK    1  A    between atoms: C_6  and  C_7
REMARK    2  A    between atoms: C_10  and  C_11
REMARK                            x       y       z     vdW  Elec       q    Type
REMARK                         _______ _______ _______ _____ _____    ______ ____
ROOT
ATOM      1  C   UNL     1       2.309   7.804  18.713  0.00  0.00    +0.000 A 
ATOM      2  N   UNL     1       3.153   8.036  17.695  0.00  0.00    +0.000 NA
ATOM      3  O   UNL     1       3.715   6.790  17.440  0.00  0.00    +0.000 OA
ATOM      4  C   UNL     1       3.162   5.924  18.337  0.00  0.00    +0.000 A 
ATOM      5  N   UNL     1       2.292   6.493  19.139  0.00  0.00    +0.000 NA
ENDROOT
BRANCH   1  11
ATOM      6  C   UNL     1      -1.381  11.594  22.477  0.00  0.00    +0.000 A 
ATOM      7  C   UNL     1      -0.974  10.479  23.207  0.00  0.00    +0.000 A 
ATOM      8  C   UNL     1      -0.157   9.518  22.612  0.00  0.00    +0.000 A 
ATOM      9  C   UNL     1       0.256   9.656  21.276  0.00  0.00    +0.000 A 
ATOM     10  C   UNL     1       1.063   8.688  20.661  0.00  0.00    +0.000 A 
ATOM     11  C   UNL     1       1.477   8.829  19.328  0.00  0.00    +0.000 A 
ATOM     12  C   UNL     1       1.076   9.962  18.609  0.00  0.00    +0.000 A 
ATOM     13  C   UNL     1       0.270  10.930  19.207  0.00  0.00    +0.000 A 
ATOM     14  C   UNL     1      -0.150  10.791  20.538  0.00  0.00    +0.000 A 
ATOM     15  C   UNL     1      -0.969  11.751  21.153  0.00  0.00    +0.000 A 
ENDBRANCH   1  11
BRANCH   4  16
ATOM     16  C   UNL     1       3.595   4.493  18.264  0.00  0.00    +0.000 C 
ATOM     17  C   UNL     1       2.534   3.659  17.528  0.00  0.00    +0.000 C 
ATOM     18  C   UNL     1       2.892   2.177  17.509  0.00  0.00    +0.000 C 
ATOM     19  C   UNL     1       3.220   1.686  18.914  0.00  0.00    +0.000 C 
ATOM     20  C   UNL     1       4.286   2.560  19.567  0.00  0.00    +0.000 C 
ATOM     21  N   UNL     1       3.864   3.956  19.612  0.00  0.00    +0.000 NA
ATOM     22  H   UNL     1       4.592   4.521  20.053  0.00  0.00    +0.000 HD
ENDBRANCH   4  16
TORSDOF 2
ENDMDL
MODEL 5
REMARK VINA RESULT:      -7.7      2.782      7.935
REMARK  Name = 
REMARK  2 active torsions:
REMARK  status: ('A' for Active; 'I' for Inactive)
REMARK    1  A    between atoms: C_6  and  C_7
REMARK    2  A    between atoms: C_10  and  C_11
REMARK                            x       y       z     vdW  Elec       q    Type
REMARK                         _______ _______ _______ _____ _____    ______ ____
ROOT
ATOM      1  C   UNL     1       2.047   8.456  18.460  0.00  0.00    +0.000 A 
ATOM      2  N   UNL     1       2.004   9.481  17.594  0.00  0.00    +0.000 NA
ATOM      3  O   UNL     1       1.412  10.506  18.323  0.00  0.00    +0.000 OA
ATOM      4  C   UNL     1       1.145   9.998  19.561  0.00  0.00    +0.000 A 
ATOM      5  N   UNL     1       1.517   8.746  19.699  0.00  0.00    +0.000 NA
ENDROOT
BRANCH   1  11
ATOM      6  C   UNL     1       3.429   2.176  17.568  0.00  0.00    +0.000 A 
ATOM      7  C   UNL     1       2.161   2.291  18.134  0.00  0.00    +0.000 A 
ATOM      8  C   UNL     1       1.634   3.552  18.412  0.00  0.00    +0.000 A 
ATOM      9  C   UNL     1       2.374   4.714  18.133  0.00  0.00    +0.000 A 
ATOM     10  C   UNL     1       1.863   5.988  18.423  0.00  0.00    +0.000 A 
ATOM     11  C   UNL     1       2.601   7.147  18.141  0.00  0.00    +0.000 A 
ATOM     12  C   UNL     1       3.867   7.020  17.557  0.00  0.00    +0.000 A 
ATOM     13  C   UNL     1       4.389   5.760  17.267  0.00  0.00    +0.000 A 
ATOM     14  C   UNL     1       3.656   4.598  17.551  0.00  0.00    +0.000 A 
ATOM     15  C   UNL     1       4.170   3.321  17.275  0.00  0.00    +0.000 A 
ENDBRANCH   1  11
BRANCH   4  16
ATOM     16  C   UNL     1       0.509  10.916  20.557  0.00  0.00    +0.000 C 
ATOM     17  C   UNL     1      -0.020  10.110  21.754  0.00  0.00    +0.000 C 
ATOM     18  C   UNL     1      -0.756  10.996  22.754  0.00  0.00    +0.000 C 
ATOM     19  C   UNL     1      -1.807  11.844  22.046  0.00  0.00    +0.000 C 
ATOM     20  C   UNL     1      -1.198  12.617  20.882  0.00  0.00    +0.000 C 
ATOM     21  N   UNL     1      -0.561  11.715  19.928  0.00  0.00    +0.000 NA
ATOM     22  H   UNL     1      -0.162  12.254  19.159  0.00  0.00    +0.000 HD
ENDBRANCH   4  16
TORSDOF 2
ENDMDL
MODEL 6
REMARK VINA RESULT:      -7.7      2.388      8.122
REMARK  Name = 
REMARK  2 active torsions:
REMARK  status: ('A' for Active; 'I' for Inactive)
REMARK    1  A    between atoms: C_6  and  C_7
REMARK    2  A    between atoms: C_10  and  C_11
REMARK                            x       y       z     vdW  Elec       q    Type
REMARK                         _______ _______ _______ _____ _____    ______ ____
ROOT
ATOM      1  C   UNL     1       2.098   7.758  19.015  0.00  0.00    +0.000 A 
ATOM      2  N   UNL     1       1.880   7.786  20.340  0.00  0.00    +0.000 NA
ATOM      3  O   UNL     1       1.168   8.964  20.534  0.00  0.00    +0.000 OA
ATOM      4  C   UNL     1       1.031   9.541  19.306  0.00  0.00    +0.000 A 
ATOM      5  N   UNL     1       1.580   8.842  18.339  0.00  0.00    +0.000 NA
ENDROOT
BRANCH   1  11
ATOM      6  C   UNL     1       6.012   3.946  15.508  0.00  0.00    +0.000 A 
ATOM      7  C   UNL     1       6.442   5.267  15.402  0.00  0.00    +0.000 A 
ATOM      8  C   UNL     1       5.761   6.278  16.081  0.00  0.00    +0.000 A 
ATOM      9  C   UNL     1       4.637   5.979  16.869  0.00  0.00    +0.000 A 
ATOM     10  C   UNL     1       3.933   6.988  17.543  0.00  0.00    +0.000 A 
ATOM     11  C   UNL     1       2.812   6.688  18.332  0.00  0.00    +0.000 A 
ATOM     12  C   UNL     1       2.400   5.355  18.445  0.00  0.00    +0.000 A 
ATOM     13  C   UNL     1       3.087   4.343  17.777  0.00  0.00    +0.000 A 
ATOM     14  C   UNL     1       4.206   4.639  16.984  0.00  0.00    +0.000 A 
ATOM     15  C   UNL     1       4.904   3.633  16.296  0.00  0.00    +0.000 A 
ENDBRANCH   1  11
BRANCH   4  16
ATOM     16  C   UNL     1       0.279  10.833  19.236  0.00  0.00    +0.000 C 
ATOM     17  C   UNL     1      -0.462  11.084  20.560  0.00  0.00    +0.000 C 
ATOM     18  C   UNL     1      -1.314  12.348  20.502  0.00  0.00    +0.000 C 
ATOM     19  C   UNL     1      -2.209  12.334  19.268  0.00  0.00    +0.000 C 
ATOM     20  C   UNL     1      -1.396  12.090  18.001  0.00  0.00    +0.000 C 
ATOM     21  N   UNL     1      -0.649  10.840  18.088  0.00  0.00    +0.000 NA
ATOM     22  H   UNL     1      -0.114  10.699  17.231  0.00  0.00    +0.000 HD
ENDBRANCH   4  16
TORSDOF 2
ENDMDL
MODEL 7
REMARK VINA RESULT:      -7.6      1.184      1.484
REMARK  Name = 
REMARK  2 active torsions:
REMARK  status: ('A' for Active; 'I' for Inactive)
REMARK    1  A    between atoms: C_6  and  C_7
REMARK    2  A    between atoms: C_10  and  C_11
REMARK                            x       y       z     vdW  Elec       q    Type
REMARK                         _______ _______ _______ _____ _____    ______ ____
ROOT
ATOM      1  C   UNL     1       2.276   7.627  19.112  0.00  0.00    +0.000 A 
ATOM      2  N   UNL     1       2.405   6.447  19.740  0.00  0.00    +0.000 NA
ATOM      3  O   UNL     1       3.342   5.765  18.972  0.00  0.00    +0.000 OA
ATOM      4  C   UNL     1       3.685   6.597  17.947  0.00  0.00    +0.000 A 
ATOM      5  N   UNL     1       3.062   7.753  17.987  0.00  0.00    +0.000 NA
ENDROOT
BRANCH   1  11
ATOM      6  C   UNL     1      -1.605  11.777  22.254  0.00  0.00    +0.000 A 
ATOM      7  C   UNL     1      -1.146  10.811  23.148  0.00  0.00    +0.000 A 
ATOM      8  C   UNL     1      -0.282   9.808  22.707  0.00  0.00    +0.000 A 
ATOM      9  C   UNL     1       0.128   9.756  21.364  0.00  0.00    +0.000 A 
ATOM     10  C   UNL     1       0.982   8.743  20.903  0.00  0.00    +0.000 A 
ATOM     11  C   UNL     1       1.393   8.695  19.563  0.00  0.00    +0.000 A 
ATOM     12  C   UNL     1       0.940   9.680  18.678  0.00  0.00    +0.000 A 
ATOM     13  C   UNL     1       0.086  10.690  19.121  0.00  0.00    +0.000 A 
ATOM     14  C   UNL     1      -0.330  10.741  20.459  0.00  0.00    +0.000 A 
ATOM     15  C   UNL     1      -1.197  11.744  20.920  0.00  0.00    +0.000 A 
ENDBRANCH   1  11
BRANCH   4  16
ATOM     16  C   UNL     1       4.703   6.098  16.970  0.00  0.00    +0.000 C 
ATOM     17  C   UNL     1       4.518   4.589  16.740  0.00  0.00    +0.000 C 
ATOM     18  C   UNL     1       5.591   4.020  15.819  0.00  0.00    +0.000 C 
ATOM     19  C   UNL     1       6.980   4.421  16.303  0.00  0.00    +0.000 C 
ATOM     20  C   UNL     1       7.082   5.931  16.495  0.00  0.00    +0.000 C 
ATOM     21  N   UNL     1       6.070   6.410  17.431  0.00  0.00    +0.000 NA
ATOM     22  H   UNL     1       6.157   7.421  17.543  0.00  0.00    +0.000 HD
ENDBRANCH   4  16
TORSDOF 2
ENDMDL
MODEL 8
REMARK VINA RESULT:      -7.6      2.813      7.566
REMARK  Name = 
REMARK  2 active torsions:
REMARK  status: ('A' for Active; 'I' for Inactive)
REMARK    1  A    between atoms: C_6  and  C_7
REMARK    2  A    between atoms: C_10  and  C_11
REMARK                            x       y       z     vdW  Elec       q    Type
REMARK                         _______ _______ _______ _____ _____    ______ ____
ROOT
ATOM      1  C   UNL     1       2.256   8.099  18.521  0.00  0.00    +0.000 A 
ATOM      2  N   UNL     1       2.506   8.756  17.377  0.00  0.00    +0.000 NA
ATOM      3  O   UNL     1       1.873   9.981  17.554  0.00  0.00    +0.000 OA
ATOM      4  C   UNL     1       1.292   9.944  18.788  0.00  0.00    +0.000 A 
ATOM      5  N   UNL     1       1.499   8.813  19.424  0.00  0.00    +0.000 NA
ENDROOT
BRANCH   1  11
ATOM      6  C   UNL     1       3.566   2.154  20.777  0.00  0.00    +0.000 A 
ATOM      7  C   UNL     1       2.563   2.730  21.555  0.00  0.00    +0.000 A 
ATOM      8  C   UNL     1       2.101   4.011  21.257  0.00  0.00    +0.000 A 
ATOM      9  C   UNL     1       2.640   4.735  20.181  0.00  0.00    +0.000 A 
ATOM     10  C   UNL     1       2.196   6.032  19.881  0.00  0.00    +0.000 A 
ATOM     11  C   UNL     1       2.733   6.752  18.804  0.00  0.00    +0.000 A 
ATOM     12  C   UNL     1       3.728   6.157  18.019  0.00  0.00    +0.000 A 
ATOM     13  C   UNL     1       4.183   4.871  18.308  0.00  0.00    +0.000 A 
ATOM     14  C   UNL     1       3.651   4.148  19.386  0.00  0.00    +0.000 A 
ATOM     15  C   UNL     1       4.103   2.856  19.698  0.00  0.00    +0.000 A 
ENDBRANCH   1  11
BRANCH   4  16
ATOM     16  C   UNL     1       0.548  11.163  19.233  0.00  0.00    +0.000 C 
ATOM     17  C   UNL     1      -0.389  10.812  20.401  0.00  0.00    +0.000 C 
ATOM     18  C   UNL     1      -1.233  12.007  20.829  0.00  0.00    +0.000 C 
ATOM     19  C   UNL     1      -1.929  12.631  19.625  0.00  0.00    +0.000 C 
ATOM     20  C   UNL     1      -0.929  12.958  18.520  0.00  0.00    +0.000 C 
ATOM     21  N   UNL     1      -0.193  11.767  18.109  0.00  0.00    +0.000 NA
ATOM     22  H   UNL     1       0.468  12.010  17.371  0.00  0.00    +0.000 HD
ENDBRANCH   4  16
TORSDOF 2
ENDMDL
MODEL 9
REMARK VINA RESULT:      -7.6      1.754      7.955
REMARK  Name = 
REMARK  2 active torsions:
REMARK  status: ('A' for Active; 'I' for Inactive)
REMARK    1  A    between atoms: C_6  and  C_7
REMARK    2  A    between atoms: C_10  and  C_11
REMARK                            x       y       z     vdW  Elec       q    Type
REMARK                         _______ _______ _______ _____ _____    ______ ____
ROOT
ATOM      1  C   UNL     1       2.339   6.423  19.610  0.00  0.00    +0.000 A 
ATOM      2  N   UNL     1       1.659   5.835  20.607  0.00  0.00    +0.000 NA
ATOM      3  O   UNL     1       1.102   6.902  21.303  0.00  0.00    +0.000 OA
ATOM      4  C   UNL     1       1.508   8.037  20.663  0.00  0.00    +0.000 A 
ATOM      5  N   UNL     1       2.266   7.800  19.617  0.00  0.00    +0.000 NA
ENDROOT
BRANCH   1  11
ATOM      6  C   UNL     1       6.490   4.181  15.149  0.00  0.00    +0.000 A 
ATOM      7  C   UNL     1       6.959   5.397  15.644  0.00  0.00    +0.000 A 
ATOM      8  C   UNL     1       6.238   6.073  16.628  0.00  0.00    +0.000 A 
ATOM      9  C   UNL     1       5.035   5.545  17.125  0.00  0.00    +0.000 A 
ATOM     10  C   UNL     1       4.292   6.223  18.102  0.00  0.00    +0.000 A 
ATOM     11  C   UNL     1       3.092   5.693  18.599  0.00  0.00    +0.000 A 
ATOM     12  C   UNL     1       2.640   4.463  18.108  0.00  0.00    +0.000 A 
ATOM     13  C   UNL     1       3.366   3.779  17.133  0.00  0.00    +0.000 A 
ATOM     14  C   UNL     1       4.564   4.308  16.630  0.00  0.00    +0.000 A 
ATOM     15  C   UNL     1       5.303   3.639  15.642  0.00  0.00    +0.000 A 
ENDBRANCH   1  11
BRANCH   4  16
ATOM     16  C   UNL     1       1.028   9.343  21.213  0.00  0.00    +0.000 C 
ATOM     17  C   UNL     1      -0.027   9.099  22.306  0.00  0.00    +0.000 C 
ATOM     18  C   UNL     1      -0.609  10.406  22.833  0.00  0.00    +0.000 C 
ATOM     19  C   UNL     1      -1.082  11.285  21.681  0.00  0.00    +0.000 C 
ATOM     20  C   UNL     1       0.024  11.485  20.650  0.00  0.00    +0.000 C 
ATOM     21  N   UNL     1       0.501  10.205  20.137  0.00  0.00    +0.000 NA
ATOM     22  H   UNL     1       1.239  10.363  19.450  0.00  0.00    +0.000 HD
ENDBRANCH   4  16
TORSDOF 2
ENDMDL
