MODEL 1
REMARK VINA RESULT:      -7.6      0.000      0.000
REMARK  Name = 
REMARK  7 active torsions:
REMARK  status: ('A' for Active; 'I' for Inactive)
REMARK    1  A    between atoms: C_1  and  N_2
REMARK    2  A    between atoms: N_2  and  C_3
REMARK    3  A    between atoms: C_9  and  O_10
REMARK    4  A    between atoms: O_10  and  C_11
REMARK    5  A    between atoms: N_13  and  C_14
REMARK    6  A    between atoms: N_13  and  C_21
REMARK    7  A    between atoms: C_14  and  C_15
REMARK                            x       y       z     vdW  Elec       q    Type
REMARK                         _______ _______ _______ _____ _____    ______ ____
ROOT
ATOM      1  C   UNL     1       4.958   6.089  15.771  0.00  0.00    +0.000 C 
ATOM      2  O   UNL     1       4.892   7.036  14.989  0.00  0.00    +0.000 OA
ATOM      3  N   UNL     1       5.802   4.923  15.600  0.00  0.00    +0.000 N 
ENDROOT
BRANCH   3   4
ATOM      4  C   UNL     1       6.042   4.392  14.272  0.00  0.00    +0.000 A 
ATOM      5  C   UNL     1       5.169   3.594  13.449  0.00  0.00    +0.000 A 
ATOM      6  C   UNL     1       5.631   3.374  12.183  0.00  0.00    +0.000 A 
ATOM      7  S   UNL     1       7.188   4.037  11.945  0.00  0.00    +0.000 S 
ATOM      8  C   UNL     1       7.202   4.656  13.545  0.00  0.00    +0.000 A 
ENDBRANCH   3   4
BRANCH   1   9
ATOM      9  O   UNL     1       4.178   6.079  16.918  0.00  0.00    +0.000 OA
BRANCH   9  18
ATOM     10  C   UNL     1       1.568   2.499  21.056  0.00  0.00    +0.000 C 
ATOM     11  N   UNL     1       2.175   3.616  20.127  0.00  0.00    +0.000 N 
ATOM     12  C   UNL     1       1.997   4.887  20.939  0.00  0.00    +0.000 C 
ATOM     13  C   UNL     1       3.629   3.281  19.728  0.00  0.00    +0.000 C 
ATOM     14  C   UNL     1       3.413   2.074  18.787  0.00  0.00    +0.000 C 
ATOM     15  C   UNL     1       2.020   2.280  18.162  0.00  0.00    +0.000 C 
ATOM     16  C   UNL     1       1.528   3.625  18.723  0.00  0.00    +0.000 C 
ATOM     17  C   UNL     1       2.060   4.820  17.838  0.00  0.00    +0.000 C 
ATOM     18  C   UNL     1       3.609   4.910  17.695  0.00  0.00    +0.000 C 
ATOM     19  C   UNL     1       4.304   4.497  19.007  0.00  0.00    +0.000 C 
ENDBRANCH   9  18
ENDBRANCH   1   9
BRANCH   3  20
ATOM     20  C   UNL     1       7.001   4.835  16.490  0.00  0.00    +0.000 C 
BRANCH  20  21
ATOM     21  C   UNL     1       7.354   5.979  17.424  0.00  0.00    +0.000 A 
ATOM     22  C   UNL     1       7.787   5.728  18.749  0.00  0.00    +0.000 A 
ATOM     23  C   UNL     1       8.386   6.733  19.520  0.00  0.00    +0.000 A 
ATOM     24  C   UNL     1       8.567   8.003  18.980  0.00  0.00    +0.000 A 
ATOM     25  C   UNL     1       8.102   8.277  17.696  0.00  0.00    +0.000 A 
ATOM     26  C   UNL     1       7.494   7.275  16.927  0.00  0.00    +0.000 A 
ENDBRANCH  20  21
ENDBRANCH   3  20
TORSDOF 5
ENDMDL
MODEL 2
REMARK VINA RESULT:      -7.6      0.613      1.291
REMARK  Name = 
REMARK  7 active torsions:
REMARK  status: ('A' for Active; 'I' for Inactive)
REMARK    1  A    between atoms: C_1  and  N_2
REMARK    2  A    between atoms: N_2  and  C_3
REMARK    3  A    between atoms: C_9  and  O_10
REMARK    4  A    between atoms: O_10  and  C_11
REMARK    5  A    between atoms: N_13  and  C_14
REMARK    6  A    between atoms: N_13  and  C_21
REMARK    7  A    between atoms: C_14  and  C_15
REMARK                            x       y       z     vdW  Elec       q    Type
REMARK                         _______ _______ _______ _____ _____    ______ ____
ROOT
ATOM      1  C   UNL     1       4.966   5.963  15.734  0.00  0.00    +0.000 C 
ATOM      2  O   UNL     1       5.088   6.973  15.044  0.00  0.00    +0.000 OA
ATOM      3  N   UNL     1       5.600   4.687  15.465  0.00  0.00    +0.000 N 
ENDROOT
BRANCH   3   4
ATOM      4  C   UNL     1       5.785   4.245  14.096  0.00  0.00    +0.000 A 
ATOM      5  C   UNL     1       6.963   4.332  13.272  0.00  0.00    +0.000 A 
ATOM      6  C   UNL     1       6.861   3.691  12.071  0.00  0.00    +0.000 A 
ATOM      7  S   UNL     1       5.305   3.028  11.829  0.00  0.00    +0.000 S 
ATOM      8  C   UNL     1       4.799   3.577  13.373  0.00  0.00    +0.000 A 
ENDBRANCH   3   4
BRANCH   1   9
ATOM      9  O   UNL     1       4.160   5.985  16.864  0.00  0.00    +0.000 OA
BRANCH   9  18
ATOM     10  C   UNL     1       1.512   2.525  21.077  0.00  0.00    +0.000 C 
ATOM     11  N   UNL     1       2.125   3.614  20.122  0.00  0.00    +0.000 N 
ATOM     12  C   UNL     1       1.928   4.910  20.890  0.00  0.00    +0.000 C 
ATOM     13  C   UNL     1       3.587   3.275  19.755  0.00  0.00    +0.000 C 
ATOM     14  C   UNL     1       3.392   2.038  18.851  0.00  0.00    +0.000 C 
ATOM     15  C   UNL     1       2.007   2.214  18.200  0.00  0.00    +0.000 C 
ATOM     16  C   UNL     1       1.499   3.574  18.709  0.00  0.00    +0.000 C 
ATOM     17  C   UNL     1       2.037   4.743  17.793  0.00  0.00    +0.000 C 
ATOM     18  C   UNL     1       3.588   4.837  17.670  0.00  0.00    +0.000 C 
ATOM     19  C   UNL     1       4.265   4.472  19.004  0.00  0.00    +0.000 C 
ENDBRANCH   9  18
ENDBRANCH   1   9
BRANCH   3  20
ATOM     20  C   UNL     1       6.738   4.309  16.360  0.00  0.00    +0.000 C 
BRANCH  20  21
ATOM     21  C   UNL     1       7.444   5.362  17.196  0.00  0.00    +0.000 A 
ATOM     22  C   UNL     1       7.548   6.700  16.744  0.00  0.00    +0.000 A 
ATOM     23  C   UNL     1       7.930   7.733  17.611  0.00  0.00    +0.000 A 
ATOM     24  C   UNL     1       8.209   7.447  18.944  0.00  0.00    +0.000 A 
ATOM     25  C   UNL     1       8.159   6.129  19.390  0.00  0.00    +0.000 A 
ATOM     26  C   UNL     1       7.786   5.094  18.522  0.00  0.00    +0.000 A 
ENDBRANCH  20  21
ENDBRANCH   3  20
TORSDOF 5
ENDMDL
MODEL 3
REMARK VINA RESULT:      -7.4      5.924      8.224
REMARK  Name = 
REMARK  7 active torsions:
REMARK  status: ('A' for Active; 'I' for Inactive)
REMARK    1  A    between atoms: C_1  and  N_2
REMARK    2  A    between atoms: N_2  and  C_3
REMARK    3  A    between atoms: C_9  and  O_10
REMARK    4  A    between atoms: O_10  and  C_11
REMARK    5  A    between atoms: N_13  and  C_14
REMARK    6  A    between atoms: N_13  and  C_21
REMARK    7  A    between atoms: C_14  and  C_15
REMARK                            x       y       z     vdW  Elec       q    Type
REMARK                         _______ _______ _______ _____ _____    ______ ____
ROOT
ATOM      1  C   UNL     1       1.601   9.218  18.706  0.00  0.00    +0.000 C 
ATOM      2  O   UNL     1       2.042   9.265  17.560  0.00  0.00    +0.000 OA
ATOM      3  N   UNL     1       0.933  10.309  19.388  0.00  0.00    +0.000 N 
ENDROOT
BRANCH   3   4
ATOM      4  C   UNL     1       1.357  11.676  19.153  0.00  0.00    +0.000 A 
ATOM      5  C   UNL     1       2.302  12.174  18.187  0.00  0.00    +0.000 A 
ATOM      6  C   UNL     1       2.375  13.536  18.117  0.00  0.00    +0.000 A 
ATOM      7  S   UNL     1       1.377  14.291  19.280  0.00  0.00    +0.000 S 
ATOM      8  C   UNL     1       0.821  12.767  19.836  0.00  0.00    +0.000 A 
ENDBRANCH   3   4
BRANCH   1   9
ATOM      9  O   UNL     1       1.733   8.058  19.456  0.00  0.00    +0.000 OA
BRANCH   9  18
ATOM     10  C   UNL     1       3.480   2.344  18.439  0.00  0.00    +0.000 C 
ATOM     11  N   UNL     1       2.796   3.736  18.708  0.00  0.00    +0.000 N 
ATOM     12  C   UNL     1       1.340   3.375  18.945  0.00  0.00    +0.000 C 
ATOM     13  C   UNL     1       3.493   4.486  19.865  0.00  0.00    +0.000 C 
ATOM     14  C   UNL     1       4.850   4.842  19.219  0.00  0.00    +0.000 C 
ATOM     15  C   UNL     1       4.571   4.970  17.710  0.00  0.00    +0.000 C 
ATOM     16  C   UNL     1       3.056   4.745  17.565  0.00  0.00    +0.000 C 
ATOM     17  C   UNL     1       2.273   6.099  17.788  0.00  0.00    +0.000 C 
ATOM     18  C   UNL     1       2.516   6.795  19.161  0.00  0.00    +0.000 C 
ATOM     19  C   UNL     1       2.671   5.752  20.283  0.00  0.00    +0.000 C 
ENDBRANCH   9  18
ENDBRANCH   1   9
BRANCH   3  20
ATOM     20  C   UNL     1      -0.547  10.178  19.563  0.00  0.00    +0.000 C 
BRANCH  20  21
ATOM     21  C   UNL     1      -1.492  10.541  18.430  0.00  0.00    +0.000 A 
ATOM     22  C   UNL     1      -1.514   9.787  17.232  0.00  0.00    +0.000 A 
ATOM     23  C   UNL     1      -2.560   9.920  16.309  0.00  0.00    +0.000 A 
ATOM     24  C   UNL     1      -3.602  10.805  16.569  0.00  0.00    +0.000 A 
ATOM     25  C   UNL     1      -3.568  11.589  17.720  0.00  0.00    +0.000 A 
ATOM     26  C   UNL     1      -2.518  11.463  18.640  0.00  0.00    +0.000 A 
ENDBRANCH  20  21
ENDBRANCH   3  20
TORSDOF 5
ENDMDL
MODEL 4
REMARK VINA RESULT:      -7.4      5.919      8.256
REMARK  Name = 
REMARK  7 active torsions:
REMARK  status: ('A' for Active; 'I' for Inactive)
REMARK    1  A    between atoms: C_1  and  N_2
REMARK    2  A    between atoms: N_2  and  C_3
REMARK    3  A    between atoms: C_9  and  O_10
REMARK    4  A    between atoms: O_10  and  C_11
REMARK    5  A    between atoms: N_13  and  C_14
REMARK    6  A    between atoms: N_13  and  C_21
REMARK    7  A    between atoms: C_14  and  C_15
REMARK                            x       y       z     vdW  Elec       q    Type
REMARK                         _______ _______ _______ _____ _____    ______ ____
ROOT
ATOM      1  C   UNL     1       1.739   9.344  18.807  0.00  0.00    +0.000 C 
ATOM      2  O   UNL     1       2.205   9.394  17.671  0.00  0.00    +0.000 OA
ATOM      3  N   UNL     1       0.958  10.392  19.436  0.00  0.00    +0.000 N 
ENDROOT
BRANCH   3   4
ATOM      4  C   UNL     1       1.265  11.783  19.165  0.00  0.00    +0.000 A 
ATOM      5  C   UNL     1       0.759  12.962  19.820  0.00  0.00    +0.000 A 
ATOM      6  C   UNL     1       1.355  14.126  19.429  0.00  0.00    +0.000 A 
ATOM      7  S   UNL     1       2.494  13.875  18.181  0.00  0.00    +0.000 S 
ATOM      8  C   UNL     1       2.201  12.185  18.213  0.00  0.00    +0.000 A 
ENDBRANCH   3   4
BRANCH   1   9
ATOM      9  O   UNL     1       1.954   8.225  19.599  0.00  0.00    +0.000 OA
BRANCH   9  18
ATOM     10  C   UNL     1       3.937   2.604  18.496  0.00  0.00    +0.000 C 
ATOM     11  N   UNL     1       3.645   4.102  18.883  0.00  0.00    +0.000 N 
ATOM     12  C   UNL     1       4.987   4.605  19.387  0.00  0.00    +0.000 C 
ATOM     13  C   UNL     1       3.048   4.881  17.690  0.00  0.00    +0.000 C 
ATOM     14  C   UNL     1       1.650   4.233  17.577  0.00  0.00    +0.000 C 
ATOM     15  C   UNL     1       1.290   3.771  19.001  0.00  0.00    +0.000 C 
ATOM     16  C   UNL     1       2.468   4.230  19.878  0.00  0.00    +0.000 C 
ATOM     17  C   UNL     1       2.257   5.723  20.349  0.00  0.00    +0.000 C 
ATOM     18  C   UNL     1       2.086   6.768  19.206  0.00  0.00    +0.000 C 
ATOM     19  C   UNL     1       2.981   6.414  18.003  0.00  0.00    +0.000 C 
ENDBRANCH   9  18
ENDBRANCH   1   9
BRANCH   3  20
ATOM     20  C   UNL     1      -0.508  10.134  19.579  0.00  0.00    +0.000 C 
BRANCH  20  21
ATOM     21  C   UNL     1      -1.472  10.527  18.472  0.00  0.00    +0.000 A 
ATOM     22  C   UNL     1      -1.525   9.795  17.262  0.00  0.00    +0.000 A 
ATOM     23  C   UNL     1      -2.588   9.956  16.362  0.00  0.00    +0.000 A 
ATOM     24  C   UNL     1      -3.615  10.846  16.659  0.00  0.00    +0.000 A 
ATOM     25  C   UNL     1      -3.551  11.608  17.823  0.00  0.00    +0.000 A 
ATOM     26  C   UNL     1      -2.484  11.455  18.719  0.00  0.00    +0.000 A 
ENDBRANCH  20  21
ENDBRANCH   3  20
TORSDOF 5
ENDMDL
MODEL 5
REMARK VINA RESULT:      -7.3      6.103      8.388
REMARK  Name = 
REMARK  7 active torsions:
REMARK  status: ('A' for Active; 'I' for Inactive)
REMARK    1  A    between atoms: C_1  and  N_2
REMARK    2  A    between atoms: N_2  and  C_3
REMARK    3  A    between atoms: C_9  and  O_10
REMARK    4  A    between atoms: O_10  and  C_11
REMARK    5  A    between atoms: N_13  and  C_14
REMARK    6  A    between atoms: N_13  and  C_21
REMARK    7  A    between atoms: C_14  and  C_15
REMARK                            x       y       z     vdW  Elec       q    Type
REMARK                         _______ _______ _______ _____ _____    ______ ____
ROOT
ATOM      1  C   UNL     1       1.464   9.598  18.678  0.00  0.00    +0.000 C 
ATOM      2  O   UNL     1       1.815   9.583  17.500  0.00  0.00    +0.000 OA
ATOM      3  N   UNL     1       0.729  10.672  19.316  0.00  0.00    +0.000 N 
ENDROOT
BRANCH   3   4
ATOM      4  C   UNL     1       0.979  12.048  18.932  0.00  0.00    +0.000 A 
ATOM      5  C   UNL     1       0.047  13.143  18.845  0.00  0.00    +0.000 A 
ATOM      6  C   UNL     1       0.622  14.356  18.593  0.00  0.00    +0.000 A 
ATOM      7  S   UNL     1       2.309  14.227  18.352  0.00  0.00    +0.000 S 
ATOM      8  C   UNL     1       2.251  12.537  18.637  0.00  0.00    +0.000 A 
ENDBRANCH   3   4
BRANCH   1   9
ATOM      9  O   UNL     1       1.779   8.534  19.511  0.00  0.00    +0.000 OA
BRANCH   9  18
ATOM     10  C   UNL     1       4.149   3.028  18.612  0.00  0.00    +0.000 C 
ATOM     11  N   UNL     1       3.755   4.516  18.941  0.00  0.00    +0.000 N 
ATOM     12  C   UNL     1       5.063   5.136  19.400  0.00  0.00    +0.000 C 
ATOM     13  C   UNL     1       3.086   5.198  17.726  0.00  0.00    +0.000 C 
ATOM     14  C   UNL     1       1.737   4.447  17.664  0.00  0.00    +0.000 C 
ATOM     15  C   UNL     1       1.432   4.022  19.113  0.00  0.00    +0.000 C 
ATOM     16  C   UNL     1       2.586   4.602  19.949  0.00  0.00    +0.000 C 
ATOM     17  C   UNL     1       2.273   6.095  20.360  0.00  0.00    +0.000 C 
ATOM     18  C   UNL     1       2.011   7.075  19.177  0.00  0.00    +0.000 C 
ATOM     19  C   UNL     1       2.913   6.734  17.976  0.00  0.00    +0.000 C 
ENDBRANCH   9  18
ENDBRANCH   1   9
BRANCH   3  20
ATOM     20  C   UNL     1      -0.711  10.403  19.620  0.00  0.00    +0.000 C 
BRANCH  20  21
ATOM     21  C   UNL     1      -1.753  10.442  18.516  0.00  0.00    +0.000 A 
ATOM     22  C   UNL     1      -2.855  11.327  18.588  0.00  0.00    +0.000 A 
ATOM     23  C   UNL     1      -3.655  11.584  17.466  0.00  0.00    +0.000 A 
ATOM     24  C   UNL     1      -3.364  10.965  16.254  0.00  0.00    +0.000 A 
ATOM     25  C   UNL     1      -2.314  10.054  16.182  0.00  0.00    +0.000 A 
ATOM     26  C   UNL     1      -1.518   9.789  17.305  0.00  0.00    +0.000 A 
ENDBRANCH  20  21
ENDBRANCH   3  20
TORSDOF 5
ENDMDL
MODEL 6
REMARK VINA RESULT:      -7.2      2.632      4.290
REMARK  Name = 
REMARK  7 active torsions:
REMARK  status: ('A' for Active; 'I' for Inactive)
REMARK    1  A    between atoms: C_1  and  N_2
REMARK    2  A    between atoms: N_2  and  C_3
REMARK    3  A    between atoms: C_9  and  O_10
REMARK    4  A    between atoms: O_10  and  C_11
REMARK    5  A    between atoms: N_13  and  C_14
REMARK    6  A    between atoms: N_13  and  C_21
REMARK    7  A    between atoms: C_14  and  C_15
REMARK                            x       y       z     vdW  Elec       q    Type
REMARK                         _______ _______ _______ _____ _____    ______ ____
ROOT
ATOM      1  C   UNL     1       4.744   4.963  16.276  0.00  0.00    +0.000 C 
ATOM      2  O   UNL     1       5.599   4.610  15.466  0.00  0.00    +0.000 OA
ATOM      3  N   UNL     1       4.909   6.016  17.258  0.00  0.00    +0.000 N 
ENDROOT
BRANCH   3   4
ATOM      4  C   UNL     1       6.198   6.222  17.889  0.00  0.00    +0.000 A 
ATOM      5  C   UNL     1       7.170   7.256  17.638  0.00  0.00    +0.000 A 
ATOM      6  C   UNL     1       8.226   7.260  18.503  0.00  0.00    +0.000 A 
ATOM      7  S   UNL     1       8.155   5.959  19.608  0.00  0.00    +0.000 S 
ATOM      8  C   UNL     1       6.671   5.428  18.933  0.00  0.00    +0.000 A 
ENDBRANCH   3   4
BRANCH   1   9
ATOM      9  O   UNL     1       3.509   4.330  16.304  0.00  0.00    +0.000 OA
BRANCH   9  18
ATOM     10  C   UNL     1       1.376   2.565  21.696  0.00  0.00    +0.000 C 
ATOM     11  N   UNL     1       2.020   3.219  20.418  0.00  0.00    +0.000 N 
ATOM     12  C   UNL     1       2.796   4.399  20.977  0.00  0.00    +0.000 C 
ATOM     13  C   UNL     1       2.854   2.190  19.623  0.00  0.00    +0.000 C 
ATOM     14  C   UNL     1       1.746   1.268  19.067  0.00  0.00    +0.000 C 
ATOM     15  C   UNL     1       0.499   2.160  18.923  0.00  0.00    +0.000 C 
ATOM     16  C   UNL     1       0.963   3.565  19.343  0.00  0.00    +0.000 C 
ATOM     17  C   UNL     1       1.602   4.325  18.114  0.00  0.00    +0.000 C 
ATOM     18  C   UNL     1       2.812   3.611  17.440  0.00  0.00    +0.000 C 
ATOM     19  C   UNL     1       3.679   2.895  18.493  0.00  0.00    +0.000 C 
ENDBRANCH   9  18
ENDBRANCH   1   9
BRANCH   3  20
ATOM     20  C   UNL     1       4.178   7.294  16.992  0.00  0.00    +0.000 C 
BRANCH  20  21
ATOM     21  C   UNL     1       3.010   7.711  17.868  0.00  0.00    +0.000 A 
ATOM     22  C   UNL     1       2.830   7.150  19.155  0.00  0.00    +0.000 A 
ATOM     23  C   UNL     1       1.946   7.722  20.080  0.00  0.00    +0.000 A 
ATOM     24  C   UNL     1       1.231   8.865  19.736  0.00  0.00    +0.000 A 
ATOM     25  C   UNL     1       1.361   9.398  18.457  0.00  0.00    +0.000 A 
ATOM     26  C   UNL     1       2.238   8.823  17.528  0.00  0.00    +0.000 A 
ENDBRANCH  20  21
ENDBRANCH   3  20
TORSDOF 5
ENDMDL
MODEL 7
REMARK VINA RESULT:      -7.0      4.723      6.723
REMARK  Name = 
REMARK  7 active torsions:
REMARK  status: ('A' for Active; 'I' for Inactive)
REMARK    1  A    between atoms: C_1  and  N_2
REMARK    2  A    between atoms: N_2  and  C_3
REMARK    3  A    between atoms: C_9  and  O_10
REMARK    4  A    between atoms: O_10  and  C_11
REMARK    5  A    between atoms: N_13  and  C_14
REMARK    6  A    between atoms: N_13  and  C_21
REMARK    7  A    between atoms: C_14  and  C_15
REMARK                            x       y       z     vdW  Elec       q    Type
REMARK                         _______ _______ _______ _____ _____    ______ ____
ROOT
ATOM      1  C   UNL     1       2.431   6.758  18.512  0.00  0.00    +0.000 C 
ATOM      2  O   UNL     1       1.656   6.426  17.618  0.00  0.00    +0.000 OA
ATOM      3  N   UNL     1       3.103   5.846  19.417  0.00  0.00    +0.000 N 
ENDROOT
BRANCH   3   4
ATOM      4  C   UNL     1       2.425   4.646  19.869  0.00  0.00    +0.000 A 
ATOM      5  C   UNL     1       1.883   3.567  19.084  0.00  0.00    +0.000 A 
ATOM      6  C   UNL     1       1.434   2.505  19.817  0.00  0.00    +0.000 A 
ATOM      7  S   UNL     1       1.554   2.791  21.497  0.00  0.00    +0.000 S 
ATOM      8  C   UNL     1       2.255   4.330  21.216  0.00  0.00    +0.000 A 
ENDBRANCH   3   4
BRANCH   1   9
ATOM      9  O   UNL     1       2.714   8.100  18.725  0.00  0.00    +0.000 OA
BRANCH   9  18
ATOM     10  C   UNL     1      -1.841  11.969  19.738  0.00  0.00    +0.000 C 
ATOM     11  N   UNL     1      -0.816  10.850  19.323  0.00  0.00    +0.000 N 
ATOM     12  C   UNL     1      -1.544  10.093  18.224  0.00  0.00    +0.000 C 
ATOM     13  C   UNL     1       0.545  11.460  18.920  0.00  0.00    +0.000 C 
ATOM     14  C   UNL     1       1.062  11.968  20.285  0.00  0.00    +0.000 C 
ATOM     15  C   UNL     1       0.437  11.036  21.339  0.00  0.00    +0.000 C 
ATOM     16  C   UNL     1      -0.360   9.998  20.530  0.00  0.00    +0.000 C 
ATOM     17  C   UNL     1       0.578   8.806  20.087  0.00  0.00    +0.000 C 
ATOM     18  C   UNL     1       1.821   9.211  19.238  0.00  0.00    +0.000 C 
ATOM     19  C   UNL     1       1.478  10.372  18.287  0.00  0.00    +0.000 C 
ENDBRANCH   9  18
ENDBRANCH   1   9
BRANCH   3  20
ATOM     20  C   UNL     1       4.567   5.639  19.186  0.00  0.00    +0.000 C 
BRANCH  20  21
ATOM     21  C   UNL     1       5.097   5.376  17.787  0.00  0.00    +0.000 A 
ATOM     22  C   UNL     1       5.141   4.063  17.261  0.00  0.00    +0.000 A 
ATOM     23  C   UNL     1       5.348   3.834  15.894  0.00  0.00    +0.000 A 
ATOM     24  C   UNL     1       5.511   4.913  15.030  0.00  0.00    +0.000 A 
ATOM     25  C   UNL     1       5.519   6.208  15.541  0.00  0.00    +0.000 A 
ATOM     26  C   UNL     1       5.321   6.438  16.910  0.00  0.00    +0.000 A 
ENDBRANCH  20  21
ENDBRANCH   3  20
TORSDOF 5
ENDMDL
MODEL 8
REMARK VINA RESULT:      -7.0      4.857      6.749
REMARK  Name = 
REMARK  7 active torsions:
REMARK  status: ('A' for Active; 'I' for Inactive)
REMARK    1  A    between atoms: C_1  and  N_2
REMARK    2  A    between atoms: N_2  and  C_3
REMARK    3  A    between atoms: C_9  and  O_10
REMARK    4  A    between atoms: O_10  and  C_11
REMARK    5  A    between atoms: N_13  and  C_14
REMARK    6  A    between atoms: N_13  and  C_21
REMARK    7  A    between atoms: C_14  and  C_15
REMARK                            x       y       z     vdW  Elec       q    Type
REMARK                         _______ _______ _______ _____ _____    ______ ____
ROOT
ATOM      1  C   UNL     1       2.341   6.621  18.631  0.00  0.00    +0.000 C 
ATOM      2  O   UNL     1       1.593   6.231  17.737  0.00  0.00    +0.000 OA
ATOM      3  N   UNL     1       3.118   5.762  19.503  0.00  0.00    +0.000 N 
ENDROOT
BRANCH   3   4
ATOM      4  C   UNL     1       2.577   4.487  19.931  0.00  0.00    +0.000 A 
ATOM      5  C   UNL     1       2.442   3.266  19.178  0.00  0.00    +0.000 A 
ATOM      6  C   UNL     1       2.027   2.192  19.912  0.00  0.00    +0.000 A 
ATOM      7  S   UNL     1       1.685   2.616  21.531  0.00  0.00    +0.000 S 
ATOM      8  C   UNL     1       2.145   4.241  21.234  0.00  0.00    +0.000 A 
ENDBRANCH   3   4
BRANCH   1   9
ATOM      9  O   UNL     1       2.483   7.979  18.875  0.00  0.00    +0.000 OA
BRANCH   9  18
ATOM     10  C   UNL     1      -0.602  13.014  20.246  0.00  0.00    +0.000 C 
ATOM     11  N   UNL     1       0.396  11.826  19.982  0.00  0.00    +0.000 N 
ATOM     12  C   UNL     1       1.682  12.290  20.644  0.00  0.00    +0.000 C 
ATOM     13  C   UNL     1      -0.176  10.489  20.504  0.00  0.00    +0.000 C 
ATOM     14  C   UNL     1      -1.334  10.248  19.510  0.00  0.00    +0.000 C 
ATOM     15  C   UNL     1      -0.903  10.931  18.199  0.00  0.00    +0.000 C 
ATOM     16  C   UNL     1       0.507  11.478  18.479  0.00  0.00    +0.000 C 
ATOM     17  C   UNL     1       1.594  10.364  18.212  0.00  0.00    +0.000 C 
ATOM     18  C   UNL     1       1.426   9.052  19.037  0.00  0.00    +0.000 C 
ATOM     19  C   UNL     1       0.909   9.361  20.455  0.00  0.00    +0.000 C 
ENDBRANCH   9  18
ENDBRANCH   1   9
BRANCH   3  20
ATOM     20  C   UNL     1       4.592   5.717  19.251  0.00  0.00    +0.000 C 
BRANCH  20  21
ATOM     21  C   UNL     1       5.127   5.509  17.845  0.00  0.00    +0.000 A 
ATOM     22  C   UNL     1       5.390   4.207  17.353  0.00  0.00    +0.000 A 
ATOM     23  C   UNL     1       5.603   3.976  15.987  0.00  0.00    +0.000 A 
ATOM     24  C   UNL     1       5.552   5.039  15.091  0.00  0.00    +0.000 A 
ATOM     25  C   UNL     1       5.343   6.331  15.567  0.00  0.00    +0.000 A 
ATOM     26  C   UNL     1       5.140   6.565  16.934  0.00  0.00    +0.000 A 
ENDBRANCH  20  21
ENDBRANCH   3  20
TORSDOF 5
ENDMDL
MODEL 9
REMARK VINA RESULT:      -7.0      5.797      8.056
REMARK  Name = 
REMARK  7 active torsions:
REMARK  status: ('A' for Active; 'I' for Inactive)
REMARK    1  A    between atoms: C_1  and  N_2
REMARK    2  A    between atoms: N_2  and  C_3
REMARK    3  A    between atoms: C_9  and  O_10
REMARK    4  A    between atoms: O_10  and  C_11
REMARK    5  A    between atoms: N_13  and  C_14
REMARK    6  A    between atoms: N_13  and  C_21
REMARK    7  A    between atoms: C_14  and  C_15
REMARK                            x       y       z     vdW  Elec       q    Type
REMARK                         _______ _______ _______ _____ _____    ______ ____
ROOT
ATOM      1  C   UNL     1       1.876   9.006  18.948  0.00  0.00    +0.000 C 
ATOM      2  O   UNL     1       2.241   9.075  17.777  0.00  0.00    +0.000 OA
ATOM      3  N   UNL     1       1.170  10.049  19.666  0.00  0.00    +0.000 N 
ENDROOT
BRANCH   3   4
ATOM      4  C   UNL     1       1.473  11.441  19.399  0.00  0.00    +0.000 A 
ATOM      5  C   UNL     1       1.910  12.050  18.169  0.00  0.00    +0.000 A 
ATOM      6  C   UNL     1       1.969  13.414  18.202  0.00  0.00    +0.000 A 
ATOM      7  S   UNL     1       1.593  14.033  19.749  0.00  0.00    +0.000 S 
ATOM      8  C   UNL     1       1.309  12.451  20.347  0.00  0.00    +0.000 A 
ENDBRANCH   3   4
BRANCH   1   9
ATOM      9  O   UNL     1       2.144   7.866  19.694  0.00  0.00    +0.000 OA
BRANCH   9  18
ATOM     10  C   UNL     1       3.625   2.124  18.439  0.00  0.00    +0.000 C 
ATOM     11  N   UNL     1       3.469   3.633  18.858  0.00  0.00    +0.000 N 
ATOM     12  C   UNL     1       4.865   4.018  19.318  0.00  0.00    +0.000 C 
ATOM     13  C   UNL     1       2.894   4.477  17.699  0.00  0.00    +0.000 C 
ATOM     14  C   UNL     1       1.445   3.946  17.629  0.00  0.00    +0.000 C 
ATOM     15  C   UNL     1       1.101   3.490  19.060  0.00  0.00    +0.000 C 
ATOM     16  C   UNL     1       2.343   3.838  19.898  0.00  0.00    +0.000 C 
ATOM     17  C   UNL     1       2.271   5.335  20.397  0.00  0.00    +0.000 C 
ATOM     18  C   UNL     1       2.144   6.410  19.275  0.00  0.00    +0.000 C 
ATOM     19  C   UNL     1       2.963   6.005  18.036  0.00  0.00    +0.000 C 
ENDBRANCH   9  18
ENDBRANCH   1   9
BRANCH   3  20
ATOM     20  C   UNL     1      -0.282   9.807  19.932  0.00  0.00    +0.000 C 
BRANCH  20  21
ATOM     21  C   UNL     1      -1.330  10.205  18.909  0.00  0.00    +0.000 A 
ATOM     22  C   UNL     1      -2.157  11.335  19.118  0.00  0.00    +0.000 A 
ATOM     23  C   UNL     1      -2.917  11.883  18.075  0.00  0.00    +0.000 A 
ATOM     24  C   UNL     1      -2.859  11.314  16.807  0.00  0.00    +0.000 A 
ATOM     25  C   UNL     1      -2.088  10.173  16.599  0.00  0.00    +0.000 A 
ATOM     26  C   UNL     1      -1.335   9.619  17.643  0.00  0.00    +0.000 A 
ENDBRANCH  20  21
ENDBRANCH   3  20
TORSDOF 5
ENDMDL
