MODEL 1
REMARK VINA RESULT:      -8.2      0.000      0.000
REMARK  Name = 
REMARK  5 active torsions:
REMARK  status: ('A' for Active; 'I' for Inactive)
REMARK    1  A    between atoms: N_6  and  C_7
REMARK    2  A    between atoms: C_7  and  C_8
REMARK    3  A    between atoms: C_16  and  C_17
REMARK    4  A    between atoms: C_17  and  C_18
REMARK    5  A    between atoms: C_18  and  C_19
REMARK                            x       y       z     vdW  Elec       q    Type
REMARK                         _______ _______ _______ _____ _____    ______ ____
ROOT
ATOM      1  F   UNL     1       0.718   2.871  21.138  0.00  0.00    +0.000 F 
ATOM      2  C   UNL     1       1.802   3.017  20.333  0.00  0.00    +0.000 C 
ATOM      3  F   UNL     1       2.879   3.117  21.159  0.00  0.00    +0.000 F 
ATOM      4  C   UNL     1       1.961   1.782  19.480  0.00  0.00    +0.000 C 
ATOM      5  C   UNL     1       3.154   1.955  18.552  0.00  0.00    +0.000 C 
ATOM      6  N   UNL     1       2.991   3.135  17.691  0.00  0.00    +0.000 NA
ATOM      7  C   UNL     1       2.806   4.362  18.487  0.00  0.00    +0.000 C 
ATOM      8  C   UNL     1       1.663   4.287  19.504  0.00  0.00    +0.000 C 
ENDROOT
BRANCH   6   9
ATOM      9  C   UNL     1       4.180   3.337  16.830  0.00  0.00    +0.000 C 
BRANCH   9  10
ATOM     10  C   UNL     1       4.986   4.575  17.137  0.00  0.00    +0.000 A 
ATOM     11  C   UNL     1       4.742   5.766  16.431  0.00  0.00    +0.000 A 
ATOM     12  C   UNL     1       5.513   6.902  16.669  0.00  0.00    +0.000 A 
ATOM     13  C   UNL     1       6.535   6.865  17.615  0.00  0.00    +0.000 A 
ATOM     14  C   UNL     1       6.775   5.690  18.329  0.00  0.00    +0.000 A 
ATOM     15 CL   UNL     1       8.030   5.652  19.506  0.00  0.00    +0.000 Cl
ATOM     16  C   UNL     1       6.011   4.550  18.093  0.00  0.00    +0.000 A 
ENDBRANCH   9  10
ENDBRANCH   6   9
BRANCH   8  17
ATOM     17  C   UNL     1       1.667   5.522  20.427  0.00  0.00    +0.000 C 
BRANCH  17  18
ATOM     18  C   UNL     1       2.731   6.563  20.062  0.00  0.00    +0.000 C 
BRANCH  18  19
ATOM     19  C   UNL     1       2.083   7.830  19.568  0.00  0.00    +0.000 A 
ATOM     20  C   UNL     1       1.237   8.568  20.408  0.00  0.00    +0.000 A 
ATOM     21  C   UNL     1       0.583   9.703  19.932  0.00  0.00    +0.000 A 
ATOM     22  C   UNL     1       0.767  10.107  18.610  0.00  0.00    +0.000 A 
ATOM     23  C   UNL     1       1.607   9.382  17.768  0.00  0.00    +0.000 A 
ATOM     24  C   UNL     1       2.263   8.248  18.243  0.00  0.00    +0.000 A 
ENDBRANCH  18  19
ENDBRANCH  17  18
ENDBRANCH   8  17
TORSDOF 5
ENDMDL
MODEL 2
REMARK VINA RESULT:      -8.0      0.189      1.002
REMARK  Name = 
REMARK  5 active torsions:
REMARK  status: ('A' for Active; 'I' for Inactive)
REMARK    1  A    between atoms: N_6  and  C_7
REMARK    2  A    between atoms: C_7  and  C_8
REMARK    3  A    between atoms: C_16  and  C_17
REMARK    4  A    between atoms: C_17  and  C_18
REMARK    5  A    between atoms: C_18  and  C_19
REMARK                            x       y       z     vdW  Elec       q    Type
REMARK                         _______ _______ _______ _____ _____    ______ ____
ROOT
ATOM      1  F   UNL     1       0.884   2.858  21.398  0.00  0.00    +0.000 F 
ATOM      2  C   UNL     1       1.912   3.037  20.530  0.00  0.00    +0.000 C 
ATOM      3  F   UNL     1       3.008   3.309  21.288  0.00  0.00    +0.000 F 
ATOM      4  C   UNL     1       2.156   1.754  19.772  0.00  0.00    +0.000 C 
ATOM      5  C   UNL     1       3.285   1.960  18.773  0.00  0.00    +0.000 C 
ATOM      6  N   UNL     1       2.968   3.043  17.830  0.00  0.00    +0.000 NA
ATOM      7  C   UNL     1       2.697   4.309  18.533  0.00  0.00    +0.000 C 
ATOM      8  C   UNL     1       1.612   4.213  19.609  0.00  0.00    +0.000 C 
ENDROOT
BRANCH   6   9
ATOM      9  C   UNL     1       4.093   3.283  16.896  0.00  0.00    +0.000 C 
BRANCH   9  10
ATOM     10  C   UNL     1       4.909   4.519  17.184  0.00  0.00    +0.000 A 
ATOM     11  C   UNL     1       4.717   5.682  16.421  0.00  0.00    +0.000 A 
ATOM     12  C   UNL     1       5.499   6.814  16.644  0.00  0.00    +0.000 A 
ATOM     13  C   UNL     1       6.480   6.799  17.634  0.00  0.00    +0.000 A 
ATOM     14  C   UNL     1       6.668   5.652  18.404  0.00  0.00    +0.000 A 
ATOM     15 CL   UNL     1       7.872   5.641  19.634  0.00  0.00    +0.000 Cl
ATOM     16  C   UNL     1       5.893   4.516  18.184  0.00  0.00    +0.000 A 
ENDBRANCH   9  10
ENDBRANCH   6   9
BRANCH   8  17
ATOM     17  C   UNL     1       1.534   5.517  20.428  0.00  0.00    +0.000 C 
BRANCH  17  18
ATOM     18  C   UNL     1       2.620   6.537  20.072  0.00  0.00    +0.000 C 
BRANCH  18  19
ATOM     19  C   UNL     1       1.999   7.823  19.592  0.00  0.00    +0.000 A 
ATOM     20  C   UNL     1       2.162   8.235  18.262  0.00  0.00    +0.000 A 
ATOM     21  C   UNL     1       1.647   9.457  17.832  0.00  0.00    +0.000 A 
ATOM     22  C   UNL     1       0.967  10.278  18.731  0.00  0.00    +0.000 A 
ATOM     23  C   UNL     1       0.797   9.876  20.053  0.00  0.00    +0.000 A 
ATOM     24  C   UNL     1       1.310   8.654  20.484  0.00  0.00    +0.000 A 
ENDBRANCH  18  19
ENDBRANCH  17  18
ENDBRANCH   8  17
TORSDOF 5
ENDMDL
MODEL 3
REMARK VINA RESULT:      -7.7      3.028      3.553
REMARK  Name = 
REMARK  5 active torsions:
REMARK  status: ('A' for Active; 'I' for Inactive)
REMARK    1  A    between atoms: N_6  and  C_7
REMARK    2  A    between atoms: C_7  and  C_8
REMARK    3  A    between atoms: C_16  and  C_17
REMARK    4  A    between atoms: C_17  and  C_18
REMARK    5  A    between atoms: C_18  and  C_19
REMARK                            x       y       z     vdW  Elec       q    Type
REMARK                         _______ _______ _______ _____ _____    ______ ____
ROOT
ATOM      1  F   UNL     1       1.297   4.000  18.782  0.00  0.00    +0.000 F 
ATOM      2  C   UNL     1       2.605   4.157  18.454  0.00  0.00    +0.000 C 
ATOM      3  F   UNL     1       3.300   4.100  19.622  0.00  0.00    +0.000 F 
ATOM      4  C   UNL     1       3.041   3.010  17.575  0.00  0.00    +0.000 C 
ATOM      5  C   UNL     1       4.497   3.201  17.177  0.00  0.00    +0.000 C 
ATOM      6  N   UNL     1       4.691   4.473  16.466  0.00  0.00    +0.000 NA
ATOM      7  C   UNL     1       4.251   5.619  17.282  0.00  0.00    +0.000 C 
ATOM      8  C   UNL     1       2.812   5.514  17.792  0.00  0.00    +0.000 C 
ENDROOT
BRANCH   6   9
ATOM      9  C   UNL     1       6.119   4.685  16.132  0.00  0.00    +0.000 C 
BRANCH   9  10
ATOM     10  C   UNL     1       6.466   4.510  14.674  0.00  0.00    +0.000 A 
ATOM     11  C   UNL     1       7.501   5.268  14.101  0.00  0.00    +0.000 A 
ATOM     12  C   UNL     1       7.797   5.153  12.744  0.00  0.00    +0.000 A 
ATOM     13  C   UNL     1       7.065   4.277  11.943  0.00  0.00    +0.000 A 
ATOM     14  C   UNL     1       6.045   3.513  12.508  0.00  0.00    +0.000 A 
ATOM     15 CL   UNL     1       5.151   2.423  11.519  0.00  0.00    +0.000 Cl
ATOM     16  C   UNL     1       5.741   3.626  13.862  0.00  0.00    +0.000 A 
ENDBRANCH   9  10
ENDBRANCH   6   9
BRANCH   8  17
ATOM     17  C   UNL     1       2.501   6.642  18.796  0.00  0.00    +0.000 C 
BRANCH  17  18
ATOM     18  C   UNL     1       2.556   8.046  18.185  0.00  0.00    +0.000 C 
BRANCH  18  19
ATOM     19  C   UNL     1       1.488   8.925  18.783  0.00  0.00    +0.000 A 
ATOM     20  C   UNL     1       1.255   8.916  20.165  0.00  0.00    +0.000 A 
ATOM     21  C   UNL     1       0.223   9.677  20.712  0.00  0.00    +0.000 A 
ATOM     22  C   UNL     1      -0.586  10.449  19.881  0.00  0.00    +0.000 A 
ATOM     23  C   UNL     1      -0.361  10.467  18.506  0.00  0.00    +0.000 A 
ATOM     24  C   UNL     1       0.672   9.709  17.958  0.00  0.00    +0.000 A 
ENDBRANCH  18  19
ENDBRANCH  17  18
ENDBRANCH   8  17
TORSDOF 5
ENDMDL
MODEL 4
REMARK VINA RESULT:      -7.7      3.939      5.658
REMARK  Name = 
REMARK  5 active torsions:
REMARK  status: ('A' for Active; 'I' for Inactive)
REMARK    1  A    between atoms: N_6  and  C_7
REMARK    2  A    between atoms: C_7  and  C_8
REMARK    3  A    between atoms: C_16  and  C_17
REMARK    4  A    between atoms: C_17  and  C_18
REMARK    5  A    between atoms: C_18  and  C_19
REMARK                            x       y       z     vdW  Elec       q    Type
REMARK                         _______ _______ _______ _____ _____    ______ ____
ROOT
ATOM      1  F   UNL     1       5.505   5.306  19.441  0.00  0.00    +0.000 F 
ATOM      2  C   UNL     1       5.973   5.515  18.184  0.00  0.00    +0.000 C 
ATOM      3  F   UNL     1       6.741   6.636  18.244  0.00  0.00    +0.000 F 
ATOM      4  C   UNL     1       6.845   4.352  17.776  0.00  0.00    +0.000 C 
ATOM      5  C   UNL     1       7.343   4.565  16.354  0.00  0.00    +0.000 C 
ATOM      6  N   UNL     1       6.222   4.699  15.413  0.00  0.00    +0.000 NA
ATOM      7  C   UNL     1       5.329   5.809  15.792  0.00  0.00    +0.000 C 
ATOM      8  C   UNL     1       4.806   5.735  17.229  0.00  0.00    +0.000 C 
ENDROOT
BRANCH   6   9
ATOM      9  C   UNL     1       6.707   4.966  14.038  0.00  0.00    +0.000 C 
BRANCH   9  10
ATOM     10  C   UNL     1       6.305   3.939  13.009  0.00  0.00    +0.000 A 
ATOM     11  C   UNL     1       7.263   3.053  12.489  0.00  0.00    +0.000 A 
ATOM     12  C   UNL     1       6.915   2.133  11.501  0.00  0.00    +0.000 A 
ATOM     13  C   UNL     1       5.607   2.085  11.023  0.00  0.00    +0.000 A 
ATOM     14  C   UNL     1       4.648   2.953  11.545  0.00  0.00    +0.000 A 
ATOM     15 CL   UNL     1       3.029   2.882  10.961  0.00  0.00    +0.000 Cl
ATOM     16  C   UNL     1       4.989   3.878  12.529  0.00  0.00    +0.000 A 
ENDBRANCH   9  10
ENDBRANCH   6   9
BRANCH   8  17
ATOM     17  C   UNL     1       4.053   7.026  17.607  0.00  0.00    +0.000 C 
BRANCH  17  18
ATOM     18  C   UNL     1       2.532   6.854  17.687  0.00  0.00    +0.000 C 
BRANCH  18  19
ATOM     19  C   UNL     1       2.180   5.659  18.533  0.00  0.00    +0.000 A 
ATOM     20  C   UNL     1       1.707   4.482  17.936  0.00  0.00    +0.000 A 
ATOM     21  C   UNL     1       1.316   3.398  18.720  0.00  0.00    +0.000 A 
ATOM     22  C   UNL     1       1.392   3.484  20.110  0.00  0.00    +0.000 A 
ATOM     23  C   UNL     1       1.864   4.647  20.713  0.00  0.00    +0.000 A 
ATOM     24  C   UNL     1       2.257   5.731  19.930  0.00  0.00    +0.000 A 
ENDBRANCH  18  19
ENDBRANCH  17  18
ENDBRANCH   8  17
TORSDOF 5
ENDMDL
MODEL 5
REMARK VINA RESULT:      -7.5      1.144      1.628
REMARK  Name = 
REMARK  5 active torsions:
REMARK  status: ('A' for Active; 'I' for Inactive)
REMARK    1  A    between atoms: N_6  and  C_7
REMARK    2  A    between atoms: C_7  and  C_8
REMARK    3  A    between atoms: C_16  and  C_17
REMARK    4  A    between atoms: C_17  and  C_18
REMARK    5  A    between atoms: C_18  and  C_19
REMARK                            x       y       z     vdW  Elec       q    Type
REMARK                         _______ _______ _______ _____ _____    ______ ____
ROOT
ATOM      1  F   UNL     1      -0.045   3.043  19.927  0.00  0.00    +0.000 F 
ATOM      2  C   UNL     1       1.305   3.136  20.036  0.00  0.00    +0.000 C 
ATOM      3  F   UNL     1       1.598   2.917  21.346  0.00  0.00    +0.000 F 
ATOM      4  C   UNL     1       1.949   2.049  19.209  0.00  0.00    +0.000 C 
ATOM      5  C   UNL     1       3.463   2.170  19.300  0.00  0.00    +0.000 C 
ATOM      6  N   UNL     1       3.919   3.487  18.832  0.00  0.00    +0.000 NA
ATOM      7  C   UNL     1       3.292   4.579  19.597  0.00  0.00    +0.000 C 
ATOM      8  C   UNL     1       1.762   4.531  19.627  0.00  0.00    +0.000 C 
ENDROOT
BRANCH   6   9
ATOM      9  C   UNL     1       5.387   3.626  18.977  0.00  0.00    +0.000 C 
BRANCH   9  10
ATOM     10  C   UNL     1       6.032   4.604  18.027  0.00  0.00    +0.000 A 
ATOM     11  C   UNL     1       5.993   4.370  16.642  0.00  0.00    +0.000 A 
ATOM     12  C   UNL     1       6.628   5.240  15.758  0.00  0.00    +0.000 A 
ATOM     13  C   UNL     1       7.308   6.355  16.244  0.00  0.00    +0.000 A 
ATOM     14  C   UNL     1       7.341   6.600  17.617  0.00  0.00    +0.000 A 
ATOM     15 CL   UNL     1       8.172   7.985  18.214  0.00  0.00    +0.000 Cl
ATOM     16  C   UNL     1       6.712   5.733  18.507  0.00  0.00    +0.000 A 
ENDBRANCH   9  10
ENDBRANCH   6   9
BRANCH   8  17
ATOM     17  C   UNL     1       1.198   5.578  20.607  0.00  0.00    +0.000 C 
BRANCH  17  18
ATOM     18  C   UNL     1       2.126   6.776  20.835  0.00  0.00    +0.000 C 
BRANCH  18  19
ATOM     19  C   UNL     1       1.772   7.903  19.900  0.00  0.00    +0.000 A 
ATOM     20  C   UNL     1       2.285   7.929  18.596  0.00  0.00    +0.000 A 
ATOM     21  C   UNL     1       2.014   9.004  17.751  0.00  0.00    +0.000 A 
ATOM     22  C   UNL     1       1.231  10.064  18.207  0.00  0.00    +0.000 A 
ATOM     23  C   UNL     1       0.715  10.046  19.500  0.00  0.00    +0.000 A 
ATOM     24  C   UNL     1       0.983   8.971  20.345  0.00  0.00    +0.000 A 
ENDBRANCH  18  19
ENDBRANCH  17  18
ENDBRANCH   8  17
TORSDOF 5
ENDMDL
MODEL 6
REMARK VINA RESULT:      -7.5      1.557      2.511
REMARK  Name = 
REMARK  5 active torsions:
REMARK  status: ('A' for Active; 'I' for Inactive)
REMARK    1  A    between atoms: N_6  and  C_7
REMARK    2  A    between atoms: C_7  and  C_8
REMARK    3  A    between atoms: C_16  and  C_17
REMARK    4  A    between atoms: C_17  and  C_18
REMARK    5  A    between atoms: C_18  and  C_19
REMARK                            x       y       z     vdW  Elec       q    Type
REMARK                         _______ _______ _______ _____ _____    ______ ____
ROOT
ATOM      1  F   UNL     1       1.158   4.032  19.453  0.00  0.00    +0.000 F 
ATOM      2  C   UNL     1       2.392   4.211  18.916  0.00  0.00    +0.000 C 
ATOM      3  F   UNL     1       3.279   4.051  19.936  0.00  0.00    +0.000 F 
ATOM      4  C   UNL     1       2.647   3.141  17.882  0.00  0.00    +0.000 C 
ATOM      5  C   UNL     1       4.016   3.357  17.253  0.00  0.00    +0.000 C 
ATOM      6  N   UNL     1       4.108   4.685  16.627  0.00  0.00    +0.000 NA
ATOM      7  C   UNL     1       3.838   5.759  17.599  0.00  0.00    +0.000 C 
ATOM      8  C   UNL     1       2.507   5.618  18.342  0.00  0.00    +0.000 C 
ENDROOT
BRANCH   6   9
ATOM      9  C   UNL     1       5.460   4.918  16.067  0.00  0.00    +0.000 C 
BRANCH   9  10
ATOM     10  C   UNL     1       6.445   5.547  17.021  0.00  0.00    +0.000 A 
ATOM     11  C   UNL     1       7.047   4.769  18.024  0.00  0.00    +0.000 A 
ATOM     12  C   UNL     1       7.920   5.349  18.943  0.00  0.00    +0.000 A 
ATOM     13  C   UNL     1       8.205   6.711  18.870  0.00  0.00    +0.000 A 
ATOM     14  C   UNL     1       7.620   7.487  17.869  0.00  0.00    +0.000 A 
ATOM     15 CL   UNL     1       7.984   9.167  17.773  0.00  0.00    +0.000 Cl
ATOM     16  C   UNL     1       6.744   6.915  16.950  0.00  0.00    +0.000 A 
ENDBRANCH   9  10
ENDBRANCH   6   9
BRANCH   8  17
ATOM     17  C   UNL     1       2.397   6.658  19.475  0.00  0.00    +0.000 C 
BRANCH  17  18
ATOM     18  C   UNL     1       2.078   8.075  18.984  0.00  0.00    +0.000 C 
BRANCH  18  19
ATOM     19  C   UNL     1       1.230   8.804  19.993  0.00  0.00    +0.000 A 
ATOM     20  C   UNL     1       0.461   9.911  19.605  0.00  0.00    +0.000 A 
ATOM     21  C   UNL     1      -0.271  10.628  20.549  0.00  0.00    +0.000 A 
ATOM     22  C   UNL     1      -0.237  10.248  21.890  0.00  0.00    +0.000 A 
ATOM     23  C   UNL     1       0.521   9.148  22.285  0.00  0.00    +0.000 A 
ATOM     24  C   UNL     1       1.252   8.428  21.342  0.00  0.00    +0.000 A 
ENDBRANCH  18  19
ENDBRANCH  17  18
ENDBRANCH   8  17
TORSDOF 5
ENDMDL
MODEL 7
REMARK VINA RESULT:      -7.4      1.906      2.356
REMARK  Name = 
REMARK  5 active torsions:
REMARK  status: ('A' for Active; 'I' for Inactive)
REMARK    1  A    between atoms: N_6  and  C_7
REMARK    2  A    between atoms: C_7  and  C_8
REMARK    3  A    between atoms: C_16  and  C_17
REMARK    4  A    between atoms: C_17  and  C_18
REMARK    5  A    between atoms: C_18  and  C_19
REMARK                            x       y       z     vdW  Elec       q    Type
REMARK                         _______ _______ _______ _____ _____    ______ ____
ROOT
ATOM      1  F   UNL     1       0.665   3.258  21.429  0.00  0.00    +0.000 F 
ATOM      2  C   UNL     1       1.932   3.544  21.032  0.00  0.00    +0.000 C 
ATOM      3  F   UNL     1       2.612   3.900  22.155  0.00  0.00    +0.000 F 
ATOM      4  C   UNL     1       2.567   2.302  20.455  0.00  0.00    +0.000 C 
ATOM      5  C   UNL     1       3.975   2.626  19.977  0.00  0.00    +0.000 C 
ATOM      6  N   UNL     1       3.959   3.692  18.965  0.00  0.00    +0.000 NA
ATOM      7  C   UNL     1       3.321   4.916  19.481  0.00  0.00    +0.000 C 
ATOM      8  C   UNL     1       1.914   4.704  20.045  0.00  0.00    +0.000 C 
ENDROOT
BRANCH   6   9
ATOM      9  C   UNL     1       5.334   4.049  18.544  0.00  0.00    +0.000 C 
BRANCH   9  10
ATOM     10  C   UNL     1       5.439   4.683  17.179  0.00  0.00    +0.000 A 
ATOM     11  C   UNL     1       5.189   6.056  17.020  0.00  0.00    +0.000 A 
ATOM     12  C   UNL     1       5.233   6.644  15.757  0.00  0.00    +0.000 A 
ATOM     13  C   UNL     1       5.530   5.868  14.638  0.00  0.00    +0.000 A 
ATOM     14  C   UNL     1       5.792   4.506  14.790  0.00  0.00    +0.000 A 
ATOM     15 CL   UNL     1       6.170   3.554  13.406  0.00  0.00    +0.000 Cl
ATOM     16  C   UNL     1       5.745   3.912  16.048  0.00  0.00    +0.000 A 
ENDBRANCH   9  10
ENDBRANCH   6   9
BRANCH   8  17
ATOM     17  C   UNL     1       1.404   5.981  20.743  0.00  0.00    +0.000 C 
BRANCH  17  18
ATOM     18  C   UNL     1       2.018   7.273  20.195  0.00  0.00    +0.000 C 
BRANCH  18  19
ATOM     19  C   UNL     1       1.245   8.472  20.678  0.00  0.00    +0.000 A 
ATOM     20  C   UNL     1       0.866   8.576  22.024  0.00  0.00    +0.000 A 
ATOM     21  C   UNL     1       0.093   9.651  22.459  0.00  0.00    +0.000 A 
ATOM     22  C   UNL     1      -0.311  10.629  21.551  0.00  0.00    +0.000 A 
ATOM     23  C   UNL     1       0.062  10.536  20.212  0.00  0.00    +0.000 A 
ATOM     24  C   UNL     1       0.837   9.463  19.776  0.00  0.00    +0.000 A 
ENDBRANCH  18  19
ENDBRANCH  17  18
ENDBRANCH   8  17
TORSDOF 5
ENDMDL
MODEL 8
REMARK VINA RESULT:      -7.4      2.872      3.384
REMARK  Name = 
REMARK  5 active torsions:
REMARK  status: ('A' for Active; 'I' for Inactive)
REMARK    1  A    between atoms: N_6  and  C_7
REMARK    2  A    between atoms: C_7  and  C_8
REMARK    3  A    between atoms: C_16  and  C_17
REMARK    4  A    between atoms: C_17  and  C_18
REMARK    5  A    between atoms: C_18  and  C_19
REMARK                            x       y       z     vdW  Elec       q    Type
REMARK                         _______ _______ _______ _____ _____    ______ ____
ROOT
ATOM      1  F   UNL     1       0.923   3.129  18.873  0.00  0.00    +0.000 F 
ATOM      2  C   UNL     1       2.217   3.432  18.596  0.00  0.00    +0.000 C 
ATOM      3  F   UNL     1       2.854   3.515  19.796  0.00  0.00    +0.000 F 
ATOM      4  C   UNL     1       2.834   2.308  17.799  0.00  0.00    +0.000 C 
ATOM      5  C   UNL     1       4.275   2.659  17.457  0.00  0.00    +0.000 C 
ATOM      6  N   UNL     1       4.349   3.911  16.691  0.00  0.00    +0.000 NA
ATOM      7  C   UNL     1       3.732   5.030  17.425  0.00  0.00    +0.000 C 
ATOM      8  C   UNL     1       2.292   4.771  17.874  0.00  0.00    +0.000 C 
ENDROOT
BRANCH   6   9
ATOM      9  C   UNL     1       5.756   4.283  16.410  0.00  0.00    +0.000 C 
BRANCH   9  10
ATOM     10  C   UNL     1       6.145   4.254  14.953  0.00  0.00    +0.000 A 
ATOM     11  C   UNL     1       7.324   4.889  14.527  0.00  0.00    +0.000 A 
ATOM     12  C   UNL     1       7.667   4.914  13.176  0.00  0.00    +0.000 A 
ATOM     13  C   UNL     1       6.841   4.302  12.235  0.00  0.00    +0.000 A 
ATOM     14  C   UNL     1       5.676   3.658  12.653  0.00  0.00    +0.000 A 
ATOM     15 CL   UNL     1       4.664   2.893  11.490  0.00  0.00    +0.000 Cl
ATOM     16  C   UNL     1       5.324   3.634  14.000  0.00  0.00    +0.000 A 
ENDBRANCH   9  10
ENDBRANCH   6   9
BRANCH   8  17
ATOM     17  C   UNL     1       1.795   5.898  18.802  0.00  0.00    +0.000 C 
BRANCH  17  18
ATOM     18  C   UNL     1       2.591   7.201  18.675  0.00  0.00    +0.000 C 
BRANCH  18  19
ATOM     19  C   UNL     1       1.752   8.377  19.101  0.00  0.00    +0.000 A 
ATOM     20  C   UNL     1       1.415   9.378  18.179  0.00  0.00    +0.000 A 
ATOM     21  C   UNL     1       0.696  10.501  18.586  0.00  0.00    +0.000 A 
ATOM     22  C   UNL     1       0.311  10.632  19.920  0.00  0.00    +0.000 A 
ATOM     23  C   UNL     1       0.638   9.641  20.842  0.00  0.00    +0.000 A 
ATOM     24  C   UNL     1       1.355   8.518  20.436  0.00  0.00    +0.000 A 
ENDBRANCH  18  19
ENDBRANCH  17  18
ENDBRANCH   8  17
TORSDOF 5
ENDMDL
MODEL 9
REMARK VINA RESULT:      -7.3      3.660      5.491
REMARK  Name = 
REMARK  5 active torsions:
REMARK  status: ('A' for Active; 'I' for Inactive)
REMARK    1  A    between atoms: N_6  and  C_7
REMARK    2  A    between atoms: C_7  and  C_8
REMARK    3  A    between atoms: C_16  and  C_17
REMARK    4  A    between atoms: C_17  and  C_18
REMARK    5  A    between atoms: C_18  and  C_19
REMARK                            x       y       z     vdW  Elec       q    Type
REMARK                         _______ _______ _______ _____ _____    ______ ____
ROOT
ATOM      1  F   UNL     1       5.300   4.940  19.831  0.00  0.00    +0.000 F 
ATOM      2  C   UNL     1       5.742   5.278  18.593  0.00  0.00    +0.000 C 
ATOM      3  F   UNL     1       6.193   6.558  18.686  0.00  0.00    +0.000 F 
ATOM      4  C   UNL     1       6.899   4.385  18.214  0.00  0.00    +0.000 C 
ATOM      5  C   UNL     1       7.376   4.737  16.813  0.00  0.00    +0.000 C 
ATOM      6  N   UNL     1       6.292   4.591  15.831  0.00  0.00    +0.000 NA
ATOM      7  C   UNL     1       5.131   5.428  16.179  0.00  0.00    +0.000 C 
ATOM      8  C   UNL     1       4.593   5.203  17.595  0.00  0.00    +0.000 C 
ENDROOT
BRANCH   6   9
ATOM      9  C   UNL     1       6.741   4.992  14.477  0.00  0.00    +0.000 C 
BRANCH   9  10
ATOM     10  C   UNL     1       6.201   4.148  13.349  0.00  0.00    +0.000 A 
ATOM     11  C   UNL     1       4.823   4.145  13.071  0.00  0.00    +0.000 A 
ATOM     12  C   UNL     1       4.305   3.331  12.065  0.00  0.00    +0.000 A 
ATOM     13  C   UNL     1       5.154   2.512  11.324  0.00  0.00    +0.000 A 
ATOM     14  C   UNL     1       6.524   2.519  11.587  0.00  0.00    +0.000 A 
ATOM     15 CL   UNL     1       7.573   1.516  10.661  0.00  0.00    +0.000 Cl
ATOM     16  C   UNL     1       7.049   3.327  12.593  0.00  0.00    +0.000 A 
ENDBRANCH   9  10
ENDBRANCH   6   9
BRANCH   8  17
ATOM     17  C   UNL     1       3.520   6.251  17.949  0.00  0.00    +0.000 C 
BRANCH  17  18
ATOM     18  C   UNL     1       2.085   5.720  17.866  0.00  0.00    +0.000 C 
BRANCH  18  19
ATOM     19  C   UNL     1       1.860   4.642  18.893  0.00  0.00    +0.000 A 
ATOM     20  C   UNL     1       2.029   4.917  20.258  0.00  0.00    +0.000 A 
ATOM     21  C   UNL     1       1.888   3.905  21.206  0.00  0.00    +0.000 A 
ATOM     22  C   UNL     1       1.581   2.608  20.796  0.00  0.00    +0.000 A 
ATOM     23  C   UNL     1       1.408   2.325  19.443  0.00  0.00    +0.000 A 
ATOM     24  C   UNL     1       1.546   3.336  18.494  0.00  0.00    +0.000 A 
ENDBRANCH  18  19
ENDBRANCH  17  18
ENDBRANCH   8  17
TORSDOF 5
ENDMDL
