MODEL 1
REMARK VINA RESULT:      -7.6      0.000      0.000
REMARK  Name = 
REMARK  4 active torsions:
REMARK  status: ('A' for Active; 'I' for Inactive)
REMARK    1  A    between atoms: C_1  and  C_2
REMARK    2  A    between atoms: C_6  and  C_7
REMARK    3  A    between atoms: C_8  and  N_9
REMARK    4  A    between atoms: N_21  and  C_22
REMARK                            x       y       z     vdW  Elec       q    Type
REMARK                         _______ _______ _______ _____ _____    ______ ____
ROOT
ATOM      1  N   UNL     1       0.124  10.640  20.097  0.00  0.00    +0.000 N 
ATOM      2  C   UNL     1       0.541  11.885  20.517  0.00  0.00    +0.000 C 
ATOM      3  O   UNL     1       1.653  12.173  20.942  0.00  0.00    +0.000 OA
ATOM      4  N   UNL     1      -0.481  12.811  20.622  0.00  0.00    +0.000 N 
ATOM      5  C   UNL     1      -1.669  12.692  19.930  0.00  0.00    +0.000 A 
ATOM      6  N   UNL     1      -1.729  12.134  18.743  0.00  0.00    +0.000 NA
ATOM      7  C   UNL     1      -3.040  11.940  18.471  0.00  0.00    +0.000 A 
ATOM      8  C   UNL     1      -3.611  11.376  17.321  0.00  0.00    +0.000 A 
ATOM      9  C   UNL     1      -4.991  11.181  17.281  0.00  0.00    +0.000 A 
ATOM     10  C   UNL     1      -5.788  11.570  18.353  0.00  0.00    +0.000 A 
ATOM     11  C   UNL     1      -5.234  12.186  19.484  0.00  0.00    +0.000 A 
ATOM     12  C   UNL     1      -3.838  12.345  19.538  0.00  0.00    +0.000 A 
ATOM     13  N   UNL     1      -2.945  12.886  20.477  0.00  0.00    +0.000 N 
ATOM     14  H   UNL     1      -0.879  10.546  20.053  0.00  0.00    +0.000 HD
ATOM     15  H   UNL     1      -0.260  13.687  21.075  0.00  0.00    +0.000 HD
ENDROOT
BRANCH   1  23
ATOM     16  C   UNL     1       1.816   9.839  17.772  0.00  0.00    +0.000 C 
ATOM     17  C   UNL     1       1.637   9.022  19.022  0.00  0.00    +0.000 A 
ATOM     18  C   UNL     1       2.239   7.751  19.075  0.00  0.00    +0.000 A 
ATOM     19  C   UNL     1       2.037   6.900  20.160  0.00  0.00    +0.000 A 
ATOM     20  C   UNL     1       1.234   7.308  21.223  0.00  0.00    +0.000 A 
ATOM     21  C   UNL     1       0.623   8.574  21.207  0.00  0.00    +0.000 A 
ATOM     22  C   UNL     1      -0.184   8.993  22.408  0.00  0.00    +0.000 C 
ATOM     23  C   UNL     1       0.841   9.436  20.106  0.00  0.00    +0.000 A 
ENDBRANCH   1  23
BRANCH  13  24
ATOM     24  C   UNL     1      -3.287  13.322  21.800  0.00  0.00    +0.000 A 
ATOM     25  C   UNL     1      -3.316  12.359  22.831  0.00  0.00    +0.000 A 
ATOM     26  C   UNL     1      -3.729  12.687  24.123  0.00  0.00    +0.000 A 
ATOM     27  C   UNL     1      -4.065  13.998  24.427  0.00  0.00    +0.000 A 
ATOM     28  C   UNL     1      -3.992  14.975  23.435  0.00  0.00    +0.000 A 
ATOM     29  C   UNL     1      -3.622  14.645  22.120  0.00  0.00    +0.000 A 
ATOM     30 CL   UNL     1      -3.776  15.922  20.964  0.00  0.00    +0.000 Cl
ENDBRANCH  13  24
TORSDOF 2
ENDMDL
MODEL 2
REMARK VINA RESULT:      -7.6      3.354      6.640
REMARK  Name = 
REMARK  4 active torsions:
REMARK  status: ('A' for Active; 'I' for Inactive)
REMARK    1  A    between atoms: C_1  and  C_2
REMARK    2  A    between atoms: C_6  and  C_7
REMARK    3  A    between atoms: C_8  and  N_9
REMARK    4  A    between atoms: N_21  and  C_22
REMARK                            x       y       z     vdW  Elec       q    Type
REMARK                         _______ _______ _______ _____ _____    ______ ____
ROOT
ATOM      1  N   UNL     1       0.938  14.074  19.490  0.00  0.00    +0.000 N 
ATOM      2  C   UNL     1       1.444  13.429  20.600  0.00  0.00    +0.000 C 
ATOM      3  O   UNL     1       2.306  13.856  21.357  0.00  0.00    +0.000 OA
ATOM      4  N   UNL     1       1.040  12.111  20.713  0.00  0.00    +0.000 N 
ATOM      5  C   UNL     1      -0.103  11.627  20.109  0.00  0.00    +0.000 A 
ATOM      6  N   UNL     1      -1.165  12.377  19.931  0.00  0.00    +0.000 NA
ATOM      7  C   UNL     1      -1.984  11.698  19.095  0.00  0.00    +0.000 A 
ATOM      8  C   UNL     1      -3.241  12.086  18.610  0.00  0.00    +0.000 A 
ATOM      9  C   UNL     1      -3.883  11.273  17.677  0.00  0.00    +0.000 A 
ATOM     10  C   UNL     1      -3.298  10.081  17.261  0.00  0.00    +0.000 A 
ATOM     11  C   UNL     1      -2.067   9.656  17.781  0.00  0.00    +0.000 A 
ATOM     12  C   UNL     1      -1.404  10.497  18.692  0.00  0.00    +0.000 A 
ATOM     13  N   UNL     1      -0.191  10.423  19.396  0.00  0.00    +0.000 N 
ATOM     14  H   UNL     1       0.457  13.458  18.853  0.00  0.00    +0.000 HD
ATOM     15  H   UNL     1       1.504  11.549  21.413  0.00  0.00    +0.000 HD
ENDROOT
BRANCH   1  23
ATOM     16  C   UNL     1      -0.834  16.463  19.727  0.00  0.00    +0.000 C 
ATOM     17  C   UNL     1       0.503  16.455  19.040  0.00  0.00    +0.000 A 
ATOM     18  C   UNL     1       0.921  17.630  18.387  0.00  0.00    +0.000 A 
ATOM     19  C   UNL     1       2.103  17.667  17.650  0.00  0.00    +0.000 A 
ATOM     20  C   UNL     1       2.899  16.527  17.557  0.00  0.00    +0.000 A 
ATOM     21  C   UNL     1       2.517  15.338  18.203  0.00  0.00    +0.000 A 
ATOM     22  C   UNL     1       3.444  14.153  18.125  0.00  0.00    +0.000 C 
ATOM     23  C   UNL     1       1.320  15.312  18.957  0.00  0.00    +0.000 A 
ENDBRANCH   1  23
BRANCH  13  24
ATOM     24  C   UNL     1       0.820   9.422  19.215  0.00  0.00    +0.000 A 
ATOM     25  C   UNL     1       1.472   9.354  17.966  0.00  0.00    +0.000 A 
ATOM     26  C   UNL     1       2.400   8.350  17.682  0.00  0.00    +0.000 A 
ATOM     27  C   UNL     1       2.738   7.428  18.661  0.00  0.00    +0.000 A 
ATOM     28  C   UNL     1       2.143   7.510  19.920  0.00  0.00    +0.000 A 
ATOM     29  C   UNL     1       1.174   8.489  20.200  0.00  0.00    +0.000 A 
ATOM     30 CL   UNL     1       0.384   8.334  21.730  0.00  0.00    +0.000 Cl
ENDBRANCH  13  24
TORSDOF 2
ENDMDL
MODEL 3
REMARK VINA RESULT:      -7.4      3.206      6.472
REMARK  Name = 
REMARK  4 active torsions:
REMARK  status: ('A' for Active; 'I' for Inactive)
REMARK    1  A    between atoms: C_1  and  C_2
REMARK    2  A    between atoms: C_6  and  C_7
REMARK    3  A    between atoms: C_8  and  N_9
REMARK    4  A    between atoms: N_21  and  C_22
REMARK                            x       y       z     vdW  Elec       q    Type
REMARK                         _______ _______ _______ _____ _____    ______ ____
ROOT
ATOM      1  N   UNL     1       0.294  14.191  19.684  0.00  0.00    +0.000 N 
ATOM      2  C   UNL     1       0.756  13.529  20.802  0.00  0.00    +0.000 C 
ATOM      3  O   UNL     1       1.524  13.977  21.644  0.00  0.00    +0.000 OA
ATOM      4  N   UNL     1       0.439  12.183  20.825  0.00  0.00    +0.000 N 
ATOM      5  C   UNL     1      -0.615  11.652  20.111  0.00  0.00    +0.000 A 
ATOM      6  N   UNL     1      -1.711  12.336  19.879  0.00  0.00    +0.000 NA
ATOM      7  C   UNL     1      -2.412  11.645  18.951  0.00  0.00    +0.000 A 
ATOM      8  C   UNL     1      -3.651  11.970  18.382  0.00  0.00    +0.000 A 
ATOM      9  C   UNL     1      -4.160  11.161  17.367  0.00  0.00    +0.000 A 
ATOM     10  C   UNL     1      -3.460  10.034  16.949  0.00  0.00    +0.000 A 
ATOM     11  C   UNL     1      -2.247   9.668  17.549  0.00  0.00    +0.000 A 
ATOM     12  C   UNL     1      -1.718  10.507  18.546  0.00  0.00    +0.000 A 
ATOM     13  N   UNL     1      -0.561  10.482  19.342  0.00  0.00    +0.000 N 
ATOM     14  H   UNL     1      -0.092  13.576  18.984  0.00  0.00    +0.000 HD
ATOM     15  H   UNL     1       0.886  11.621  21.536  0.00  0.00    +0.000 HD
ENDROOT
BRANCH   1  23
ATOM     16  C   UNL     1       2.850  14.701  18.230  0.00  0.00    +0.000 C 
ATOM     17  C   UNL     1       1.829  15.754  18.560  0.00  0.00    +0.000 A 
ATOM     18  C   UNL     1       2.129  17.091  18.240  0.00  0.00    +0.000 A 
ATOM     19  C   UNL     1       1.274  18.131  18.602  0.00  0.00    +0.000 A 
ATOM     20  C   UNL     1       0.092  17.852  19.287  0.00  0.00    +0.000 A 
ATOM     21  C   UNL     1      -0.242  16.527  19.617  0.00  0.00    +0.000 A 
ATOM     22  C   UNL     1      -1.560  16.273  20.301  0.00  0.00    +0.000 C 
ATOM     23  C   UNL     1       0.627  15.477  19.237  0.00  0.00    +0.000 A 
ENDBRANCH   1  23
BRANCH  13  24
ATOM     24  C   UNL     1       0.529   9.560  19.201  0.00  0.00    +0.000 A 
ATOM     25  C   UNL     1       1.219   9.531  17.970  0.00  0.00    +0.000 A 
ATOM     26  C   UNL     1       2.230   8.599  17.725  0.00  0.00    +0.000 A 
ATOM     27  C   UNL     1       2.612   7.717  18.724  0.00  0.00    +0.000 A 
ATOM     28  C   UNL     1       1.977   7.766  19.966  0.00  0.00    +0.000 A 
ATOM     29  C   UNL     1       0.928   8.670  20.207  0.00  0.00    +0.000 A 
ATOM     30 CL   UNL     1       0.111   8.470  21.718  0.00  0.00    +0.000 Cl
ENDBRANCH  13  24
TORSDOF 2
ENDMDL
MODEL 4
REMARK VINA RESULT:      -7.4      0.163      1.652
REMARK  Name = 
REMARK  4 active torsions:
REMARK  status: ('A' for Active; 'I' for Inactive)
REMARK    1  A    between atoms: C_1  and  C_2
REMARK    2  A    between atoms: C_6  and  C_7
REMARK    3  A    between atoms: C_8  and  N_9
REMARK    4  A    between atoms: N_21  and  C_22
REMARK                            x       y       z     vdW  Elec       q    Type
REMARK                         _______ _______ _______ _____ _____    ______ ____
ROOT
ATOM      1  N   UNL     1      -0.046  10.559  20.101  0.00  0.00    +0.000 N 
ATOM      2  C   UNL     1       0.415  11.790  20.520  0.00  0.00    +0.000 C 
ATOM      3  O   UNL     1       1.539  12.040  20.938  0.00  0.00    +0.000 OA
ATOM      4  N   UNL     1      -0.575  12.750  20.630  0.00  0.00    +0.000 N 
ATOM      5  C   UNL     1      -1.770  12.670  19.945  0.00  0.00    +0.000 A 
ATOM      6  N   UNL     1      -1.855  12.115  18.759  0.00  0.00    +0.000 NA
ATOM      7  C   UNL     1      -3.173  11.965  18.494  0.00  0.00    +0.000 A 
ATOM      8  C   UNL     1      -3.769  11.421  17.347  0.00  0.00    +0.000 A 
ATOM      9  C   UNL     1      -5.155  11.273  17.314  0.00  0.00    +0.000 A 
ATOM     10  C   UNL     1      -5.932  11.688  18.391  0.00  0.00    +0.000 A 
ATOM     11  C   UNL     1      -5.352  12.284  19.519  0.00  0.00    +0.000 A 
ATOM     12  C   UNL     1      -3.951  12.397  19.565  0.00  0.00    +0.000 A 
ATOM     13  N   UNL     1      -3.035  12.907  20.500  0.00  0.00    +0.000 N 
ATOM     14  H   UNL     1      -1.051  10.499  20.063  0.00  0.00    +0.000 HD
ATOM     15  H   UNL     1      -0.321  13.617  21.082  0.00  0.00    +0.000 HD
ENDROOT
BRANCH   1  23
ATOM     16  C   UNL     1      -0.150   8.754  22.475  0.00  0.00    +0.000 C 
ATOM     17  C   UNL     1       0.612   8.463  21.213  0.00  0.00    +0.000 A 
ATOM     18  C   UNL     1       1.404   7.300  21.169  0.00  0.00    +0.000 A 
ATOM     19  C   UNL     1       2.212   7.016  20.070  0.00  0.00    +0.000 A 
ATOM     20  C   UNL     1       2.238   7.888  18.983  0.00  0.00    +0.000 A 
ATOM     21  C   UNL     1       1.455   9.056  18.989  0.00  0.00    +0.000 A 
ATOM     22  C   UNL     1       1.471   9.933  17.765  0.00  0.00    +0.000 C 
ATOM     23  C   UNL     1       0.631   9.332  20.106  0.00  0.00    +0.000 A 
ENDBRANCH   1  23
BRANCH  13  24
ATOM     24  C   UNL     1      -3.355  13.354  21.825  0.00  0.00    +0.000 A 
ATOM     25  C   UNL     1      -3.373  12.397  22.862  0.00  0.00    +0.000 A 
ATOM     26  C   UNL     1      -3.765  12.737  24.158  0.00  0.00    +0.000 A 
ATOM     27  C   UNL     1      -4.090  14.051  24.459  0.00  0.00    +0.000 A 
ATOM     28  C   UNL     1      -4.026  15.022  23.458  0.00  0.00    +0.000 A 
ATOM     29  C   UNL     1      -3.677  14.681  22.140  0.00  0.00    +0.000 A 
ATOM     30 CL   UNL     1      -3.843  15.951  20.979  0.00  0.00    +0.000 Cl
ENDBRANCH  13  24
TORSDOF 2
ENDMDL
MODEL 5
REMARK VINA RESULT:      -7.2      1.470      2.488
REMARK  Name = 
REMARK  4 active torsions:
REMARK  status: ('A' for Active; 'I' for Inactive)
REMARK    1  A    between atoms: C_1  and  C_2
REMARK    2  A    between atoms: C_6  and  C_7
REMARK    3  A    between atoms: C_8  and  N_9
REMARK    4  A    between atoms: N_21  and  C_22
REMARK                            x       y       z     vdW  Elec       q    Type
REMARK                         _______ _______ _______ _____ _____    ______ ____
ROOT
ATOM      1  N   UNL     1      -0.946  11.174  20.344  0.00  0.00    +0.000 N 
ATOM      2  C   UNL     1      -0.577  12.503  20.349  0.00  0.00    +0.000 C 
ATOM      3  O   UNL     1       0.564  12.939  20.450  0.00  0.00    +0.000 OA
ATOM      4  N   UNL     1      -1.644  13.380  20.430  0.00  0.00    +0.000 N 
ATOM      5  C   UNL     1      -2.924  13.033  20.050  0.00  0.00    +0.000 A 
ATOM      6  N   UNL     1      -3.154  12.183  19.077  0.00  0.00    +0.000 NA
ATOM      7  C   UNL     1      -4.468  11.868  19.138  0.00  0.00    +0.000 A 
ATOM      8  C   UNL     1      -5.190  10.999  18.307  0.00  0.00    +0.000 A 
ATOM      9  C   UNL     1      -6.528  10.742  18.602  0.00  0.00    +0.000 A 
ATOM     10  C   UNL     1      -7.141  11.363  19.685  0.00  0.00    +0.000 A 
ATOM     11  C   UNL     1      -6.445  12.276  20.490  0.00  0.00    +0.000 A 
ATOM     12  C   UNL     1      -5.085  12.503  20.213  0.00  0.00    +0.000 A 
ATOM     13  N   UNL     1      -4.086  13.309  20.784  0.00  0.00    +0.000 N 
ATOM     14  H   UNL     1      -1.926  11.030  20.534  0.00  0.00    +0.000 HD
ATOM     15  H   UNL     1      -1.424  14.352  20.597  0.00  0.00    +0.000 HD
ENDROOT
BRANCH   1  23
ATOM     16  C   UNL     1      -0.434  10.010  23.044  0.00  0.00    +0.000 C 
ATOM     17  C   UNL     1       0.142   9.480  21.762  0.00  0.00    +0.000 A 
ATOM     18  C   UNL     1       1.055   8.411  21.837  0.00  0.00    +0.000 A 
ATOM     19  C   UNL     1       1.702   7.931  20.699  0.00  0.00    +0.000 A 
ATOM     20  C   UNL     1       1.442   8.507  19.457  0.00  0.00    +0.000 A 
ATOM     21  C   UNL     1       0.530   9.572  19.344  0.00  0.00    +0.000 A 
ATOM     22  C   UNL     1       0.236  10.117  17.971  0.00  0.00    +0.000 C 
ATOM     23  C   UNL     1      -0.130  10.046  20.502  0.00  0.00    +0.000 A 
ENDBRANCH   1  23
BRANCH  13  24
ATOM     24  C   UNL     1      -4.212  14.059  21.999  0.00  0.00    +0.000 A 
ATOM     25  C   UNL     1      -4.704  15.380  21.916  0.00  0.00    +0.000 A 
ATOM     26  C   UNL     1      -4.768  16.204  23.042  0.00  0.00    +0.000 A 
ATOM     27  C   UNL     1      -4.399  15.708  24.282  0.00  0.00    +0.000 A 
ATOM     28  C   UNL     1      -3.960  14.388  24.393  0.00  0.00    +0.000 A 
ATOM     29  C   UNL     1      -3.849  13.565  23.259  0.00  0.00    +0.000 A 
ATOM     30 CL   UNL     1      -3.100  12.030  23.529  0.00  0.00    +0.000 Cl
ENDBRANCH  13  24
TORSDOF 2
ENDMDL
MODEL 6
REMARK VINA RESULT:      -7.2      2.082      3.347
REMARK  Name = 
REMARK  4 active torsions:
REMARK  status: ('A' for Active; 'I' for Inactive)
REMARK    1  A    between atoms: C_1  and  C_2
REMARK    2  A    between atoms: C_6  and  C_7
REMARK    3  A    between atoms: C_8  and  N_9
REMARK    4  A    between atoms: N_21  and  C_22
REMARK                            x       y       z     vdW  Elec       q    Type
REMARK                         _______ _______ _______ _____ _____    ______ ____
ROOT
ATOM      1  N   UNL     1      -1.983  11.946  19.787  0.00  0.00    +0.000 N 
ATOM      2  C   UNL     1      -1.829  13.311  19.670  0.00  0.00    +0.000 C 
ATOM      3  O   UNL     1      -0.818  13.898  19.304  0.00  0.00    +0.000 OA
ATOM      4  N   UNL     1      -2.877  14.040  20.201  0.00  0.00    +0.000 N 
ATOM      5  C   UNL     1      -4.141  13.513  20.372  0.00  0.00    +0.000 A 
ATOM      6  N   UNL     1      -4.631  12.606  19.559  0.00  0.00    +0.000 NA
ATOM      7  C   UNL     1      -5.749  12.122  20.146  0.00  0.00    +0.000 A 
ATOM      8  C   UNL     1      -6.622  11.136  19.665  0.00  0.00    +0.000 A 
ATOM      9  C   UNL     1      -7.674  10.714  20.476  0.00  0.00    +0.000 A 
ATOM     10  C   UNL     1      -7.869  11.285  21.730  0.00  0.00    +0.000 A 
ATOM     11  C   UNL     1      -7.035  12.310  22.198  0.00  0.00    +0.000 A 
ATOM     12  C   UNL     1      -5.953  12.707  21.394  0.00  0.00    +0.000 A 
ATOM     13  N   UNL     1      -4.927  13.657  21.523  0.00  0.00    +0.000 N 
ATOM     14  H   UNL     1      -2.770  11.679  20.358  0.00  0.00    +0.000 HD
ATOM     15  H   UNL     1      -2.743  15.039  20.285  0.00  0.00    +0.000 HD
ENDROOT
BRANCH   1  23
ATOM     16  C   UNL     1      -0.095  11.126  21.947  0.00  0.00    +0.000 C 
ATOM     17  C   UNL     1      -0.116  10.541  20.563  0.00  0.00    +0.000 A 
ATOM     18  C   UNL     1       0.875   9.600  20.226  0.00  0.00    +0.000 A 
ATOM     19  C   UNL     1       0.976   9.087  18.934  0.00  0.00    +0.000 A 
ATOM     20  C   UNL     1       0.079   9.501  17.950  0.00  0.00    +0.000 A 
ATOM     21  C   UNL     1      -0.928  10.435  18.253  0.00  0.00    +0.000 A 
ATOM     22  C   UNL     1      -1.911  10.801  17.172  0.00  0.00    +0.000 C 
ATOM     23  C   UNL     1      -1.029  10.943  19.570  0.00  0.00    +0.000 A 
ENDBRANCH   1  23
BRANCH  13  24
ATOM     24  C   UNL     1      -4.645  14.427  22.700  0.00  0.00    +0.000 A 
ATOM     25  C   UNL     1      -5.195  15.724  22.794  0.00  0.00    +0.000 A 
ATOM     26  C   UNL     1      -4.892  16.567  23.864  0.00  0.00    +0.000 A 
ATOM     27  C   UNL     1      -4.081  16.112  24.892  0.00  0.00    +0.000 A 
ATOM     28  C   UNL     1      -3.570  14.815  24.844  0.00  0.00    +0.000 A 
ATOM     29  C   UNL     1      -3.833  13.974  23.749  0.00  0.00    +0.000 A 
ATOM     30 CL   UNL     1      -2.966  12.478  23.739  0.00  0.00    +0.000 Cl
ENDBRANCH  13  24
TORSDOF 2
ENDMDL
MODEL 7
REMARK VINA RESULT:      -7.2      1.230      1.579
REMARK  Name = 
REMARK  4 active torsions:
REMARK  status: ('A' for Active; 'I' for Inactive)
REMARK    1  A    between atoms: C_1  and  C_2
REMARK    2  A    between atoms: C_6  and  C_7
REMARK    3  A    between atoms: C_8  and  N_9
REMARK    4  A    between atoms: N_21  and  C_22
REMARK                            x       y       z     vdW  Elec       q    Type
REMARK                         _______ _______ _______ _____ _____    ______ ____
ROOT
ATOM      1  N   UNL     1       0.080  10.824  19.972  0.00  0.00    +0.000 N 
ATOM      2  C   UNL     1       0.593  12.104  19.977  0.00  0.00    +0.000 C 
ATOM      3  O   UNL     1       1.777  12.411  20.046  0.00  0.00    +0.000 OA
ATOM      4  N   UNL     1      -0.368  13.092  20.099  0.00  0.00    +0.000 N 
ATOM      5  C   UNL     1      -1.690  12.892  19.757  0.00  0.00    +0.000 A 
ATOM      6  N   UNL     1      -2.041  12.085  18.783  0.00  0.00    +0.000 NA
ATOM      7  C   UNL     1      -3.379  11.915  18.882  0.00  0.00    +0.000 A 
ATOM      8  C   UNL     1      -4.216  11.142  18.067  0.00  0.00    +0.000 A 
ATOM      9  C   UNL     1      -5.565  11.029  18.401  0.00  0.00    +0.000 A 
ATOM     10  C   UNL     1      -6.074  11.700  19.509  0.00  0.00    +0.000 A 
ATOM     11  C   UNL     1      -5.257  12.520  20.299  0.00  0.00    +0.000 A 
ATOM     12  C   UNL     1      -3.890  12.601  19.982  0.00  0.00    +0.000 A 
ATOM     13  N   UNL     1      -2.791  13.285  20.529  0.00  0.00    +0.000 N 
ATOM     14  H   UNL     1      -0.904  10.786  20.190  0.00  0.00    +0.000 HD
ATOM     15  H   UNL     1      -0.038  14.032  20.268  0.00  0.00    +0.000 HD
ENDROOT
BRANCH   1  23
ATOM     16  C   UNL     1       1.705   9.746  17.712  0.00  0.00    +0.000 C 
ATOM     17  C   UNL     1       1.536   9.069  19.044  0.00  0.00    +0.000 A 
ATOM     18  C   UNL     1       2.112   7.797  19.218  0.00  0.00    +0.000 A 
ATOM     19  C   UNL     1       1.916   7.068  20.391  0.00  0.00    +0.000 A 
ATOM     20  C   UNL     1       1.144   7.604  21.420  0.00  0.00    +0.000 A 
ATOM     21  C   UNL     1       0.559   8.875  21.283  0.00  0.00    +0.000 A 
ATOM     22  C   UNL     1      -0.213   9.436  22.449  0.00  0.00    +0.000 C 
ATOM     23  C   UNL     1       0.772   9.612  20.093  0.00  0.00    +0.000 A 
ENDBRANCH   1  23
BRANCH  13  24
ATOM     24  C   UNL     1      -2.798  14.029  21.755  0.00  0.00    +0.000 A 
ATOM     25  C   UNL     1      -2.800  15.438  21.676  0.00  0.00    +0.000 A 
ATOM     26  C   UNL     1      -2.714  16.232  22.822  0.00  0.00    +0.000 A 
ATOM     27  C   UNL     1      -2.682  15.635  24.073  0.00  0.00    +0.000 A 
ATOM     28  C   UNL     1      -2.731  14.244  24.174  0.00  0.00    +0.000 A 
ATOM     29  C   UNL     1      -2.773  13.436  23.024  0.00  0.00    +0.000 A 
ATOM     30 CL   UNL     1      -2.625  11.737  23.308  0.00  0.00    +0.000 Cl
ENDBRANCH  13  24
TORSDOF 2
ENDMDL
MODEL 8
REMARK VINA RESULT:      -7.1      1.704      2.383
REMARK  Name = 
REMARK  4 active torsions:
REMARK  status: ('A' for Active; 'I' for Inactive)
REMARK    1  A    between atoms: C_1  and  C_2
REMARK    2  A    between atoms: C_6  and  C_7
REMARK    3  A    between atoms: C_8  and  N_9
REMARK    4  A    between atoms: N_21  and  C_22
REMARK                            x       y       z     vdW  Elec       q    Type
REMARK                         _______ _______ _______ _____ _____    ______ ____
ROOT
ATOM      1  N   UNL     1      -1.312  11.571  20.377  0.00  0.00    +0.000 N 
ATOM      2  C   UNL     1      -1.066  12.905  20.128  0.00  0.00    +0.000 C 
ATOM      3  O   UNL     1       0.032  13.447  20.103  0.00  0.00    +0.000 OA
ATOM      4  N   UNL     1      -2.206  13.688  20.095  0.00  0.00    +0.000 N 
ATOM      5  C   UNL     1      -3.458  13.170  19.836  0.00  0.00    +0.000 A 
ATOM      6  N   UNL     1      -3.634  12.141  19.041  0.00  0.00    +0.000 NA
ATOM      7  C   UNL     1      -4.912  11.732  19.210  0.00  0.00    +0.000 A 
ATOM      8  C   UNL     1      -5.572  10.669  18.579  0.00  0.00    +0.000 A 
ATOM      9  C   UNL     1      -6.873  10.357  18.969  0.00  0.00    +0.000 A 
ATOM     10  C   UNL     1      -7.514  11.109  19.948  0.00  0.00    +0.000 A 
ATOM     11  C   UNL     1      -6.883  12.209  20.547  0.00  0.00    +0.000 A 
ATOM     12  C   UNL     1      -5.557  12.497  20.179  0.00  0.00    +0.000 A 
ATOM     13  N   UNL     1      -4.622  13.475  20.555  0.00  0.00    +0.000 N 
ATOM     14  H   UNL     1      -2.270  11.381  20.629  0.00  0.00    +0.000 HD
ATOM     15  H   UNL     1      -2.071  14.690  20.076  0.00  0.00    +0.000 HD
ENDROOT
BRANCH   1  23
ATOM     16  C   UNL     1       0.201  10.127  18.248  0.00  0.00    +0.000 C 
ATOM     17  C   UNL     1       0.327   9.855  19.721  0.00  0.00    +0.000 A 
ATOM     18  C   UNL     1       1.151   8.790  20.131  0.00  0.00    +0.000 A 
ATOM     19  C   UNL     1       1.242   8.420  21.472  0.00  0.00    +0.000 A 
ATOM     20  C   UNL     1       0.513   9.115  22.435  0.00  0.00    +0.000 A 
ATOM     21  C   UNL     1      -0.315  10.189  22.063  0.00  0.00    +0.000 A 
ATOM     22  C   UNL     1      -1.032  10.948  23.149  0.00  0.00    +0.000 C 
ATOM     23  C   UNL     1      -0.393  10.564  20.701  0.00  0.00    +0.000 A 
ENDBRANCH   1  23
BRANCH  13  24
ATOM     24  C   UNL     1      -4.786  14.421  21.621  0.00  0.00    +0.000 A 
ATOM     25  C   UNL     1      -5.092  15.757  21.282  0.00  0.00    +0.000 A 
ATOM     26  C   UNL     1      -5.176  16.753  22.256  0.00  0.00    +0.000 A 
ATOM     27  C   UNL     1      -5.013  16.426  23.594  0.00  0.00    +0.000 A 
ATOM     28  C   UNL     1      -4.762  15.101  23.953  0.00  0.00    +0.000 A 
ATOM     29  C   UNL     1      -4.631  14.099  22.976  0.00  0.00    +0.000 A 
ATOM     30 CL   UNL     1      -4.120  12.555  23.563  0.00  0.00    +0.000 Cl
ENDBRANCH  13  24
TORSDOF 2
ENDMDL
MODEL 9
REMARK VINA RESULT:      -7.0      1.574      2.084
REMARK  Name = 
REMARK  4 active torsions:
REMARK  status: ('A' for Active; 'I' for Inactive)
REMARK    1  A    between atoms: C_1  and  C_2
REMARK    2  A    between atoms: C_6  and  C_7
REMARK    3  A    between atoms: C_8  and  N_9
REMARK    4  A    between atoms: N_21  and  C_22
REMARK                            x       y       z     vdW  Elec       q    Type
REMARK                         _______ _______ _______ _____ _____    ______ ____
ROOT
ATOM      1  N   UNL     1      -1.330  11.542  20.385  0.00  0.00    +0.000 N 
ATOM      2  C   UNL     1      -1.099  12.885  20.180  0.00  0.00    +0.000 C 
ATOM      3  O   UNL     1      -0.007  13.441  20.170  0.00  0.00    +0.000 OA
ATOM      4  N   UNL     1      -2.247  13.656  20.173  0.00  0.00    +0.000 N 
ATOM      5  C   UNL     1      -3.494  13.133  19.899  0.00  0.00    +0.000 A 
ATOM      6  N   UNL     1      -3.660  12.128  19.071  0.00  0.00    +0.000 NA
ATOM      7  C   UNL     1      -4.933  11.700  19.230  0.00  0.00    +0.000 A 
ATOM      8  C   UNL     1      -5.582  10.650  18.565  0.00  0.00    +0.000 A 
ATOM      9  C   UNL     1      -6.879  10.310  18.947  0.00  0.00    +0.000 A 
ATOM     10  C   UNL     1      -7.526  11.024  19.950  0.00  0.00    +0.000 A 
ATOM     11  C   UNL     1      -6.907  12.111  20.584  0.00  0.00    +0.000 A 
ATOM     12  C   UNL     1      -5.585  12.426  20.223  0.00  0.00    +0.000 A 
ATOM     13  N   UNL     1      -4.660  13.401  20.629  0.00  0.00    +0.000 N 
ATOM     14  H   UNL     1      -2.285  11.332  20.632  0.00  0.00    +0.000 HD
ATOM     15  H   UNL     1      -2.124  14.659  20.186  0.00  0.00    +0.000 HD
ENDROOT
BRANCH   1  23
ATOM     16  C   UNL     1       0.196  10.184  18.209  0.00  0.00    +0.000 C 
ATOM     17  C   UNL     1       0.328   9.866  19.672  0.00  0.00    +0.000 A 
ATOM     18  C   UNL     1       1.165   8.798  20.046  0.00  0.00    +0.000 A 
ATOM     19  C   UNL     1       1.261   8.385  21.374  0.00  0.00    +0.000 A 
ATOM     20  C   UNL     1       0.526   9.041  22.360  0.00  0.00    +0.000 A 
ATOM     21  C   UNL     1      -0.314  10.116  22.024  0.00  0.00    +0.000 A 
ATOM     22  C   UNL     1      -1.038  10.832  23.135  0.00  0.00    +0.000 C 
ATOM     23  C   UNL     1      -0.399  10.535  20.675  0.00  0.00    +0.000 A 
ENDBRANCH   1  23
BRANCH  13  24
ATOM     24  C   UNL     1      -4.833  14.310  21.725  0.00  0.00    +0.000 A 
ATOM     25  C   UNL     1      -4.235  13.983  22.961  0.00  0.00    +0.000 A 
ATOM     26  C   UNL     1      -4.434  14.769  24.097  0.00  0.00    +0.000 A 
ATOM     27  C   UNL     1      -5.186  15.931  24.009  0.00  0.00    +0.000 A 
ATOM     28  C   UNL     1      -5.742  16.300  22.783  0.00  0.00    +0.000 A 
ATOM     29  C   UNL     1      -5.584  15.490  21.644  0.00  0.00    +0.000 A 
ATOM     30 CL   UNL     1      -6.499  15.976  20.259  0.00  0.00    +0.000 Cl
ENDBRANCH  13  24
TORSDOF 2
ENDMDL
