MODEL 1
REMARK VINA RESULT:      -7.1      0.000      0.000
REMARK  Name = 
REMARK  6 active torsions:
REMARK  status: ('A' for Active; 'I' for Inactive)
REMARK    1  A    between atoms: C_1  and  C_2
REMARK    2  A    between atoms: C_5  and  S_6
REMARK    3  A    between atoms: S_6  and  N_9
REMARK    4  A    between atoms: N_13  and  S_14
REMARK    5  A    between atoms: S_14  and  C_17
REMARK    6  A    between atoms: C_20  and  C_21
REMARK                            x       y       z     vdW  Elec       q    Type
REMARK                         _______ _______ _______ _____ _____    ______ ____
ROOT
ATOM      1  N   UNL     1       1.941   7.018  19.442  0.00  0.00    +0.000 N 
ATOM      2  C   UNL     1       1.489   7.224  20.841  0.00  0.00    +0.000 C 
ATOM      3  C   UNL     1       0.579   8.438  20.961  0.00  0.00    +0.000 C 
ATOM      4  O   UNL     1      -0.404   8.427  21.690  0.00  0.00    +0.000 OA
ATOM      5  N   UNL     1       0.981   9.563  20.189  0.00  0.00    +0.000 N 
ATOM      6  C   UNL     1       2.111   9.479  19.229  0.00  0.00    +0.000 C 
ATOM      7  C   UNL     1       2.179   8.113  18.568  0.00  0.00    +0.000 C 
ATOM      8  O   UNL     1       2.432   7.994  17.378  0.00  0.00    +0.000 OA
ENDROOT
BRANCH   1   9
ATOM      9  S   UNL     1       2.031   5.414  18.929  0.00  0.00    +0.000 S 
ATOM     10  O   UNL     1       1.257   5.303  17.712  0.00  0.00    +0.000 OA
ATOM     11  O   UNL     1       1.768   4.521  20.037  0.00  0.00    +0.000 OA
BRANCH   9  16
ATOM     12  C   UNL     1       7.878   4.470  17.549  0.00  0.00    +0.000 C 
ATOM     13  C   UNL     1       6.442   4.764  17.878  0.00  0.00    +0.000 A 
ATOM     14  C   UNL     1       6.075   5.227  19.148  0.00  0.00    +0.000 A 
ATOM     15  C   UNL     1       4.732   5.463  19.456  0.00  0.00    +0.000 A 
ATOM     16  C   UNL     1       3.749   5.240  18.488  0.00  0.00    +0.000 A 
ATOM     17  C   UNL     1       4.101   4.772  17.219  0.00  0.00    +0.000 A 
ATOM     18  C   UNL     1       5.446   4.543  16.916  0.00  0.00    +0.000 A 
ENDBRANCH   9  16
ENDBRANCH   1   9
BRANCH   5  19
ATOM     19  S   UNL     1       0.191  11.051  20.256  0.00  0.00    +0.000 S 
ATOM     20  O   UNL     1      -0.460  11.217  21.536  0.00  0.00    +0.000 OA
ATOM     21  O   UNL     1       1.126  12.055  19.785  0.00  0.00    +0.000 OA
BRANCH  19  22
ATOM     22  C   UNL     1      -1.079  10.884  19.017  0.00  0.00    +0.000 A 
ATOM     23  C   UNL     1      -2.212  11.700  19.079  0.00  0.00    +0.000 A 
ATOM     24  C   UNL     1      -3.186  11.610  18.081  0.00  0.00    +0.000 A 
ATOM     25  C   UNL     1      -3.035  10.712  17.017  0.00  0.00    +0.000 A 
ATOM     26  C   UNL     1      -4.090  10.589  15.954  0.00  0.00    +0.000 C 
ATOM     27  C   UNL     1      -1.877   9.925  16.947  0.00  0.00    +0.000 A 
ATOM     28  C   UNL     1      -0.895  10.014  17.938  0.00  0.00    +0.000 A 
ENDBRANCH  19  22
ENDBRANCH   5  19
TORSDOF 4
ENDMDL
MODEL 2
REMARK VINA RESULT:      -7.1      0.160      8.050
REMARK  Name = 
REMARK  6 active torsions:
REMARK  status: ('A' for Active; 'I' for Inactive)
REMARK    1  A    between atoms: C_1  and  C_2
REMARK    2  A    between atoms: C_5  and  S_6
REMARK    3  A    between atoms: S_6  and  N_9
REMARK    4  A    between atoms: N_13  and  S_14
REMARK    5  A    between atoms: S_14  and  C_17
REMARK    6  A    between atoms: C_20  and  C_21
REMARK                            x       y       z     vdW  Elec       q    Type
REMARK                         _______ _______ _______ _____ _____    ______ ____
ROOT
ATOM      1  N   UNL     1       1.145   9.546  20.118  0.00  0.00    +0.000 N 
ATOM      2  C   UNL     1       2.235   9.383  19.123  0.00  0.00    +0.000 C 
ATOM      3  C   UNL     1       2.208   8.001  18.486  0.00  0.00    +0.000 C 
ATOM      4  O   UNL     1       2.438   7.846  17.294  0.00  0.00    +0.000 OA
ATOM      5  N   UNL     1       1.924   6.936  19.384  0.00  0.00    +0.000 N 
ATOM      6  C   UNL     1       1.532   7.195  20.792  0.00  0.00    +0.000 C 
ATOM      7  C   UNL     1       0.696   8.457  20.914  0.00  0.00    +0.000 C 
ATOM      8  O   UNL     1      -0.275   8.510  21.655  0.00  0.00    +0.000 OA
ENDROOT
BRANCH   1   9
ATOM      9  S   UNL     1       0.402  11.059  20.150  0.00  0.00    +0.000 S 
ATOM     10  O   UNL     1       1.320  12.006  19.556  0.00  0.00    +0.000 OA
ATOM     11  O   UNL     1      -0.152  11.315  21.462  0.00  0.00    +0.000 OA
BRANCH   9  16
ATOM     12  C   UNL     1      -4.096  10.622  16.081  0.00  0.00    +0.000 C 
ATOM     13  C   UNL     1      -3.017  10.690  17.123  0.00  0.00    +0.000 A 
ATOM     14  C   UNL     1      -3.127  11.558  18.217  0.00  0.00    +0.000 A 
ATOM     15  C   UNL     1      -2.100  11.642  19.163  0.00  0.00    +0.000 A 
ATOM     16  C   UNL     1      -0.959  10.850  19.018  0.00  0.00    +0.000 A 
ATOM     17  C   UNL     1      -0.833   9.985  17.927  0.00  0.00    +0.000 A 
ATOM     18  C   UNL     1      -1.865   9.902  16.988  0.00  0.00    +0.000 A 
ENDBRANCH   9  16
ENDBRANCH   1   9
BRANCH   5  19
ATOM     19  S   UNL     1       1.956   5.314  18.923  0.00  0.00    +0.000 S 
ATOM     20  O   UNL     1       1.614   4.466  20.043  0.00  0.00    +0.000 OA
ATOM     21  O   UNL     1       1.214   5.206  17.681  0.00  0.00    +0.000 OA
BRANCH  19  22
ATOM     22  C   UNL     1       3.675   5.043  18.539  0.00  0.00    +0.000 A 
ATOM     23  C   UNL     1       4.034   4.606  17.260  0.00  0.00    +0.000 A 
ATOM     24  C   UNL     1       5.384   4.443  16.938  0.00  0.00    +0.000 A 
ATOM     25  C   UNL     1       6.381   4.715  17.885  0.00  0.00    +0.000 A 
ATOM     26  C   UNL     1       7.833   4.515  17.555  0.00  0.00    +0.000 C 
ATOM     27  C   UNL     1       6.009   5.186  19.151  0.00  0.00    +0.000 A 
ATOM     28  C   UNL     1       4.661   5.358  19.479  0.00  0.00    +0.000 A 
ENDBRANCH  19  22
ENDBRANCH   5  19
TORSDOF 4
ENDMDL
MODEL 3
REMARK VINA RESULT:      -6.7      3.569      8.028
REMARK  Name = 
REMARK  6 active torsions:
REMARK  status: ('A' for Active; 'I' for Inactive)
REMARK    1  A    between atoms: C_1  and  C_2
REMARK    2  A    between atoms: C_5  and  S_6
REMARK    3  A    between atoms: S_6  and  N_9
REMARK    4  A    between atoms: N_13  and  S_14
REMARK    5  A    between atoms: S_14  and  C_17
REMARK    6  A    between atoms: C_20  and  C_21
REMARK                            x       y       z     vdW  Elec       q    Type
REMARK                         _______ _______ _______ _____ _____    ______ ____
ROOT
ATOM      1  N   UNL     1       3.744   5.015  19.102  0.00  0.00    +0.000 N 
ATOM      2  C   UNL     1       4.302   6.381  18.938  0.00  0.00    +0.000 C 
ATOM      3  C   UNL     1       5.298   6.444  17.790  0.00  0.00    +0.000 C 
ATOM      4  O   UNL     1       5.340   7.406  17.035  0.00  0.00    +0.000 OA
ATOM      5  N   UNL     1       6.169   5.323  17.694  0.00  0.00    +0.000 N 
ATOM      6  C   UNL     1       5.992   4.130  18.559  0.00  0.00    +0.000 C 
ATOM      7  C   UNL     1       4.523   3.856  18.837  0.00  0.00    +0.000 C 
ATOM      8  O   UNL     1       4.076   2.719  18.838  0.00  0.00    +0.000 OA
ENDROOT
BRANCH   1   9
ATOM      9  S   UNL     1       2.106   4.934  19.497  0.00  0.00    +0.000 S 
ATOM     10  O   UNL     1       2.008   4.372  20.826  0.00  0.00    +0.000 OA
ATOM     11  O   UNL     1       1.359   4.347  18.407  0.00  0.00    +0.000 OA
BRANCH   9  16
ATOM     12  C   UNL     1       0.891  10.875  19.951  0.00  0.00    +0.000 C 
ATOM     13  C   UNL     1       1.129   9.397  19.835  0.00  0.00    +0.000 A 
ATOM     14  C   UNL     1       1.058   8.566  20.961  0.00  0.00    +0.000 A 
ATOM     15  C   UNL     1       1.318   7.197  20.851  0.00  0.00    +0.000 A 
ATOM     16  C   UNL     1       1.646   6.653  19.607  0.00  0.00    +0.000 A 
ATOM     17  C   UNL     1       1.727   7.471  18.476  0.00  0.00    +0.000 A 
ATOM     18  C   UNL     1       1.462   8.838  18.593  0.00  0.00    +0.000 A 
ENDBRANCH   9  16
ENDBRANCH   1   9
BRANCH   5  19
ATOM     19  S   UNL     1       7.425   5.230  16.573  0.00  0.00    +0.000 S 
ATOM     20  O   UNL     1       7.959   6.547  16.307  0.00  0.00    +0.000 OA
ATOM     21  O   UNL     1       8.309   4.166  17.006  0.00  0.00    +0.000 OA
BRANCH  19  22
ATOM     22  C   UNL     1       6.601   4.669  15.096  0.00  0.00    +0.000 A 
ATOM     23  C   UNL     1       7.293   4.665  13.881  0.00  0.00    +0.000 A 
ATOM     24  C   UNL     1       6.668   4.177  12.730  0.00  0.00    +0.000 A 
ATOM     25  C   UNL     1       5.356   3.688  12.784  0.00  0.00    +0.000 A 
ATOM     26  C   UNL     1       4.668   3.186  11.546  0.00  0.00    +0.000 C 
ATOM     27  C   UNL     1       4.687   3.663  14.015  0.00  0.00    +0.000 A 
ATOM     28  C   UNL     1       5.307   4.144  15.172  0.00  0.00    +0.000 A 
ENDBRANCH  19  22
ENDBRANCH   5  19
TORSDOF 4
ENDMDL
MODEL 4
REMARK VINA RESULT:      -6.7      0.758      1.183
REMARK  Name = 
REMARK  6 active torsions:
REMARK  status: ('A' for Active; 'I' for Inactive)
REMARK    1  A    between atoms: C_1  and  C_2
REMARK    2  A    between atoms: C_5  and  S_6
REMARK    3  A    between atoms: S_6  and  N_9
REMARK    4  A    between atoms: N_13  and  S_14
REMARK    5  A    between atoms: S_14  and  C_17
REMARK    6  A    between atoms: C_20  and  C_21
REMARK                            x       y       z     vdW  Elec       q    Type
REMARK                         _______ _______ _______ _____ _____    ______ ____
ROOT
ATOM      1  N   UNL     1       2.080   7.530  19.168  0.00  0.00    +0.000 N 
ATOM      2  C   UNL     1       1.692   7.922  20.547  0.00  0.00    +0.000 C 
ATOM      3  C   UNL     1       0.846   9.187  20.551  0.00  0.00    +0.000 C 
ATOM      4  O   UNL     1      -0.108   9.312  21.307  0.00  0.00    +0.000 OA
ATOM      5  N   UNL     1       1.271  10.191  19.637  0.00  0.00    +0.000 N 
ATOM      6  C   UNL     1       2.357   9.937  18.658  0.00  0.00    +0.000 C 
ATOM      7  C   UNL     1       2.335   8.501  18.162  0.00  0.00    +0.000 C 
ATOM      8  O   UNL     1       2.537   8.229  16.988  0.00  0.00    +0.000 OA
ENDROOT
BRANCH   1   9
ATOM      9  S   UNL     1       2.075   5.874  18.848  0.00  0.00    +0.000 S 
ATOM     10  O   UNL     1       1.291   5.666  17.651  0.00  0.00    +0.000 OA
ATOM     11  O   UNL     1       1.765   5.135  20.053  0.00  0.00    +0.000 OA
BRANCH   9  16
ATOM     12  C   UNL     1       7.829   4.412  17.533  0.00  0.00    +0.000 C 
ATOM     13  C   UNL     1       6.423   4.834  17.852  0.00  0.00    +0.000 A 
ATOM     14  C   UNL     1       6.064   5.222  19.149  0.00  0.00    +0.000 A 
ATOM     15  C   UNL     1       4.745   5.577  19.445  0.00  0.00    +0.000 A 
ATOM     16  C   UNL     1       3.778   5.550  18.436  0.00  0.00    +0.000 A 
ATOM     17  C   UNL     1       4.121   5.159  17.139  0.00  0.00    +0.000 A 
ATOM     18  C   UNL     1       5.443   4.810  16.849  0.00  0.00    +0.000 A 
ENDBRANCH   9  16
ENDBRANCH   1   9
BRANCH   5  19
ATOM     19  S   UNL     1       0.554  11.716  19.552  0.00  0.00    +0.000 S 
ATOM     20  O   UNL     1       0.356  12.252  20.879  0.00  0.00    +0.000 OA
ATOM     21  O   UNL     1       1.291  12.481  18.565  0.00  0.00    +0.000 OA
BRANCH  19  22
ATOM     22  C   UNL     1      -1.050  11.363  18.861  0.00  0.00    +0.000 A 
ATOM     23  C   UNL     1      -1.196  10.297  17.969  0.00  0.00    +0.000 A 
ATOM     24  C   UNL     1      -2.461   9.984  17.465  0.00  0.00    +0.000 A 
ATOM     25  C   UNL     1      -3.585  10.727  17.849  0.00  0.00    +0.000 A 
ATOM     26  C   UNL     1      -4.945  10.414  17.291  0.00  0.00    +0.000 C 
ATOM     27  C   UNL     1      -3.432  11.770  18.772  0.00  0.00    +0.000 A 
ATOM     28  C   UNL     1      -2.170  12.086  19.286  0.00  0.00    +0.000 A 
ENDBRANCH  19  22
ENDBRANCH   5  19
TORSDOF 4
ENDMDL
MODEL 5
REMARK VINA RESULT:      -6.7      5.403      8.669
REMARK  Name = 
REMARK  6 active torsions:
REMARK  status: ('A' for Active; 'I' for Inactive)
REMARK    1  A    between atoms: C_1  and  C_2
REMARK    2  A    between atoms: C_5  and  S_6
REMARK    3  A    between atoms: S_6  and  N_9
REMARK    4  A    between atoms: N_13  and  S_14
REMARK    5  A    between atoms: S_14  and  C_17
REMARK    6  A    between atoms: C_20  and  C_21
REMARK                            x       y       z     vdW  Elec       q    Type
REMARK                         _______ _______ _______ _____ _____    ______ ____
ROOT
ATOM      1  N   UNL     1       0.610  13.169  20.068  0.00  0.00    +0.000 N 
ATOM      2  C   UNL     1       1.913  12.690  20.594  0.00  0.00    +0.000 C 
ATOM      3  C   UNL     1       2.905  13.832  20.754  0.00  0.00    +0.000 C 
ATOM      4  O   UNL     1       3.660  13.890  21.716  0.00  0.00    +0.000 OA
ATOM      5  N   UNL     1       2.892  14.786  19.698  0.00  0.00    +0.000 N 
ATOM      6  C   UNL     1       1.872  14.733  18.621  0.00  0.00    +0.000 C 
ATOM      7  C   UNL     1       0.531  14.248  19.147  0.00  0.00    +0.000 C 
ATOM      8  O   UNL     1      -0.518  14.757  18.780  0.00  0.00    +0.000 OA
ENDROOT
BRANCH   1   9
ATOM      9  S   UNL     1      -0.760  12.437  20.724  0.00  0.00    +0.000 S 
ATOM     10  O   UNL     1      -1.686  13.490  21.078  0.00  0.00    +0.000 OA
ATOM     11  O   UNL     1      -0.374  11.451  21.711  0.00  0.00    +0.000 OA
BRANCH   9  16
ATOM     12  C   UNL     1      -2.956   9.735  15.739  0.00  0.00    +0.000 C 
ATOM     13  C   UNL     1      -2.447  10.362  17.005  0.00  0.00    +0.000 A 
ATOM     14  C   UNL     1      -3.200  11.331  17.682  0.00  0.00    +0.000 A 
ATOM     15  C   UNL     1      -2.702  11.936  18.840  0.00  0.00    +0.000 A 
ATOM     16  C   UNL     1      -1.446  11.567  19.328  0.00  0.00    +0.000 A 
ATOM     17  C   UNL     1      -0.681  10.607  18.658  0.00  0.00    +0.000 A 
ATOM     18  C   UNL     1      -1.187  10.003  17.505  0.00  0.00    +0.000 A 
ENDBRANCH   9  16
ENDBRANCH   1   9
BRANCH   5  19
ATOM     19  S   UNL     1       3.983  16.069  19.607  0.00  0.00    +0.000 S 
ATOM     20  O   UNL     1       3.635  16.947  18.513  0.00  0.00    +0.000 OA
ATOM     21  O   UNL     1       4.126  16.605  20.947  0.00  0.00    +0.000 OA
BRANCH  19  22
ATOM     22  C   UNL     1       5.515  15.261  19.192  0.00  0.00    +0.000 A 
ATOM     23  C   UNL     1       5.691  14.739  17.907  0.00  0.00    +0.000 A 
ATOM     24  C   UNL     1       6.910  14.150  17.559  0.00  0.00    +0.000 A 
ATOM     25  C   UNL     1       7.958  14.082  18.487  0.00  0.00    +0.000 A 
ATOM     26  C   UNL     1       9.263  13.427  18.130  0.00  0.00    +0.000 C 
ATOM     27  C   UNL     1       7.782  14.641  19.759  0.00  0.00    +0.000 A 
ATOM     28  C   UNL     1       6.567  15.237  20.112  0.00  0.00    +0.000 A 
ENDBRANCH  19  22
ENDBRANCH   5  19
TORSDOF 4
ENDMDL
MODEL 6
REMARK VINA RESULT:      -6.6      3.390      8.134
REMARK  Name = 
REMARK  6 active torsions:
REMARK  status: ('A' for Active; 'I' for Inactive)
REMARK    1  A    between atoms: C_1  and  C_2
REMARK    2  A    between atoms: C_5  and  S_6
REMARK    3  A    between atoms: S_6  and  N_9
REMARK    4  A    between atoms: N_13  and  S_14
REMARK    5  A    between atoms: S_14  and  C_17
REMARK    6  A    between atoms: C_20  and  C_21
REMARK                            x       y       z     vdW  Elec       q    Type
REMARK                         _______ _______ _______ _____ _____    ______ ____
ROOT
ATOM      1  N   UNL     1       3.795   5.400  18.928  0.00  0.00    +0.000 N 
ATOM      2  C   UNL     1       4.336   6.725  18.532  0.00  0.00    +0.000 C 
ATOM      3  C   UNL     1       5.339   6.602  17.395  0.00  0.00    +0.000 C 
ATOM      4  O   UNL     1       5.373   7.420  16.485  0.00  0.00    +0.000 OA
ATOM      5  N   UNL     1       6.226   5.494  17.499  0.00  0.00    +0.000 N 
ATOM      6  C   UNL     1       6.059   4.467  18.558  0.00  0.00    +0.000 C 
ATOM      7  C   UNL     1       4.592   4.225  18.872  0.00  0.00    +0.000 C 
ATOM      8  O   UNL     1       4.161   3.098  19.070  0.00  0.00    +0.000 OA
ENDROOT
BRANCH   1   9
ATOM      9  S   UNL     1       2.156   5.365  19.324  0.00  0.00    +0.000 S 
ATOM     10  O   UNL     1       2.039   4.758  20.632  0.00  0.00    +0.000 OA
ATOM     11  O   UNL     1       1.386   4.847  18.215  0.00  0.00    +0.000 OA
BRANCH   9  16
ATOM     12  C   UNL     1       0.445  11.175  19.868  0.00  0.00    +0.000 C 
ATOM     13  C   UNL     1       0.928   9.759  19.734  0.00  0.00    +0.000 A 
ATOM     14  C   UNL     1       1.253   9.226  18.480  0.00  0.00    +0.000 A 
ATOM     15  C   UNL     1       1.666   7.896  18.360  0.00  0.00    +0.000 A 
ATOM     16  C   UNL     1       1.760   7.094  19.500  0.00  0.00    +0.000 A 
ATOM     17  C   UNL     1       1.432   7.611  20.756  0.00  0.00    +0.000 A 
ATOM     18  C   UNL     1       1.024   8.943  20.870  0.00  0.00    +0.000 A 
ENDBRANCH   9  16
ENDBRANCH   1   9
BRANCH   5  19
ATOM     19  S   UNL     1       7.491   5.227  16.417  0.00  0.00    +0.000 S 
ATOM     20  O   UNL     1       8.101   6.482  16.039  0.00  0.00    +0.000 OA
ATOM     21  O   UNL     1       8.307   4.162  16.966  0.00  0.00    +0.000 OA
BRANCH  19  22
ATOM     22  C   UNL     1       6.658   4.573  14.984  0.00  0.00    +0.000 A 
ATOM     23  C   UNL     1       5.340   4.119  15.102  0.00  0.00    +0.000 A 
ATOM     24  C   UNL     1       4.664   3.654  13.971  0.00  0.00    +0.000 A 
ATOM     25  C   UNL     1       5.294   3.641  12.719  0.00  0.00    +0.000 A 
ATOM     26  C   UNL     1       4.584   3.117  11.503  0.00  0.00    +0.000 C 
ATOM     27  C   UNL     1       6.602   4.132  12.608  0.00  0.00    +0.000 A 
ATOM     28  C   UNL     1       7.283   4.606  13.734  0.00  0.00    +0.000 A 
ENDBRANCH  19  22
ENDBRANCH   5  19
TORSDOF 4
ENDMDL
MODEL 7
REMARK VINA RESULT:      -6.6      2.385      3.489
REMARK  Name = 
REMARK  6 active torsions:
REMARK  status: ('A' for Active; 'I' for Inactive)
REMARK    1  A    between atoms: C_1  and  C_2
REMARK    2  A    between atoms: C_5  and  S_6
REMARK    3  A    between atoms: S_6  and  N_9
REMARK    4  A    between atoms: N_13  and  S_14
REMARK    5  A    between atoms: S_14  and  C_17
REMARK    6  A    between atoms: C_20  and  C_21
REMARK                            x       y       z     vdW  Elec       q    Type
REMARK                         _______ _______ _______ _____ _____    ______ ____
ROOT
ATOM      1  N   UNL     1       2.082   6.721  19.797  0.00  0.00    +0.000 N 
ATOM      2  C   UNL     1       1.778   7.366  21.099  0.00  0.00    +0.000 C 
ATOM      3  C   UNL     1       0.775   8.500  20.940  0.00  0.00    +0.000 C 
ATOM      4  O   UNL     1      -0.111   8.685  21.763  0.00  0.00    +0.000 OA
ATOM      5  N   UNL     1       0.975   9.315  19.792  0.00  0.00    +0.000 N 
ATOM      6  C   UNL     1       1.988   8.969  18.764  0.00  0.00    +0.000 C 
ATOM      7  C   UNL     1       2.110   7.465  18.586  0.00  0.00    +0.000 C 
ATOM      8  O   UNL     1       2.234   6.962  17.479  0.00  0.00    +0.000 OA
ENDROOT
BRANCH   1   9
ATOM      9  S   UNL     1       2.267   5.045  19.834  0.00  0.00    +0.000 S 
ATOM     10  O   UNL     1       1.211   4.474  19.027  0.00  0.00    +0.000 OA
ATOM     11  O   UNL     1       2.459   4.595  21.196  0.00  0.00    +0.000 OA
BRANCH   9  16
ATOM     12  C   UNL     1       7.420   4.517  16.650  0.00  0.00    +0.000 C 
ATOM     13  C   UNL     1       6.159   4.591  17.462  0.00  0.00    +0.000 A 
ATOM     14  C   UNL     1       4.978   3.986  17.013  0.00  0.00    +0.000 A 
ATOM     15  C   UNL     1       3.799   4.091  17.757  0.00  0.00    +0.000 A 
ATOM     16  C   UNL     1       3.800   4.801  18.960  0.00  0.00    +0.000 A 
ATOM     17  C   UNL     1       4.970   5.415  19.416  0.00  0.00    +0.000 A 
ATOM     18  C   UNL     1       6.146   5.302  18.670  0.00  0.00    +0.000 A 
ENDBRANCH   9  16
ENDBRANCH   1   9
BRANCH   5  19
ATOM     19  S   UNL     1       0.057  10.695  19.476  0.00  0.00    +0.000 S 
ATOM     20  O   UNL     1      -0.491  10.638  18.140  0.00  0.00    +0.000 OA
ATOM     21  O   UNL     1      -0.823  10.893  20.611  0.00  0.00    +0.000 OA
BRANCH  19  22
ATOM     22  C   UNL     1       1.272  11.998  19.512  0.00  0.00    +0.000 A 
ATOM     23  C   UNL     1       1.849  12.433  18.315  0.00  0.00    +0.000 A 
ATOM     24  C   UNL     1       2.764  13.490  18.332  0.00  0.00    +0.000 A 
ATOM     25  C   UNL     1       3.104  14.119  19.537  0.00  0.00    +0.000 A 
ATOM     26  C   UNL     1       4.107  15.238  19.567  0.00  0.00    +0.000 C 
ATOM     27  C   UNL     1       2.492  13.697  20.724  0.00  0.00    +0.000 A 
ATOM     28  C   UNL     1       1.571  12.644  20.715  0.00  0.00    +0.000 A 
ENDBRANCH  19  22
ENDBRANCH   5  19
TORSDOF 4
ENDMDL
MODEL 8
REMARK VINA RESULT:      -6.6      2.374      7.844
REMARK  Name = 
REMARK  6 active torsions:
REMARK  status: ('A' for Active; 'I' for Inactive)
REMARK    1  A    between atoms: C_1  and  C_2
REMARK    2  A    between atoms: C_5  and  S_6
REMARK    3  A    between atoms: S_6  and  N_9
REMARK    4  A    between atoms: N_13  and  S_14
REMARK    5  A    between atoms: S_14  and  C_17
REMARK    6  A    between atoms: C_20  and  C_21
REMARK                            x       y       z     vdW  Elec       q    Type
REMARK                         _______ _______ _______ _____ _____    ______ ____
ROOT
ATOM      1  N   UNL     1       0.966   9.329  19.860  0.00  0.00    +0.000 N 
ATOM      2  C   UNL     1       2.028   9.019  18.869  0.00  0.00    +0.000 C 
ATOM      3  C   UNL     1       2.150   7.521  18.631  0.00  0.00    +0.000 C 
ATOM      4  O   UNL     1       2.350   7.068  17.512  0.00  0.00    +0.000 OA
ATOM      5  N   UNL     1       2.039   6.720  19.802  0.00  0.00    +0.000 N 
ATOM      6  C   UNL     1       1.674   7.313  21.112  0.00  0.00    +0.000 C 
ATOM      7  C   UNL     1       0.690   8.460  20.950  0.00  0.00    +0.000 C 
ATOM      8  O   UNL     1      -0.249   8.608  21.719  0.00  0.00    +0.000 OA
ENDROOT
BRANCH   1   9
ATOM      9  S   UNL     1       0.040  10.700  19.537  0.00  0.00    +0.000 S 
ATOM     10  O   UNL     1      -0.822  10.920  20.678  0.00  0.00    +0.000 OA
ATOM     11  O   UNL     1      -0.527  10.617  18.208  0.00  0.00    +0.000 OA
BRANCH   9  16
ATOM     12  C   UNL     1       3.917  15.384  19.451  0.00  0.00    +0.000 C 
ATOM     13  C   UNL     1       3.009  14.187  19.471  0.00  0.00    +0.000 A 
ATOM     14  C   UNL     1       2.654  13.533  18.284  0.00  0.00    +0.000 A 
ATOM     15  C   UNL     1       1.779  12.444  18.308  0.00  0.00    +0.000 A 
ATOM     16  C   UNL     1       1.258  12.001  19.527  0.00  0.00    +0.000 A 
ATOM     17  C   UNL     1       1.597  12.649  20.718  0.00  0.00    +0.000 A 
ATOM     18  C   UNL     1       2.477  13.735  20.687  0.00  0.00    +0.000 A 
ENDBRANCH   9  16
ENDBRANCH   1   9
BRANCH   5  19
ATOM     19  S   UNL     1       2.257   5.048  19.794  0.00  0.00    +0.000 S 
ATOM     20  O   UNL     1       2.423   4.557  21.143  0.00  0.00    +0.000 OA
ATOM     21  O   UNL     1       1.228   4.485  18.941  0.00  0.00    +0.000 OA
BRANCH  19  22
ATOM     22  C   UNL     1       3.813   4.853  18.947  0.00  0.00    +0.000 A 
ATOM     23  C   UNL     1       3.848   4.195  17.714  0.00  0.00    +0.000 A 
ATOM     24  C   UNL     1       5.057   4.085  17.022  0.00  0.00    +0.000 A 
ATOM     25  C   UNL     1       6.233   4.633  17.550  0.00  0.00    +0.000 A 
ATOM     26  C   UNL     1       7.542   4.496  16.825  0.00  0.00    +0.000 C 
ATOM     27  C   UNL     1       6.178   5.322  18.769  0.00  0.00    +0.000 A 
ATOM     28  C   UNL     1       4.971   5.441  19.465  0.00  0.00    +0.000 A 
ENDBRANCH  19  22
ENDBRANCH   5  19
TORSDOF 4
ENDMDL
MODEL 9
REMARK VINA RESULT:      -6.6      3.369      5.628
REMARK  Name = 
REMARK  6 active torsions:
REMARK  status: ('A' for Active; 'I' for Inactive)
REMARK    1  A    between atoms: C_1  and  C_2
REMARK    2  A    between atoms: C_5  and  S_6
REMARK    3  A    between atoms: S_6  and  N_9
REMARK    4  A    between atoms: N_13  and  S_14
REMARK    5  A    between atoms: S_14  and  C_17
REMARK    6  A    between atoms: C_20  and  C_21
REMARK                            x       y       z     vdW  Elec       q    Type
REMARK                         _______ _______ _______ _____ _____    ______ ____
ROOT
ATOM      1  N   UNL     1       6.257   5.544  17.489  0.00  0.00    +0.000 N 
ATOM      2  C   UNL     1       6.071   4.504  18.533  0.00  0.00    +0.000 C 
ATOM      3  C   UNL     1       4.598   4.258  18.822  0.00  0.00    +0.000 C 
ATOM      4  O   UNL     1       4.168   3.130  19.022  0.00  0.00    +0.000 OA
ATOM      5  N   UNL     1       3.794   5.432  18.860  0.00  0.00    +0.000 N 
ATOM      6  C   UNL     1       4.344   6.759  18.487  0.00  0.00    +0.000 C 
ATOM      7  C   UNL     1       5.365   6.644  17.368  0.00  0.00    +0.000 C 
ATOM      8  O   UNL     1       5.403   7.455  16.455  0.00  0.00    +0.000 OA
ENDROOT
BRANCH   1   9
ATOM      9  S   UNL     1       7.507   5.266  16.391  0.00  0.00    +0.000 S 
ATOM     10  O   UNL     1       8.284   4.154  16.892  0.00  0.00    +0.000 OA
ATOM     11  O   UNL     1       8.161   6.512  16.055  0.00  0.00    +0.000 OA
BRANCH   9  16
ATOM     12  C   UNL     1       4.685   3.003  11.503  0.00  0.00    +0.000 C 
ATOM     13  C   UNL     1       5.363   3.620  12.693  0.00  0.00    +0.000 A 
ATOM     14  C   UNL     1       6.649   4.166  12.585  0.00  0.00    +0.000 A 
ATOM     15  C   UNL     1       7.288   4.704  13.706  0.00  0.00    +0.000 A 
ATOM     16  C   UNL     1       6.636   4.702  14.942  0.00  0.00    +0.000 A 
ATOM     17  C   UNL     1       5.356   4.153  15.065  0.00  0.00    +0.000 A 
ATOM     18  C   UNL     1       4.722   3.621  13.940  0.00  0.00    +0.000 A 
ENDBRANCH   9  16
ENDBRANCH   1   9
BRANCH   5  19
ATOM     19  S   UNL     1       2.160   5.410  19.276  0.00  0.00    +0.000 S 
ATOM     20  O   UNL     1       1.380   4.815  18.214  0.00  0.00    +0.000 OA
ATOM     21  O   UNL     1       2.067   4.884  20.624  0.00  0.00    +0.000 OA
BRANCH  19  22
ATOM     22  C   UNL     1       1.745   7.142  19.351  0.00  0.00    +0.000 A 
ATOM     23  C   UNL     1       1.664   7.882  18.168  0.00  0.00    +0.000 A 
ATOM     24  C   UNL     1       1.288   9.227  18.217  0.00  0.00    +0.000 A 
ATOM     25  C   UNL     1       0.990   9.839  19.441  0.00  0.00    +0.000 A 
ATOM     26  C   UNL     1       0.611  11.292  19.506  0.00  0.00    +0.000 C 
ATOM     27  C   UNL     1       1.040   9.077  20.616  0.00  0.00    +0.000 A 
ATOM     28  C   UNL     1       1.409   7.729  20.575  0.00  0.00    +0.000 A 
ENDBRANCH  19  22
ENDBRANCH   5  19
TORSDOF 4
ENDMDL
