MODEL 1
REMARK VINA RESULT:      -5.5      0.000      0.000
REMARK  Name = 
REMARK  3 active torsions:
REMARK  status: ('A' for Active; 'I' for Inactive)
REMARK    1  A    between atoms: CA_4  and  C_5
REMARK    2  A    between atoms: C_5  and  OXT_7
REMARK    3  A    between atoms: C_9  and  O_10
REMARK                            x       y       z     vdW  Elec       q    Type
REMARK                         _______ _______ _______ _____ _____    ______ ____
ROOT
ATOM      1  N   UNL     1       8.321   5.248  20.231  0.00  0.00    +0.000 N 
ATOM      2  C   UNL     1       7.940   5.749  18.990  0.00  0.00    +0.000 A 
ATOM      3  C   UNL     1       7.557   4.896  17.986  0.00  0.00    +0.000 A 
ATOM      4  CA  UNL     1       7.271   5.496  16.780  0.00  0.00    +0.000 A 
ATOM      5  N   UNL     1       7.356   6.829  16.531  0.00  0.00    +0.000 NA
ATOM      6  C   UNL     1       7.748   7.529  17.594  0.00  0.00    +0.000 A 
ATOM      7  N   UNL     1       8.043   7.070  18.811  0.00  0.00    +0.000 NA
ATOM      8  H   UNL     1       7.661   4.589  20.627  0.00  0.00    +0.000 HD
ATOM      9  H   UNL     1       8.509   6.031  20.853  0.00  0.00    +0.000 HD
ENDROOT
BRANCH   4  10
ATOM     10  C   UNL     1       6.837   4.651  15.633  0.00  0.00    +0.000 C 
ATOM     11  O   UNL     1       6.139   3.657  15.731  0.00  0.00    +0.000 OA
BRANCH  10  12
ATOM     12  OXT UNL     1       7.317   5.133  14.463  0.00  0.00    +0.000 OA
ATOM     13  HXT UNL     1       6.659   5.740  14.060  0.00  0.00    +0.000 HD
ENDBRANCH  10  12
ENDBRANCH   4  10
BRANCH   6  14
ATOM     14  O   UNL     1       7.873   8.868  17.392  0.00  0.00    +0.000 OA
ATOM     15  H   UNL     1       8.765   8.919  17.020  0.00  0.00    +0.000 HD
ENDBRANCH   6  14
TORSDOF 3
ENDMDL
MODEL 2
REMARK VINA RESULT:      -5.4      2.535      2.925
REMARK  Name = 
REMARK  3 active torsions:
REMARK  status: ('A' for Active; 'I' for Inactive)
REMARK    1  A    between atoms: CA_4  and  C_5
REMARK    2  A    between atoms: C_5  and  OXT_7
REMARK    3  A    between atoms: C_9  and  O_10
REMARK                            x       y       z     vdW  Elec       q    Type
REMARK                         _______ _______ _______ _____ _____    ______ ____
ROOT
ATOM      1  N   UNL     1       3.872   3.701  18.413  0.00  0.00    +0.000 N 
ATOM      2  C   UNL     1       5.083   4.111  17.864  0.00  0.00    +0.000 A 
ATOM      3  C   UNL     1       5.264   4.109  16.505  0.00  0.00    +0.000 A 
ATOM      4  CA  UNL     1       6.524   4.464  16.077  0.00  0.00    +0.000 A 
ATOM      5  N   UNL     1       7.561   4.792  16.891  0.00  0.00    +0.000 NA
ATOM      6  C   UNL     1       7.241   4.742  18.182  0.00  0.00    +0.000 A 
ATOM      7  N   UNL     1       6.062   4.424  18.719  0.00  0.00    +0.000 NA
ATOM      8  H   UNL     1       3.062   4.146  17.998  0.00  0.00    +0.000 HD
ATOM      9  H   UNL     1       3.912   3.831  19.422  0.00  0.00    +0.000 HD
ENDROOT
BRANCH   4  10
ATOM     10  C   UNL     1       6.812   4.499  14.616  0.00  0.00    +0.000 C 
ATOM     11  O   UNL     1       6.292   3.769  13.791  0.00  0.00    +0.000 OA
BRANCH  10  12
ATOM     12  OXT UNL     1       7.726   5.452  14.322  0.00  0.00    +0.000 OA
ATOM     13  HXT UNL     1       7.340   6.098  13.691  0.00  0.00    +0.000 HD
ENDBRANCH  10  12
ENDBRANCH   4  10
BRANCH   6  14
ATOM     14  O   UNL     1       8.252   5.037  19.041  0.00  0.00    +0.000 OA
ATOM     15  H   UNL     1       7.764   5.162  19.869  0.00  0.00    +0.000 HD
ENDBRANCH   6  14
TORSDOF 3
ENDMDL
MODEL 3
REMARK VINA RESULT:      -5.4      2.235      2.641
REMARK  Name = 
REMARK  3 active torsions:
REMARK  status: ('A' for Active; 'I' for Inactive)
REMARK    1  A    between atoms: CA_4  and  C_5
REMARK    2  A    between atoms: C_5  and  OXT_7
REMARK    3  A    between atoms: C_9  and  O_10
REMARK                            x       y       z     vdW  Elec       q    Type
REMARK                         _______ _______ _______ _____ _____    ______ ____
ROOT
ATOM      1  N   UNL     1       4.216   3.696  19.037  0.00  0.00    +0.000 N 
ATOM      2  C   UNL     1       5.321   4.284  18.430  0.00  0.00    +0.000 A 
ATOM      3  C   UNL     1       5.522   4.151  17.079  0.00  0.00    +0.000 A 
ATOM      4  CA  UNL     1       6.684   4.711  16.598  0.00  0.00    +0.000 A 
ATOM      5  N   UNL     1       7.614   5.350  17.355  0.00  0.00    +0.000 NA
ATOM      6  C   UNL     1       7.290   5.394  18.646  0.00  0.00    +0.000 A 
ATOM      7  N   UNL     1       6.197   4.902  19.229  0.00  0.00    +0.000 NA
ATOM      8  H   UNL     1       3.337   3.904  18.577  0.00  0.00    +0.000 HD
ATOM      9  H   UNL     1       4.210   3.957  20.021  0.00  0.00    +0.000 HD
ENDROOT
BRANCH   4  10
ATOM     10  C   UNL     1       6.984   4.624  15.142  0.00  0.00    +0.000 C 
ATOM     11  O   UNL     1       7.676   5.418  14.529  0.00  0.00    +0.000 OA
BRANCH  10  12
ATOM     12  OXT UNL     1       6.389   3.543  14.586  0.00  0.00    +0.000 OA
ATOM     13  HXT UNL     1       7.062   2.993  14.129  0.00  0.00    +0.000 HD
ENDBRANCH  10  12
ENDBRANCH   4  10
BRANCH   6  14
ATOM     14  O   UNL     1       8.199   6.003  19.451  0.00  0.00    +0.000 OA
ATOM     15  H   UNL     1       8.105   5.486  20.265  0.00  0.00    +0.000 HD
ENDBRANCH   6  14
TORSDOF 3
ENDMDL
MODEL 4
REMARK VINA RESULT:      -5.4      2.649      3.386
REMARK  Name = 
REMARK  3 active torsions:
REMARK  status: ('A' for Active; 'I' for Inactive)
REMARK    1  A    between atoms: CA_4  and  C_5
REMARK    2  A    between atoms: C_5  and  OXT_7
REMARK    3  A    between atoms: C_9  and  O_10
REMARK                            x       y       z     vdW  Elec       q    Type
REMARK                         _______ _______ _______ _____ _____    ______ ____
ROOT
ATOM      1  N   UNL     1       7.696   7.893  16.982  0.00  0.00    +0.000 N 
ATOM      2  C   UNL     1       7.286   6.829  17.779  0.00  0.00    +0.000 A 
ATOM      3  C   UNL     1       6.136   6.142  17.480  0.00  0.00    +0.000 A 
ATOM      4  CA  UNL     1       5.788   5.156  18.376  0.00  0.00    +0.000 A 
ATOM      5  N   UNL     1       6.482   4.845  19.502  0.00  0.00    +0.000 NA
ATOM      6  C   UNL     1       7.567   5.599  19.666  0.00  0.00    +0.000 A 
ATOM      7  N   UNL     1       8.014   6.571  18.870  0.00  0.00    +0.000 NA
ATOM      8  H   UNL     1       7.719   7.678  15.992  0.00  0.00    +0.000 HD
ATOM      9  H   UNL     1       8.593   8.229  17.327  0.00  0.00    +0.000 HD
ENDROOT
BRANCH   4  10
ATOM     10  C   UNL     1       4.560   4.351  18.130  0.00  0.00    +0.000 C 
ATOM     11  O   UNL     1       3.521   4.796  17.674  0.00  0.00    +0.000 OA
BRANCH  10  12
ATOM     12  OXT UNL     1       4.748   3.057  18.476  0.00  0.00    +0.000 OA
ATOM     13  HXT UNL     1       4.618   2.482  17.690  0.00  0.00    +0.000 HD
ENDBRANCH  10  12
ENDBRANCH   4  10
BRANCH   6  14
ATOM     14  O   UNL     1       8.285   5.344  20.792  0.00  0.00    +0.000 OA
ATOM     15  H   UNL     1       8.406   6.238  21.144  0.00  0.00    +0.000 HD
ENDBRANCH   6  14
TORSDOF 3
ENDMDL
MODEL 5
REMARK VINA RESULT:      -5.4      2.513      3.256
REMARK  Name = 
REMARK  3 active torsions:
REMARK  status: ('A' for Active; 'I' for Inactive)
REMARK    1  A    between atoms: CA_4  and  C_5
REMARK    2  A    between atoms: C_5  and  OXT_7
REMARK    3  A    between atoms: C_9  and  O_10
REMARK                            x       y       z     vdW  Elec       q    Type
REMARK                         _______ _______ _______ _____ _____    ______ ____
ROOT
ATOM      1  N   UNL     1       3.586   4.035  17.679  0.00  0.00    +0.000 N 
ATOM      2  C   UNL     1       4.891   4.313  17.286  0.00  0.00    +0.000 A 
ATOM      3  C   UNL     1       5.223   4.342  15.956  0.00  0.00    +0.000 A 
ATOM      4  CA  UNL     1       6.556   4.555  15.685  0.00  0.00    +0.000 A 
ATOM      5  N   UNL     1       7.527   4.718  16.621  0.00  0.00    +0.000 NA
ATOM      6  C   UNL     1       7.059   4.658  17.867  0.00  0.00    +0.000 A 
ATOM      7  N   UNL     1       5.798   4.468  18.257  0.00  0.00    +0.000 NA
ATOM      8  H   UNL     1       2.887   4.594  17.204  0.00  0.00    +0.000 HD
ATOM      9  H   UNL     1       3.527   4.120  18.692  0.00  0.00    +0.000 HD
ENDROOT
BRANCH   4  10
ATOM     10  C   UNL     1       7.010   4.611  14.267  0.00  0.00    +0.000 C 
ATOM     11  O   UNL     1       7.768   5.451  13.816  0.00  0.00    +0.000 OA
BRANCH  10  12
ATOM     12  OXT UNL     1       6.471   3.602  13.543  0.00  0.00    +0.000 OA
ATOM     13  HXT UNL     1       5.715   3.211  14.032  0.00  0.00    +0.000 HD
ENDBRANCH  10  12
ENDBRANCH   4  10
BRANCH   6  14
ATOM     14  O   UNL     1       7.994   4.791  18.844  0.00  0.00    +0.000 OA
ATOM     15  H   UNL     1       8.266   5.712  18.719  0.00  0.00    +0.000 HD
ENDBRANCH   6  14
TORSDOF 3
ENDMDL
MODEL 6
REMARK VINA RESULT:      -5.3      2.620      3.885
REMARK  Name = 
REMARK  3 active torsions:
REMARK  status: ('A' for Active; 'I' for Inactive)
REMARK    1  A    between atoms: CA_4  and  C_5
REMARK    2  A    between atoms: C_5  and  OXT_7
REMARK    3  A    between atoms: C_9  and  O_10
REMARK                            x       y       z     vdW  Elec       q    Type
REMARK                         _______ _______ _______ _____ _____    ______ ____
ROOT
ATOM      1  N   UNL     1       6.401   3.656  13.896  0.00  0.00    +0.000 N 
ATOM      2  C   UNL     1       6.371   4.241  15.159  0.00  0.00    +0.000 A 
ATOM      3  C   UNL     1       5.541   3.746  16.132  0.00  0.00    +0.000 A 
ATOM      4  CA  UNL     1       5.540   4.446  17.318  0.00  0.00    +0.000 A 
ATOM      5  N   UNL     1       6.275   5.561  17.567  0.00  0.00    +0.000 NA
ATOM      6  C   UNL     1       7.025   5.928  16.530  0.00  0.00    +0.000 A 
ATOM      7  N   UNL     1       7.120   5.334  15.340  0.00  0.00    +0.000 NA
ATOM      8  H   UNL     1       6.518   2.650  13.913  0.00  0.00    +0.000 HD
ATOM      9  H   UNL     1       7.116   4.121  13.341  0.00  0.00    +0.000 HD
ENDROOT
BRANCH   4  10
ATOM     10  C   UNL     1       4.676   3.977  18.437  0.00  0.00    +0.000 C 
ATOM     11  O   UNL     1       3.510   4.297  18.591  0.00  0.00    +0.000 OA
BRANCH  10  12
ATOM     12  OXT UNL     1       5.354   3.145  19.261  0.00  0.00    +0.000 OA
ATOM     13  HXT UNL     1       5.653   2.354  18.761  0.00  0.00    +0.000 HD
ENDBRANCH  10  12
ENDBRANCH   4  10
BRANCH   6  14
ATOM     14  O   UNL     1       7.762   7.055  16.718  0.00  0.00    +0.000 OA
ATOM     15  H   UNL     1       7.831   7.074  17.684  0.00  0.00    +0.000 HD
ENDBRANCH   6  14
TORSDOF 3
ENDMDL
MODEL 7
REMARK VINA RESULT:      -5.3      2.524      3.941
REMARK  Name = 
REMARK  3 active torsions:
REMARK  status: ('A' for Active; 'I' for Inactive)
REMARK    1  A    between atoms: CA_4  and  C_5
REMARK    2  A    between atoms: C_5  and  OXT_7
REMARK    3  A    between atoms: C_9  and  O_10
REMARK                            x       y       z     vdW  Elec       q    Type
REMARK                         _______ _______ _______ _____ _____    ______ ____
ROOT
ATOM      1  N   UNL     1       3.863   3.764  17.116  0.00  0.00    +0.000 N 
ATOM      2  C   UNL     1       5.143   4.309  17.075  0.00  0.00    +0.000 A 
ATOM      3  C   UNL     1       5.750   4.739  18.227  0.00  0.00    +0.000 A 
ATOM      4  CA  UNL     1       6.984   5.327  18.059  0.00  0.00    +0.000 A 
ATOM      5  N   UNL     1       7.605   5.511  16.865  0.00  0.00    +0.000 NA
ATOM      6  C   UNL     1       6.894   5.053  15.837  0.00  0.00    +0.000 A 
ATOM      7  N   UNL     1       5.701   4.459  15.869  0.00  0.00    +0.000 NA
ATOM      8  H   UNL     1       3.751   3.034  17.810  0.00  0.00    +0.000 HD
ATOM      9  H   UNL     1       3.614   3.451  16.180  0.00  0.00    +0.000 HD
ENDROOT
BRANCH   4  10
ATOM     10  C   UNL     1       7.723   5.818  19.256  0.00  0.00    +0.000 C 
ATOM     11  O   UNL     1       7.730   5.263  20.341  0.00  0.00    +0.000 OA
BRANCH  10  12
ATOM     12  OXT UNL     1       8.393   6.961  18.979  0.00  0.00    +0.000 OA
ATOM     13  HXT UNL     1       9.297   6.747  18.662  0.00  0.00    +0.000 HD
ENDBRANCH  10  12
ENDBRANCH   4  10
BRANCH   6  14
ATOM     14  O   UNL     1       7.461   5.234  14.615  0.00  0.00    +0.000 OA
ATOM     15  H   UNL     1       8.403   5.223  14.841  0.00  0.00    +0.000 HD
ENDBRANCH   6  14
TORSDOF 3
ENDMDL
MODEL 8
REMARK VINA RESULT:      -5.3      2.744      3.814
REMARK  Name = 
REMARK  3 active torsions:
REMARK  status: ('A' for Active; 'I' for Inactive)
REMARK    1  A    between atoms: CA_4  and  C_5
REMARK    2  A    between atoms: C_5  and  OXT_7
REMARK    3  A    between atoms: C_9  and  O_10
REMARK                            x       y       z     vdW  Elec       q    Type
REMARK                         _______ _______ _______ _____ _____    ______ ____
ROOT
ATOM      1  N   UNL     1       7.403   5.255  14.642  0.00  0.00    +0.000 N 
ATOM      2  C   UNL     1       6.923   4.875  15.891  0.00  0.00    +0.000 A 
ATOM      3  C   UNL     1       5.676   4.318  16.015  0.00  0.00    +0.000 A 
ATOM      4  CA  UNL     1       5.276   4.048  17.305  0.00  0.00    +0.000 A 
ATOM      5  N   UNL     1       6.010   4.303  18.419  0.00  0.00    +0.000 NA
ATOM      6  C   UNL     1       7.192   4.852  18.146  0.00  0.00    +0.000 A 
ATOM      7  N   UNL     1       7.695   5.151  16.948  0.00  0.00    +0.000 NA
ATOM      8  H   UNL     1       7.320   4.534  13.935  0.00  0.00    +0.000 HD
ATOM      9  H   UNL     1       8.359   5.587  14.749  0.00  0.00    +0.000 HD
ENDROOT
BRANCH   4  10
ATOM     10  C   UNL     1       3.939   3.434  17.537  0.00  0.00    +0.000 C 
ATOM     11  O   UNL     1       2.880   4.033  17.465  0.00  0.00    +0.000 OA
BRANCH  10  12
ATOM     12  OXT UNL     1       4.052   2.119  17.836  0.00  0.00    +0.000 OA
ATOM     13  HXT UNL     1       3.981   1.993  18.808  0.00  0.00    +0.000 HD
ENDBRANCH  10  12
ENDBRANCH   4  10
BRANCH   6  14
ATOM     14  O   UNL     1       7.957   5.150  19.229  0.00  0.00    +0.000 OA
ATOM     15  H   UNL     1       8.675   4.507  19.135  0.00  0.00    +0.000 HD
ENDBRANCH   6  14
TORSDOF 3
ENDMDL
MODEL 9
REMARK VINA RESULT:      -5.3      2.024      2.875
REMARK  Name = 
REMARK  3 active torsions:
REMARK  status: ('A' for Active; 'I' for Inactive)
REMARK    1  A    between atoms: CA_4  and  C_5
REMARK    2  A    between atoms: C_5  and  OXT_7
REMARK    3  A    between atoms: C_9  and  O_10
REMARK                            x       y       z     vdW  Elec       q    Type
REMARK                         _______ _______ _______ _____ _____    ______ ____
ROOT
ATOM      1  N   UNL     1       7.982   5.589  19.821  0.00  0.00    +0.000 N 
ATOM      2  C   UNL     1       7.127   5.053  18.862  0.00  0.00    +0.000 A 
ATOM      3  C   UNL     1       7.483   5.054  17.538  0.00  0.00    +0.000 A 
ATOM      4  CA  UNL     1       6.530   4.566  16.671  0.00  0.00    +0.000 A 
ATOM      5  N   UNL     1       5.303   4.113  17.035  0.00  0.00    +0.000 NA
ATOM      6  C   UNL     1       5.095   4.180  18.349  0.00  0.00    +0.000 A 
ATOM      7  N   UNL     1       5.935   4.620  19.286  0.00  0.00    +0.000 NA
ATOM      8  H   UNL     1       8.932   5.243  19.761  0.00  0.00    +0.000 HD
ATOM      9  H   UNL     1       7.572   5.440  20.740  0.00  0.00    +0.000 HD
ENDROOT
BRANCH   4  10
ATOM     10  C   UNL     1       6.831   4.520  15.213  0.00  0.00    +0.000 C 
ATOM     11  O   UNL     1       6.320   3.744  14.425  0.00  0.00    +0.000 OA
BRANCH  10  12
ATOM     12  OXT UNL     1       7.746   5.458  14.874  0.00  0.00    +0.000 OA
ATOM     13  HXT UNL     1       7.340   6.351  14.927  0.00  0.00    +0.000 HD
ENDBRANCH  10  12
ENDBRANCH   4  10
BRANCH   6  14
ATOM     14  O   UNL     1       3.870   3.761  18.763  0.00  0.00    +0.000 OA
ATOM     15  H   UNL     1       3.298   4.441  18.378  0.00  0.00    +0.000 HD
ENDBRANCH   6  14
TORSDOF 3
ENDMDL
