MODEL 1
REMARK VINA RESULT:      -7.3      0.000      0.000
REMARK  Name = 
REMARK  13 active torsions:
REMARK  status: ('A' for Active; 'I' for Inactive)
REMARK    1  A    between atoms: C_1  and  C_2
REMARK    2  A    between atoms: C_2  and  C_3
REMARK    3  A    between atoms: C_2  and  C_4
REMARK    4  A    between atoms: C_8  and  C_9
REMARK    5  A    between atoms: C_9  and  C_10
REMARK    6  A    between atoms: C_9  and  C_11
REMARK    7  A    between atoms: C_12  and  N_13
REMARK    8  A    between atoms: N_16  and  S_17
REMARK    9  A    between atoms: S_17  and  C_20
REMARK   10  A    between atoms: C_22  and  C_23
REMARK   11  A    between atoms: C_23  and  C_24
REMARK   12  A    between atoms: C_23  and  C_25
REMARK   13  A    between atoms: C_23  and  O_26
REMARK                            x       y       z     vdW  Elec       q    Type
REMARK                         _______ _______ _______ _____ _____    ______ ____
ROOT
ATOM      1  N   UNL     1       2.602   6.604  17.967  0.00  0.00    +0.000 N 
ATOM      2  C   UNL     1       2.226   7.537  18.898  0.00  0.00    +0.000 C 
ATOM      3  O   UNL     1       2.580   7.556  20.059  0.00  0.00    +0.000 OA
ATOM      4  N   UNL     1       1.319   8.492  18.417  0.00  0.00    +0.000 N 
ATOM      5  H   UNL     1       2.019   6.532  17.149  0.00  0.00    +0.000 HD
ATOM      6  H   UNL     1       0.839   8.408  17.533  0.00  0.00    +0.000 HD
ENDROOT
BRANCH   1  12
ATOM      7  C   UNL     1       4.849   5.556  17.968  0.00  0.00    +0.000 A 
ATOM      8  C   UNL     1       5.653   4.433  18.286  0.00  0.00    +0.000 A 
ATOM      9  C   UNL     1       5.130   3.304  18.883  0.00  0.00    +0.000 A 
ATOM     10  C   UNL     1       3.770   3.245  19.122  0.00  0.00    +0.000 A 
ATOM     11  C   UNL     1       2.909   4.324  18.813  0.00  0.00    +0.000 A 
ATOM     12  C   UNL     1       3.460   5.515  18.266  0.00  0.00    +0.000 A 
BRANCH   7  14
ATOM     13  C   UNL     1       7.065   6.676  17.559  0.00  0.00    +0.000 C 
ATOM     14  C   UNL     1       5.561   6.684  17.223  0.00  0.00    +0.000 C 
ATOM     15  C   UNL     1       5.252   6.618  15.716  0.00  0.00    +0.000 C 
ENDBRANCH   7  14
BRANCH  11  16
ATOM     16  C   UNL     1       1.418   4.136  19.092  0.00  0.00    +0.000 C 
ATOM     17  C   UNL     1       0.990   2.741  18.627  0.00  0.00    +0.000 C 
ATOM     18  C   UNL     1       1.018   4.316  20.570  0.00  0.00    +0.000 C 
ENDBRANCH  11  16
ENDBRANCH   1  12
BRANCH   4  19
ATOM     19  S   UNL     1       0.786   9.794  19.325  0.00  0.00    +0.000 S 
ATOM     20  O   UNL     1       0.286   9.244  20.569  0.00  0.00    +0.000 OA
ATOM     21  O   UNL     1       1.820  10.810  19.325  0.00  0.00    +0.000 OA
BRANCH  19  22
ATOM     22  C   UNL     1      -0.643  10.531  18.525  0.00  0.00    +0.000 A 
ATOM     23  C   UNL     1      -1.477  10.047  17.524  0.00  0.00    +0.000 A 
ATOM     24  C   UNL     1      -2.507  11.006  17.289  0.00  0.00    +0.000 A 
ATOM     25  C   UNL     1      -2.216  12.043  18.151  0.00  0.00    +0.000 A 
ATOM     26  O   UNL     1      -1.119  11.773  18.898  0.00  0.00    +0.000 OA
BRANCH  24  27
ATOM     27  C   UNL     1      -3.657  10.917  16.317  0.00  0.00    +0.000 C 
ATOM     28  C   UNL     1      -3.752   9.520  15.688  0.00  0.00    +0.000 C 
ATOM     29  C   UNL     1      -4.982  11.281  16.997  0.00  0.00    +0.000 C 
BRANCH  27  30
ATOM     30  O   UNL     1      -3.489  11.849  15.241  0.00  0.00    +0.000 OA
ATOM     31  H   UNL     1      -2.577  12.183  15.294  0.00  0.00    +0.000 HD
ENDBRANCH  27  30
ENDBRANCH  24  27
ENDBRANCH  19  22
ENDBRANCH   4  19
TORSDOF 7
ENDMDL
MODEL 2
REMARK VINA RESULT:      -7.2      0.625      3.220
REMARK  Name = 
REMARK  13 active torsions:
REMARK  status: ('A' for Active; 'I' for Inactive)
REMARK    1  A    between atoms: C_1  and  C_2
REMARK    2  A    between atoms: C_2  and  C_3
REMARK    3  A    between atoms: C_2  and  C_4
REMARK    4  A    between atoms: C_8  and  C_9
REMARK    5  A    between atoms: C_9  and  C_10
REMARK    6  A    between atoms: C_9  and  C_11
REMARK    7  A    between atoms: C_12  and  N_13
REMARK    8  A    between atoms: N_16  and  S_17
REMARK    9  A    between atoms: S_17  and  C_20
REMARK   10  A    between atoms: C_22  and  C_23
REMARK   11  A    between atoms: C_23  and  C_24
REMARK   12  A    between atoms: C_23  and  C_25
REMARK   13  A    between atoms: C_23  and  O_26
REMARK                            x       y       z     vdW  Elec       q    Type
REMARK                         _______ _______ _______ _____ _____    ______ ____
ROOT
ATOM      1  N   UNL     1       2.355   6.483  17.651  0.00  0.00    +0.000 N 
ATOM      2  C   UNL     1       2.228   7.520  18.539  0.00  0.00    +0.000 C 
ATOM      3  O   UNL     1       2.782   7.596  19.616  0.00  0.00    +0.000 OA
ATOM      4  N   UNL     1       1.334   8.519  18.128  0.00  0.00    +0.000 N 
ATOM      5  H   UNL     1       1.632   6.405  16.954  0.00  0.00    +0.000 HD
ATOM      6  H   UNL     1       0.700   8.414  17.350  0.00  0.00    +0.000 HD
ENDROOT
BRANCH   1  12
ATOM      7  C   UNL     1       2.634   4.191  18.552  0.00  0.00    +0.000 A 
ATOM      8  C   UNL     1       3.490   3.083  18.781  0.00  0.00    +0.000 A 
ATOM      9  C   UNL     1       4.813   3.087  18.388  0.00  0.00    +0.000 A 
ATOM     10  C   UNL     1       5.333   4.228  17.808  0.00  0.00    +0.000 A 
ATOM     11  C   UNL     1       4.538   5.373  17.566  0.00  0.00    +0.000 A 
ATOM     12  C   UNL     1       3.157   5.342  17.904  0.00  0.00    +0.000 A 
BRANCH   7  14
ATOM     13  C   UNL     1       0.668   2.654  18.871  0.00  0.00    +0.000 C 
ATOM     14  C   UNL     1       1.227   4.065  19.134  0.00  0.00    +0.000 C 
ATOM     15  C   UNL     1       1.215   4.482  20.616  0.00  0.00    +0.000 C 
ENDBRANCH   7  14
BRANCH  11  16
ATOM     16  C   UNL     1       5.227   6.589  16.946  0.00  0.00    +0.000 C 
ATOM     17  C   UNL     1       6.665   6.673  17.468  0.00  0.00    +0.000 C 
ATOM     18  C   UNL     1       5.252   6.592  15.405  0.00  0.00    +0.000 C 
ENDBRANCH  11  16
ENDBRANCH   1  12
BRANCH   4  19
ATOM     19  S   UNL     1       1.081   9.936  18.984  0.00  0.00    +0.000 S 
ATOM     20  O   UNL     1       0.989   9.557  20.379  0.00  0.00    +0.000 OA
ATOM     21  O   UNL     1       2.052  10.919  18.545  0.00  0.00    +0.000 OA
BRANCH  19  22
ATOM     22  C   UNL     1      -0.533  10.602  18.566  0.00  0.00    +0.000 A 
ATOM     23  C   UNL     1      -1.477  10.187  17.634  0.00  0.00    +0.000 A 
ATOM     24  C   UNL     1      -2.624  11.028  17.744  0.00  0.00    +0.000 A 
ATOM     25  C   UNL     1      -2.293  11.936  18.728  0.00  0.00    +0.000 A 
ATOM     26  O   UNL     1      -1.060  11.691  19.233  0.00  0.00    +0.000 OA
BRANCH  24  27
ATOM     27  C   UNL     1      -3.912  10.952  16.962  0.00  0.00    +0.000 C 
ATOM     28  C   UNL     1      -3.714  10.221  15.627  0.00  0.00    +0.000 C 
ATOM     29  C   UNL     1      -5.013  10.268  17.780  0.00  0.00    +0.000 C 
BRANCH  27  30
ATOM     30  O   UNL     1      -4.399  12.264  16.653  0.00  0.00    +0.000 OA
ATOM     31  H   UNL     1      -4.922  12.189  15.837  0.00  0.00    +0.000 HD
ENDBRANCH  27  30
ENDBRANCH  24  27
ENDBRANCH  19  22
ENDBRANCH   4  19
TORSDOF 7
ENDMDL
MODEL 3
REMARK VINA RESULT:      -7.2      1.205      1.505
REMARK  Name = 
REMARK  13 active torsions:
REMARK  status: ('A' for Active; 'I' for Inactive)
REMARK    1  A    between atoms: C_1  and  C_2
REMARK    2  A    between atoms: C_2  and  C_3
REMARK    3  A    between atoms: C_2  and  C_4
REMARK    4  A    between atoms: C_8  and  C_9
REMARK    5  A    between atoms: C_9  and  C_10
REMARK    6  A    between atoms: C_9  and  C_11
REMARK    7  A    between atoms: C_12  and  N_13
REMARK    8  A    between atoms: N_16  and  S_17
REMARK    9  A    between atoms: S_17  and  C_20
REMARK   10  A    between atoms: C_22  and  C_23
REMARK   11  A    between atoms: C_23  and  C_24
REMARK   12  A    between atoms: C_23  and  C_25
REMARK   13  A    between atoms: C_23  and  O_26
REMARK                            x       y       z     vdW  Elec       q    Type
REMARK                         _______ _______ _______ _____ _____    ______ ____
ROOT
ATOM      1  N   UNL     1       2.692   6.584  17.798  0.00  0.00    +0.000 N 
ATOM      2  C   UNL     1       2.224   7.572  18.625  0.00  0.00    +0.000 C 
ATOM      3  O   UNL     1       2.474   7.677  19.808  0.00  0.00    +0.000 OA
ATOM      4  N   UNL     1       1.353   8.476  18.001  0.00  0.00    +0.000 N 
ATOM      5  H   UNL     1       2.183   6.446  16.940  0.00  0.00    +0.000 HD
ATOM      6  H   UNL     1       0.954   8.324  17.087  0.00  0.00    +0.000 HD
ENDROOT
BRANCH   1  12
ATOM      7  C   UNL     1       4.935   5.554  18.025  0.00  0.00    +0.000 A 
ATOM      8  C   UNL     1       5.720   4.470  18.493  0.00  0.00    +0.000 A 
ATOM      9  C   UNL     1       5.164   3.399  19.164  0.00  0.00    +0.000 A 
ATOM     10  C   UNL     1       3.793   3.355  19.330  0.00  0.00    +0.000 A 
ATOM     11  C   UNL     1       2.951   4.396  18.872  0.00  0.00    +0.000 A 
ATOM     12  C   UNL     1       3.532   5.533  18.247  0.00  0.00    +0.000 A 
BRANCH   7  14
ATOM     13  C   UNL     1       7.159   6.675  17.671  0.00  0.00    +0.000 C 
ATOM     14  C   UNL     1       5.688   6.610  17.218  0.00  0.00    +0.000 C 
ATOM     15  C   UNL     1       5.503   6.372  15.708  0.00  0.00    +0.000 C 
ENDBRANCH   7  14
BRANCH  11  16
ATOM     16  C   UNL     1       1.446   4.226  19.084  0.00  0.00    +0.000 C 
ATOM     17  C   UNL     1       1.024   2.833  18.607  0.00  0.00    +0.000 C 
ATOM     18  C   UNL     1       0.981   4.420  20.540  0.00  0.00    +0.000 C 
ENDBRANCH  11  16
ENDBRANCH   1  12
BRANCH   4  19
ATOM     19  S   UNL     1       0.727   9.828  18.765  0.00  0.00    +0.000 S 
ATOM     20  O   UNL     1       0.619   9.488  20.169  0.00  0.00    +0.000 OA
ATOM     21  O   UNL     1       1.483  10.990  18.339  0.00  0.00    +0.000 OA
BRANCH  19  22
ATOM     22  C   UNL     1      -0.960  10.096  18.212  0.00  0.00    +0.000 A 
ATOM     23  C   UNL     1      -2.033  10.729  18.829  0.00  0.00    +0.000 A 
ATOM     24  C   UNL     1      -3.141  10.724  17.931  0.00  0.00    +0.000 A 
ATOM     25  C   UNL     1      -2.680  10.053  16.818  0.00  0.00    +0.000 A 
ATOM     26  O   UNL     1      -1.385   9.682  16.964  0.00  0.00    +0.000 OA
BRANCH  24  27
ATOM     27  C   UNL     1      -4.513  11.315  18.143  0.00  0.00    +0.000 C 
ATOM     28  C   UNL     1      -4.520  12.308  19.313  0.00  0.00    +0.000 C 
ATOM     29  C   UNL     1      -5.022  11.996  16.868  0.00  0.00    +0.000 C 
BRANCH  27  30
ATOM     30  O   UNL     1      -5.465  10.291  18.458  0.00  0.00    +0.000 OA
ATOM     31  H   UNL     1      -5.475  10.199  19.426  0.00  0.00    +0.000 HD
ENDBRANCH  27  30
ENDBRANCH  24  27
ENDBRANCH  19  22
ENDBRANCH   4  19
TORSDOF 7
ENDMDL
MODEL 4
REMARK VINA RESULT:      -7.2      1.030      3.414
REMARK  Name = 
REMARK  13 active torsions:
REMARK  status: ('A' for Active; 'I' for Inactive)
REMARK    1  A    between atoms: C_1  and  C_2
REMARK    2  A    between atoms: C_2  and  C_3
REMARK    3  A    between atoms: C_2  and  C_4
REMARK    4  A    between atoms: C_8  and  C_9
REMARK    5  A    between atoms: C_9  and  C_10
REMARK    6  A    between atoms: C_9  and  C_11
REMARK    7  A    between atoms: C_12  and  N_13
REMARK    8  A    between atoms: N_16  and  S_17
REMARK    9  A    between atoms: S_17  and  C_20
REMARK   10  A    between atoms: C_22  and  C_23
REMARK   11  A    between atoms: C_23  and  C_24
REMARK   12  A    between atoms: C_23  and  C_25
REMARK   13  A    between atoms: C_23  and  O_26
REMARK                            x       y       z     vdW  Elec       q    Type
REMARK                         _______ _______ _______ _____ _____    ______ ____
ROOT
ATOM      1  N   UNL     1       2.753   6.447  17.775  0.00  0.00    +0.000 N 
ATOM      2  C   UNL     1       2.310   7.437  18.615  0.00  0.00    +0.000 C 
ATOM      3  O   UNL     1       2.510   7.486  19.811  0.00  0.00    +0.000 OA
ATOM      4  N   UNL     1       1.529   8.415  17.985  0.00  0.00    +0.000 N 
ATOM      5  H   UNL     1       2.279   6.371  16.890  0.00  0.00    +0.000 HD
ATOM      6  H   UNL     1       1.165   8.319  17.048  0.00  0.00    +0.000 HD
ENDROOT
BRANCH   1  12
ATOM      7  C   UNL     1       2.879   4.212  18.837  0.00  0.00    +0.000 A 
ATOM      8  C   UNL     1       3.685   3.127  19.269  0.00  0.00    +0.000 A 
ATOM      9  C   UNL     1       5.055   3.123  19.105  0.00  0.00    +0.000 A 
ATOM     10  C   UNL     1       5.665   4.235  18.557  0.00  0.00    +0.000 A 
ATOM     11  C   UNL     1       4.921   5.357  18.121  0.00  0.00    +0.000 A 
ATOM     12  C   UNL     1       3.503   5.330  18.223  0.00  0.00    +0.000 A 
BRANCH   7  14
ATOM     13  C   UNL     1       0.825   2.768  18.665  0.00  0.00    +0.000 C 
ATOM     14  C   UNL     1       1.394   4.104  19.181  0.00  0.00    +0.000 C 
ATOM     15  C   UNL     1       1.167   4.348  20.684  0.00  0.00    +0.000 C 
ENDBRANCH   7  14
BRANCH  11  16
ATOM     16  C   UNL     1       5.703   6.544  17.558  0.00  0.00    +0.000 C 
ATOM     17  C   UNL     1       7.161   6.451  18.021  0.00  0.00    +0.000 C 
ATOM     18  C   UNL     1       5.672   6.658  16.022  0.00  0.00    +0.000 C 
ENDBRANCH  11  16
ENDBRANCH   1  12
BRANCH   4  19
ATOM     19  S   UNL     1       0.954   9.780  18.767  0.00  0.00    +0.000 S 
ATOM     20  O   UNL     1       0.865   9.434  20.172  0.00  0.00    +0.000 OA
ATOM     21  O   UNL     1       1.733  10.922  18.332  0.00  0.00    +0.000 OA
BRANCH  19  22
ATOM     22  C   UNL     1      -0.735  10.096  18.248  0.00  0.00    +0.000 A 
ATOM     23  C   UNL     1      -1.739  10.861  18.830  0.00  0.00    +0.000 A 
ATOM     24  C   UNL     1      -2.883  10.831  17.977  0.00  0.00    +0.000 A 
ATOM     25  C   UNL     1      -2.512  10.015  16.930  0.00  0.00    +0.000 A 
ATOM     26  O   UNL     1      -1.237   9.578  17.070  0.00  0.00    +0.000 OA
BRANCH  24  27
ATOM     27  C   UNL     1      -4.206  11.529  18.172  0.00  0.00    +0.000 C 
ATOM     28  C   UNL     1      -5.361  10.524  18.271  0.00  0.00    +0.000 C 
ATOM     29  C   UNL     1      -4.178  12.426  19.414  0.00  0.00    +0.000 C 
BRANCH  27  30
ATOM     30  O   UNL     1      -4.495  12.391  17.062  0.00  0.00    +0.000 OA
ATOM     31  H   UNL     1      -3.685  12.894  16.874  0.00  0.00    +0.000 HD
ENDBRANCH  27  30
ENDBRANCH  24  27
ENDBRANCH  19  22
ENDBRANCH   4  19
TORSDOF 7
ENDMDL
MODEL 5
REMARK VINA RESULT:      -7.1      1.628      3.720
REMARK  Name = 
REMARK  13 active torsions:
REMARK  status: ('A' for Active; 'I' for Inactive)
REMARK    1  A    between atoms: C_1  and  C_2
REMARK    2  A    between atoms: C_2  and  C_3
REMARK    3  A    between atoms: C_2  and  C_4
REMARK    4  A    between atoms: C_8  and  C_9
REMARK    5  A    between atoms: C_9  and  C_10
REMARK    6  A    between atoms: C_9  and  C_11
REMARK    7  A    between atoms: C_12  and  N_13
REMARK    8  A    between atoms: N_16  and  S_17
REMARK    9  A    between atoms: S_17  and  C_20
REMARK   10  A    between atoms: C_22  and  C_23
REMARK   11  A    between atoms: C_23  and  C_24
REMARK   12  A    between atoms: C_23  and  C_25
REMARK   13  A    between atoms: C_23  and  O_26
REMARK                            x       y       z     vdW  Elec       q    Type
REMARK                         _______ _______ _______ _____ _____    ______ ____
ROOT
ATOM      1  N   UNL     1       3.287   5.991  20.083  0.00  0.00    +0.000 N 
ATOM      2  C   UNL     1       2.144   6.738  20.213  0.00  0.00    +0.000 C 
ATOM      3  O   UNL     1       1.116   6.565  19.591  0.00  0.00    +0.000 OA
ATOM      4  N   UNL     1       2.255   7.802  21.118  0.00  0.00    +0.000 N 
ATOM      5  H   UNL     1       4.134   6.414  20.425  0.00  0.00    +0.000 HD
ATOM      6  H   UNL     1       3.134   8.115  21.505  0.00  0.00    +0.000 HD
ENDROOT
BRANCH   1  12
ATOM      7  C   UNL     1       2.720   3.684  19.378  0.00  0.00    +0.000 A 
ATOM      8  C   UNL     1       2.885   2.639  18.433  0.00  0.00    +0.000 A 
ATOM      9  C   UNL     1       3.685   2.780  17.318  0.00  0.00    +0.000 A 
ATOM     10  C   UNL     1       4.394   3.954  17.150  0.00  0.00    +0.000 A 
ATOM     11  C   UNL     1       4.287   5.029  18.064  0.00  0.00    +0.000 A 
ATOM     12  C   UNL     1       3.406   4.911  19.173  0.00  0.00    +0.000 A 
BRANCH   7  14
ATOM     13  C   UNL     1       0.514   2.769  20.168  0.00  0.00    +0.000 C 
ATOM     14  C   UNL     1       1.879   3.334  20.604  0.00  0.00    +0.000 C 
ATOM     15  C   UNL     1       2.666   2.416  21.557  0.00  0.00    +0.000 C 
ENDBRANCH   7  14
BRANCH  11  16
ATOM     16  C   UNL     1       5.141   6.268  17.793  0.00  0.00    +0.000 C 
ATOM     17  C   UNL     1       6.599   5.964  18.152  0.00  0.00    +0.000 C 
ATOM     18  C   UNL     1       5.079   6.782  16.342  0.00  0.00    +0.000 C 
ENDBRANCH  11  16
ENDBRANCH   1  12
BRANCH   4  19
ATOM     19  S   UNL     1       0.974   8.799  21.530  0.00  0.00    +0.000 S 
ATOM     20  O   UNL     1      -0.114   7.923  21.915  0.00  0.00    +0.000 OA
ATOM     21  O   UNL     1       1.459   9.823  22.435  0.00  0.00    +0.000 OA
BRANCH  19  22
ATOM     22  C   UNL     1       0.395   9.659  20.064  0.00  0.00    +0.000 A 
ATOM     23  C   UNL     1      -0.893   9.908  19.602  0.00  0.00    +0.000 A 
ATOM     24  C   UNL     1      -0.805  10.691  18.413  0.00  0.00    +0.000 A 
ATOM     25  C   UNL     1       0.549  10.847  18.203  0.00  0.00    +0.000 A 
ATOM     26  O   UNL     1       1.274  10.249  19.178  0.00  0.00    +0.000 OA
BRANCH  24  27
ATOM     27  C   UNL     1      -1.933  11.229  17.568  0.00  0.00    +0.000 C 
ATOM     28  C   UNL     1      -2.351  10.223  16.486  0.00  0.00    +0.000 C 
ATOM     29  C   UNL     1      -3.139  11.604  18.435  0.00  0.00    +0.000 C 
BRANCH  27  30
ATOM     30  O   UNL     1      -1.536  12.429  16.892  0.00  0.00    +0.000 OA
ATOM     31  H   UNL     1      -0.565  12.417  16.838  0.00  0.00    +0.000 HD
ENDBRANCH  27  30
ENDBRANCH  24  27
ENDBRANCH  19  22
ENDBRANCH   4  19
TORSDOF 7
ENDMDL
MODEL 6
REMARK VINA RESULT:      -7.1      1.674      2.123
REMARK  Name = 
REMARK  13 active torsions:
REMARK  status: ('A' for Active; 'I' for Inactive)
REMARK    1  A    between atoms: C_1  and  C_2
REMARK    2  A    between atoms: C_2  and  C_3
REMARK    3  A    between atoms: C_2  and  C_4
REMARK    4  A    between atoms: C_8  and  C_9
REMARK    5  A    between atoms: C_9  and  C_10
REMARK    6  A    between atoms: C_9  and  C_11
REMARK    7  A    between atoms: C_12  and  N_13
REMARK    8  A    between atoms: N_16  and  S_17
REMARK    9  A    between atoms: S_17  and  C_20
REMARK   10  A    between atoms: C_22  and  C_23
REMARK   11  A    between atoms: C_23  and  C_24
REMARK   12  A    between atoms: C_23  and  C_25
REMARK   13  A    between atoms: C_23  and  O_26
REMARK                            x       y       z     vdW  Elec       q    Type
REMARK                         _______ _______ _______ _____ _____    ______ ____
ROOT
ATOM      1  N   UNL     1       3.238   6.051  20.197  0.00  0.00    +0.000 N 
ATOM      2  C   UNL     1       2.078   6.782  20.237  0.00  0.00    +0.000 C 
ATOM      3  O   UNL     1       1.140   6.654  19.477  0.00  0.00    +0.000 OA
ATOM      4  N   UNL     1       2.059   7.771  21.229  0.00  0.00    +0.000 N 
ATOM      5  H   UNL     1       4.029   6.448  20.677  0.00  0.00    +0.000 HD
ATOM      6  H   UNL     1       2.876   8.054  21.749  0.00  0.00    +0.000 HD
ENDROOT
BRANCH   1  12
ATOM      7  C   UNL     1       4.292   5.297  18.084  0.00  0.00    +0.000 A 
ATOM      8  C   UNL     1       4.498   4.251  17.148  0.00  0.00    +0.000 A 
ATOM      9  C   UNL     1       3.947   2.998  17.317  0.00  0.00    +0.000 A 
ATOM     10  C   UNL     1       3.120   2.773  18.401  0.00  0.00    +0.000 A 
ATOM     11  C   UNL     1       2.859   3.778  19.363  0.00  0.00    +0.000 A 
ATOM     12  C   UNL     1       3.486   5.047  19.227  0.00  0.00    +0.000 A 
BRANCH   7  14
ATOM     13  C   UNL     1       6.023   6.458  16.676  0.00  0.00    +0.000 C 
ATOM     14  C   UNL     1       4.889   6.649  17.701  0.00  0.00    +0.000 C 
ATOM     15  C   UNL     1       3.785   7.620  17.246  0.00  0.00    +0.000 C 
ENDBRANCH   7  14
BRANCH  11  16
ATOM     16  C   UNL     1       1.904   3.426  20.504  0.00  0.00    +0.000 C 
ATOM     17  C   UNL     1       0.726   2.623  19.946  0.00  0.00    +0.000 C 
ATOM     18  C   UNL     1       2.551   2.632  21.656  0.00  0.00    +0.000 C 
ENDBRANCH  11  16
ENDBRANCH   1  12
BRANCH   4  19
ATOM     19  S   UNL     1       0.722   8.728  21.550  0.00  0.00    +0.000 S 
ATOM     20  O   UNL     1      -0.363   7.818  21.856  0.00  0.00    +0.000 OA
ATOM     21  O   UNL     1       1.111   9.762  22.488  0.00  0.00    +0.000 OA
BRANCH  19  22
ATOM     22  C   UNL     1       0.222   9.574  20.047  0.00  0.00    +0.000 A 
ATOM     23  C   UNL     1      -0.998  10.126  19.675  0.00  0.00    +0.000 A 
ATOM     24  C   UNL     1      -0.847  10.739  18.396  0.00  0.00    +0.000 A 
ATOM     25  C   UNL     1       0.465  10.495  18.049  0.00  0.00    +0.000 A 
ATOM     26  O   UNL     1       1.116   9.812  19.022  0.00  0.00    +0.000 OA
BRANCH  24  27
ATOM     27  C   UNL     1      -1.883  11.487  17.595  0.00  0.00    +0.000 C 
ATOM     28  C   UNL     1      -2.304  10.698  16.347  0.00  0.00    +0.000 C 
ATOM     29  C   UNL     1      -3.111  11.814  18.452  0.00  0.00    +0.000 C 
BRANCH  27  30
ATOM     30  O   UNL     1      -1.366  12.745  17.140  0.00  0.00    +0.000 OA
ATOM     31  H   UNL     1      -0.475  12.838  17.516  0.00  0.00    +0.000 HD
ENDBRANCH  27  30
ENDBRANCH  24  27
ENDBRANCH  19  22
ENDBRANCH   4  19
TORSDOF 7
ENDMDL
MODEL 7
REMARK VINA RESULT:      -7.0      2.621      3.500
REMARK  Name = 
REMARK  13 active torsions:
REMARK  status: ('A' for Active; 'I' for Inactive)
REMARK    1  A    between atoms: C_1  and  C_2
REMARK    2  A    between atoms: C_2  and  C_3
REMARK    3  A    between atoms: C_2  and  C_4
REMARK    4  A    between atoms: C_8  and  C_9
REMARK    5  A    between atoms: C_9  and  C_10
REMARK    6  A    between atoms: C_9  and  C_11
REMARK    7  A    between atoms: C_12  and  N_13
REMARK    8  A    between atoms: N_16  and  S_17
REMARK    9  A    between atoms: S_17  and  C_20
REMARK   10  A    between atoms: C_22  and  C_23
REMARK   11  A    between atoms: C_23  and  C_24
REMARK   12  A    between atoms: C_23  and  C_25
REMARK   13  A    between atoms: C_23  and  O_26
REMARK                            x       y       z     vdW  Elec       q    Type
REMARK                         _______ _______ _______ _____ _____    ______ ____
ROOT
ATOM      1  N   UNL     1       2.922   6.481  19.426  0.00  0.00    +0.000 N 
ATOM      2  C   UNL     1       2.203   7.482  18.828  0.00  0.00    +0.000 C 
ATOM      3  O   UNL     1       1.847   7.496  17.667  0.00  0.00    +0.000 OA
ATOM      4  N   UNL     1       1.928   8.570  19.667  0.00  0.00    +0.000 N 
ATOM      5  H   UNL     1       3.394   6.724  20.282  0.00  0.00    +0.000 HD
ATOM      6  H   UNL     1       2.366   8.704  20.567  0.00  0.00    +0.000 HD
ENDROOT
BRANCH   1  12
ATOM      7  C   UNL     1       4.442   5.366  17.816  0.00  0.00    +0.000 A 
ATOM      8  C   UNL     1       4.828   4.174  17.152  0.00  0.00    +0.000 A 
ATOM      9  C   UNL     1       4.189   2.972  17.376  0.00  0.00    +0.000 A 
ATOM     10  C   UNL     1       3.101   2.943  18.229  0.00  0.00    +0.000 A 
ATOM     11  C   UNL     1       2.655   4.100  18.910  0.00  0.00    +0.000 A 
ATOM     12  C   UNL     1       3.359   5.322  18.735  0.00  0.00    +0.000 A 
BRANCH   7  14
ATOM     13  C   UNL     1       6.676   6.523  17.763  0.00  0.00    +0.000 C 
ATOM     14  C   UNL     1       5.186   6.629  17.384  0.00  0.00    +0.000 C 
ATOM     15  C   UNL     1       4.934   6.924  15.895  0.00  0.00    +0.000 C 
ENDBRANCH   7  14
BRANCH  11  16
ATOM     16  C   UNL     1       1.423   3.957  19.804  0.00  0.00    +0.000 C 
ATOM     17  C   UNL     1       0.491   2.895  19.213  0.00  0.00    +0.000 C 
ATOM     18  C   UNL     1       1.737   3.589  21.268  0.00  0.00    +0.000 C 
ENDBRANCH  11  16
ENDBRANCH   1  12
BRANCH   4  19
ATOM     19  S   UNL     1       0.980   9.872  19.208  0.00  0.00    +0.000 S 
ATOM     20  O   UNL     1       1.897  10.942  18.870  0.00  0.00    +0.000 OA
ATOM     21  O   UNL     1      -0.005   9.409  18.251  0.00  0.00    +0.000 OA
BRANCH  19  22
ATOM     22  C   UNL     1       0.059  10.468  20.629  0.00  0.00    +0.000 A 
ATOM     23  C   UNL     1      -0.827  11.531  20.761  0.00  0.00    +0.000 A 
ATOM     24  C   UNL     1      -1.335  11.535  22.094  0.00  0.00    +0.000 A 
ATOM     25  C   UNL     1      -0.697  10.479  22.710  0.00  0.00    +0.000 A 
ATOM     26  O   UNL     1       0.127   9.830  21.852  0.00  0.00    +0.000 OA
BRANCH  24  27
ATOM     27  C   UNL     1      -2.342  12.479  22.702  0.00  0.00    +0.000 C 
ATOM     28  C   UNL     1      -1.652  13.624  23.458  0.00  0.00    +0.000 C 
ATOM     29  C   UNL     1      -3.283  13.045  21.633  0.00  0.00    +0.000 C 
BRANCH  27  30
ATOM     30  O   UNL     1      -3.175  11.796  23.648  0.00  0.00    +0.000 OA
ATOM     31  H   UNL     1      -3.012  10.844  23.535  0.00  0.00    +0.000 HD
ENDBRANCH  27  30
ENDBRANCH  24  27
ENDBRANCH  19  22
ENDBRANCH   4  19
TORSDOF 7
ENDMDL
MODEL 8
REMARK VINA RESULT:      -6.9      2.761      3.669
REMARK  Name = 
REMARK  13 active torsions:
REMARK  status: ('A' for Active; 'I' for Inactive)
REMARK    1  A    between atoms: C_1  and  C_2
REMARK    2  A    between atoms: C_2  and  C_3
REMARK    3  A    between atoms: C_2  and  C_4
REMARK    4  A    between atoms: C_8  and  C_9
REMARK    5  A    between atoms: C_9  and  C_10
REMARK    6  A    between atoms: C_9  and  C_11
REMARK    7  A    between atoms: C_12  and  N_13
REMARK    8  A    between atoms: N_16  and  S_17
REMARK    9  A    between atoms: S_17  and  C_20
REMARK   10  A    between atoms: C_22  and  C_23
REMARK   11  A    between atoms: C_23  and  C_24
REMARK   12  A    between atoms: C_23  and  C_25
REMARK   13  A    between atoms: C_23  and  O_26
REMARK                            x       y       z     vdW  Elec       q    Type
REMARK                         _______ _______ _______ _____ _____    ______ ____
ROOT
ATOM      1  N   UNL     1       2.925   6.515  19.233  0.00  0.00    +0.000 N 
ATOM      2  C   UNL     1       2.320   7.524  18.528  0.00  0.00    +0.000 C 
ATOM      3  O   UNL     1       2.094   7.511  17.335  0.00  0.00    +0.000 OA
ATOM      4  N   UNL     1       2.004   8.651  19.298  0.00  0.00    +0.000 N 
ATOM      5  H   UNL     1       3.310   6.769  20.127  0.00  0.00    +0.000 HD
ATOM      6  H   UNL     1       2.346   8.798  20.237  0.00  0.00    +0.000 HD
ENDROOT
BRANCH   1  12
ATOM      7  C   UNL     1       4.512   5.300  17.768  0.00  0.00    +0.000 A 
ATOM      8  C   UNL     1       4.917   4.069  17.191  0.00  0.00    +0.000 A 
ATOM      9  C   UNL     1       4.253   2.887  17.447  0.00  0.00    +0.000 A 
ATOM     10  C   UNL     1       3.123   2.915  18.241  0.00  0.00    +0.000 A 
ATOM     11  C   UNL     1       2.656   4.112  18.834  0.00  0.00    +0.000 A 
ATOM     12  C   UNL     1       3.383   5.317  18.629  0.00  0.00    +0.000 A 
BRANCH   7  14
ATOM     13  C   UNL     1       6.752   6.446  17.793  0.00  0.00    +0.000 C 
ATOM     14  C   UNL     1       5.292   6.530  17.307  0.00  0.00    +0.000 C 
ATOM     15  C   UNL     1       5.145   6.728  15.787  0.00  0.00    +0.000 C 
ENDBRANCH   7  14
BRANCH  11  16
ATOM     16  C   UNL     1       1.378   4.030  19.669  0.00  0.00    +0.000 C 
ATOM     17  C   UNL     1       0.470   2.937  19.096  0.00  0.00    +0.000 C 
ATOM     18  C   UNL     1       1.612   3.752  21.167  0.00  0.00    +0.000 C 
ENDBRANCH  11  16
ENDBRANCH   1  12
BRANCH   4  19
ATOM     19  S   UNL     1       1.170   9.973  18.697  0.00  0.00    +0.000 S 
ATOM     20  O   UNL     1       2.153  10.804  18.031  0.00  0.00    +0.000 OA
ATOM     21  O   UNL     1      -0.001   9.496  17.988  0.00  0.00    +0.000 OA
BRANCH  19  22
ATOM     22  C   UNL     1       0.561  10.964  20.065  0.00  0.00    +0.000 A 
ATOM     23  C   UNL     1       0.605  12.335  20.288  0.00  0.00    +0.000 A 
ATOM     24  C   UNL     1      -0.082  12.619  21.506  0.00  0.00    +0.000 A 
ATOM     25  C   UNL     1      -0.482  11.384  21.972  0.00  0.00    +0.000 A 
ATOM     26  O   UNL     1      -0.117  10.392  21.124  0.00  0.00    +0.000 OA
BRANCH  24  27
ATOM     27  C   UNL     1      -0.319  13.963  22.148  0.00  0.00    +0.000 C 
ATOM     28  C   UNL     1      -0.994  14.938  21.174  0.00  0.00    +0.000 C 
ATOM     29  C   UNL     1      -1.160  13.823  23.423  0.00  0.00    +0.000 C 
BRANCH  27  30
ATOM     30  O   UNL     1       0.920  14.562  22.549  0.00  0.00    +0.000 OA
ATOM     31  H   UNL     1       0.724  15.144  23.303  0.00  0.00    +0.000 HD
ENDBRANCH  27  30
ENDBRANCH  24  27
ENDBRANCH  19  22
ENDBRANCH   4  19
TORSDOF 7
ENDMDL
MODEL 9
REMARK VINA RESULT:      -6.9      2.714      4.722
REMARK  Name = 
REMARK  13 active torsions:
REMARK  status: ('A' for Active; 'I' for Inactive)
REMARK    1  A    between atoms: C_1  and  C_2
REMARK    2  A    between atoms: C_2  and  C_3
REMARK    3  A    between atoms: C_2  and  C_4
REMARK    4  A    between atoms: C_8  and  C_9
REMARK    5  A    between atoms: C_9  and  C_10
REMARK    6  A    between atoms: C_9  and  C_11
REMARK    7  A    between atoms: C_12  and  N_13
REMARK    8  A    between atoms: N_16  and  S_17
REMARK    9  A    between atoms: S_17  and  C_20
REMARK   10  A    between atoms: C_22  and  C_23
REMARK   11  A    between atoms: C_23  and  C_24
REMARK   12  A    between atoms: C_23  and  C_25
REMARK   13  A    between atoms: C_23  and  O_26
REMARK                            x       y       z     vdW  Elec       q    Type
REMARK                         _______ _______ _______ _____ _____    ______ ____
ROOT
ATOM      1  N   UNL     1       2.886   6.534  19.250  0.00  0.00    +0.000 N 
ATOM      2  C   UNL     1       2.287   7.483  18.462  0.00  0.00    +0.000 C 
ATOM      3  O   UNL     1       1.993   7.343  17.293  0.00  0.00    +0.000 OA
ATOM      4  N   UNL     1       2.067   8.707  19.108  0.00  0.00    +0.000 N 
ATOM      5  H   UNL     1       3.334   6.871  20.086  0.00  0.00    +0.000 HD
ATOM      6  H   UNL     1       2.468   8.945  20.003  0.00  0.00    +0.000 HD
ENDROOT
BRANCH   1  12
ATOM      7  C   UNL     1       2.590   4.074  19.205  0.00  0.00    +0.000 A 
ATOM      8  C   UNL     1       3.010   2.819  18.692  0.00  0.00    +0.000 A 
ATOM      9  C   UNL     1       4.040   2.709  17.781  0.00  0.00    +0.000 A 
ATOM     10  C   UNL     1       4.721   3.850  17.403  0.00  0.00    +0.000 A 
ATOM     11  C   UNL     1       4.364   5.130  17.889  0.00  0.00    +0.000 A 
ATOM     12  C   UNL     1       3.255   5.251  18.771  0.00  0.00    +0.000 A 
BRANCH   7  14
ATOM     13  C   UNL     1       0.278   3.243  19.749  0.00  0.00    +0.000 C 
ATOM     14  C   UNL     1       1.503   4.015  20.277  0.00  0.00    +0.000 C 
ATOM     15  C   UNL     1       2.073   3.465  21.597  0.00  0.00    +0.000 C 
ENDBRANCH   7  14
BRANCH  11  16
ATOM     16  C   UNL     1       5.207   6.318  17.426  0.00  0.00    +0.000 C 
ATOM     17  C   UNL     1       6.663   6.098  17.847  0.00  0.00    +0.000 C 
ATOM     18  C   UNL     1       5.160   6.581  15.908  0.00  0.00    +0.000 C 
ENDBRANCH  11  16
ENDBRANCH   1  12
BRANCH   4  19
ATOM     19  S   UNL     1       1.259   9.991  18.397  0.00  0.00    +0.000 S 
ATOM     20  O   UNL     1       2.242  10.695  17.598  0.00  0.00    +0.000 OA
ATOM     21  O   UNL     1       0.036   9.492  17.800  0.00  0.00    +0.000 OA
BRANCH  19  22
ATOM     22  C   UNL     1       0.759  11.155  19.669  0.00  0.00    +0.000 A 
ATOM     23  C   UNL     1      -0.339  11.158  20.521  0.00  0.00    +0.000 A 
ATOM     24  C   UNL     1      -0.236  12.285  21.391  0.00  0.00    +0.000 A 
ATOM     25  C   UNL     1       0.919  12.924  20.990  0.00  0.00    +0.000 A 
ATOM     26  O   UNL     1       1.526  12.262  19.976  0.00  0.00    +0.000 OA
BRANCH  24  27
ATOM     27  C   UNL     1      -1.173  12.693  22.499  0.00  0.00    +0.000 C 
ATOM     28  C   UNL     1      -2.297  13.599  21.977  0.00  0.00    +0.000 C 
ATOM     29  C   UNL     1      -1.767  11.465  23.198  0.00  0.00    +0.000 C 
BRANCH  27  30
ATOM     30  O   UNL     1      -0.476  13.432  23.510  0.00  0.00    +0.000 OA
ATOM     31  H   UNL     1      -0.403  12.852  24.287  0.00  0.00    +0.000 HD
ENDBRANCH  27  30
ENDBRANCH  24  27
ENDBRANCH  19  22
ENDBRANCH   4  19
TORSDOF 7
ENDMDL
