MODEL 1
REMARK VINA RESULT:      -8.2      0.000      0.000
REMARK  Name = 
REMARK  7 active torsions:
REMARK  status: ('A' for Active; 'I' for Inactive)
REMARK    1  A    between atoms: C_2  and  C_3
REMARK    2  A    between atoms: C_3  and  C_4
REMARK    3  A    between atoms: C_4  and  C_5
REMARK    4  A    between atoms: C_5  and  O_6
REMARK    5  A    between atoms: C_5  and  C_7
REMARK    6  A    between atoms: N_17  and  C_18
REMARK    7  A    between atoms: C_26  and  C_27
REMARK                            x       y       z     vdW  Elec       q    Type
REMARK                         _______ _______ _______ _____ _____    ______ ____
ROOT
ATOM      1  C   UNL     1       4.187   4.102  16.862  0.00  0.00    +0.000 C 
ATOM      2  C   UNL     1       4.165   2.718  17.556  0.00  0.00    +0.000 C 
ATOM      3  C   UNL     1       2.880   2.494  18.358  0.00  0.00    +0.000 C 
ATOM      4  C   UNL     1       2.463   3.631  19.299  0.00  0.00    +0.000 C 
ATOM      5  C   UNL     1       2.741   5.039  18.815  0.00  0.00    +0.000 C 
ATOM      6  C   UNL     1       1.956   6.080  19.217  0.00  0.00    +0.000 C 
ATOM      7  C   UNL     1       2.312   7.385  18.772  0.00  0.00    +0.000 A 
ATOM      8  C   UNL     1       3.273   7.648  17.844  0.00  0.00    +0.000 A 
ATOM      9  C   UNL     1       3.159   8.997  17.510  0.00  0.00    +0.000 A 
ATOM     10  N   UNL     1       2.176   9.574  18.194  0.00  0.00    +0.000 NA
ATOM     11  N   UNL     1       1.761   8.614  19.080  0.00  0.00    +0.000 N 
ATOM     12  C   UNL     1       4.080   6.598  17.247  0.00  0.00    +0.000 C 
ATOM     13  C   UNL     1       4.042   5.230  17.970  0.00  0.00    +0.000 C 
ATOM     14  C   UNL     1       5.204   5.188  18.995  0.00  0.00    +0.000 C 
ENDROOT
BRANCH  11  15
ATOM     15  C   UNL     1       0.985   9.037  20.180  0.00  0.00    +0.000 A 
ATOM     16  C   UNL     1       0.000  10.023  19.960  0.00  0.00    +0.000 A 
ATOM     17  C   UNL     1      -0.725  10.527  21.031  0.00  0.00    +0.000 A 
ATOM     18  C   UNL     1      -0.448  10.068  22.316  0.00  0.00    +0.000 A 
ATOM     19  F   UNL     1      -1.129  10.578  23.345  0.00  0.00    +0.000 F 
ATOM     20  C   UNL     1       0.547   9.122  22.546  0.00  0.00    +0.000 A 
ATOM     21  C   UNL     1       1.267   8.593  21.474  0.00  0.00    +0.000 A 
ENDBRANCH  11  15
BRANCH   1  22
ATOM     22  C   UNL     1       5.417   4.226  15.859  0.00  0.00    +0.000 C 
BRANCH  22  23
ATOM     23  O   UNL     1       6.221   3.042  15.975  0.00  0.00    +0.000 OA
ATOM     24  H   UNL     1       7.027   3.273  16.472  0.00  0.00    +0.000 HD
ENDBRANCH  22  23
BRANCH  22  25
ATOM     25  C   UNL     1       5.095   4.366  14.350  0.00  0.00    +0.000 C 
BRANCH  25  26
ATOM     26  C   UNL     1       6.246   4.101  13.376  0.00  0.00    +0.000 C 
BRANCH  26  28
ATOM     27  C   UNL     1       4.510   3.294  11.716  0.00  0.00    +0.000 C 
ATOM     28  C   UNL     1       5.740   3.225  12.247  0.00  0.00    +0.000 C 
ENDBRANCH  26  28
ENDBRANCH  25  26
ENDBRANCH  22  25
ENDBRANCH   1  22
TORSDOF 6
ENDMDL
MODEL 2
REMARK VINA RESULT:      -7.8      0.692      1.047
REMARK  Name = 
REMARK  7 active torsions:
REMARK  status: ('A' for Active; 'I' for Inactive)
REMARK    1  A    between atoms: C_2  and  C_3
REMARK    2  A    between atoms: C_3  and  C_4
REMARK    3  A    between atoms: C_4  and  C_5
REMARK    4  A    between atoms: C_5  and  O_6
REMARK    5  A    between atoms: C_5  and  C_7
REMARK    6  A    between atoms: N_17  and  C_18
REMARK    7  A    between atoms: C_26  and  C_27
REMARK                            x       y       z     vdW  Elec       q    Type
REMARK                         _______ _______ _______ _____ _____    ______ ____
ROOT
ATOM      1  C   UNL     1       4.309   4.358  17.300  0.00  0.00    +0.000 C 
ATOM      2  C   UNL     1       4.537   3.075  18.138  0.00  0.00    +0.000 C 
ATOM      3  C   UNL     1       3.384   2.808  19.109  0.00  0.00    +0.000 C 
ATOM      4  C   UNL     1       2.930   3.997  19.965  0.00  0.00    +0.000 C 
ATOM      5  C   UNL     1       2.974   5.357  19.301  0.00  0.00    +0.000 C 
ATOM      6  C   UNL     1       2.112   6.344  19.680  0.00  0.00    +0.000 C 
ATOM      7  C   UNL     1       2.250   7.616  19.057  0.00  0.00    +0.000 A 
ATOM      8  C   UNL     1       3.065   7.871  17.995  0.00  0.00    +0.000 A 
ATOM      9  C   UNL     1       2.747   9.147  17.533  0.00  0.00    +0.000 A 
ATOM     10  N   UNL     1       1.778   9.689  18.264  0.00  0.00    +0.000 NA
ATOM     11  N   UNL     1       1.585   8.803  19.293  0.00  0.00    +0.000 N 
ATOM     12  C   UNL     1       3.930   6.854  17.423  0.00  0.00    +0.000 C 
ATOM     13  C   UNL     1       4.142   5.589  18.288  0.00  0.00    +0.000 C 
ATOM     14  C   UNL     1       5.404   5.805  19.163  0.00  0.00    +0.000 C 
ENDROOT
BRANCH  11  15
ATOM     15  C   UNL     1       0.885   9.268  20.427  0.00  0.00    +0.000 A 
ATOM     16  C   UNL     1       0.339   8.312  21.310  0.00  0.00    +0.000 A 
ATOM     17  C   UNL     1      -0.428   8.727  22.391  0.00  0.00    +0.000 A 
ATOM     18  C   UNL     1      -0.671  10.086  22.569  0.00  0.00    +0.000 A 
ATOM     19  F   UNL     1      -1.434  10.476  23.594  0.00  0.00    +0.000 F 
ATOM     20  C   UNL     1      -0.166  11.033  21.682  0.00  0.00    +0.000 A 
ATOM     21  C   UNL     1       0.624  10.628  20.607  0.00  0.00    +0.000 A 
ENDBRANCH  11  15
BRANCH   1  22
ATOM     22  C   UNL     1       5.399   4.496  16.148  0.00  0.00    +0.000 C 
BRANCH  22  23
ATOM     23  O   UNL     1       6.580   3.784  16.548  0.00  0.00    +0.000 OA
ATOM     24  H   UNL     1       7.346   4.369  16.406  0.00  0.00    +0.000 HD
ENDBRANCH  22  23
BRANCH  22  25
ATOM     25  C   UNL     1       5.031   3.941  14.749  0.00  0.00    +0.000 C 
BRANCH  25  26
ATOM     26  C   UNL     1       6.162   3.873  13.719  0.00  0.00    +0.000 C 
BRANCH  26  28
ATOM     27  C   UNL     1       5.700   2.376  11.728  0.00  0.00    +0.000 C 
ATOM     28  C   UNL     1       5.569   3.551  12.362  0.00  0.00    +0.000 C 
ENDBRANCH  26  28
ENDBRANCH  25  26
ENDBRANCH  22  25
ENDBRANCH   1  22
TORSDOF 6
ENDMDL
MODEL 3
REMARK VINA RESULT:      -7.7      1.733      2.300
REMARK  Name = 
REMARK  7 active torsions:
REMARK  status: ('A' for Active; 'I' for Inactive)
REMARK    1  A    between atoms: C_2  and  C_3
REMARK    2  A    between atoms: C_3  and  C_4
REMARK    3  A    between atoms: C_4  and  C_5
REMARK    4  A    between atoms: C_5  and  O_6
REMARK    5  A    between atoms: C_5  and  C_7
REMARK    6  A    between atoms: N_17  and  C_18
REMARK    7  A    between atoms: C_26  and  C_27
REMARK                            x       y       z     vdW  Elec       q    Type
REMARK                         _______ _______ _______ _____ _____    ______ ____
ROOT
ATOM      1  C   UNL     1       3.931   3.875  17.828  0.00  0.00    +0.000 C 
ATOM      2  C   UNL     1       4.024   2.630  18.745  0.00  0.00    +0.000 C 
ATOM      3  C   UNL     1       2.810   2.503  19.669  0.00  0.00    +0.000 C 
ATOM      4  C   UNL     1       2.404   3.769  20.434  0.00  0.00    +0.000 C 
ATOM      5  C   UNL     1       2.580   5.082  19.699  0.00  0.00    +0.000 C 
ATOM      6  C   UNL     1       1.775   6.148  19.978  0.00  0.00    +0.000 C 
ATOM      7  C   UNL     1       2.037   7.368  19.293  0.00  0.00    +0.000 A 
ATOM      8  C   UNL     1       2.918   7.502  18.263  0.00  0.00    +0.000 A 
ATOM      9  C   UNL     1       2.717   8.768  17.716  0.00  0.00    +0.000 A 
ATOM     10  N   UNL     1       1.757   9.419  18.365  0.00  0.00    +0.000 NA
ATOM     11  N   UNL     1       1.450   8.611  19.430  0.00  0.00    +0.000 N 
ATOM     12  C   UNL     1       3.731   6.394  17.793  0.00  0.00    +0.000 C 
ATOM     13  C   UNL     1       3.809   5.171  18.736  0.00  0.00    +0.000 C 
ATOM     14  C   UNL     1       5.040   5.347  19.662  0.00  0.00    +0.000 C 
ENDROOT
BRANCH  11  15
ATOM     15  C   UNL     1       0.733   9.190  20.499  0.00  0.00    +0.000 A 
ATOM     16  C   UNL     1      -0.102  10.293  20.221  0.00  0.00    +0.000 A 
ATOM     17  C   UNL     1      -0.758  10.943  21.258  0.00  0.00    +0.000 A 
ATOM     18  C   UNL     1      -0.558  10.510  22.566  0.00  0.00    +0.000 A 
ATOM     19  F   UNL     1      -1.169  11.157  23.561  0.00  0.00    +0.000 F 
ATOM     20  C   UNL     1       0.292   9.444  22.852  0.00  0.00    +0.000 A 
ATOM     21  C   UNL     1       0.938   8.771  21.816  0.00  0.00    +0.000 A 
ENDBRANCH  11  15
BRANCH   1  22
ATOM     22  C   UNL     1       5.082   3.867  16.727  0.00  0.00    +0.000 C 
BRANCH  22  23
ATOM     23  O   UNL     1       4.661   4.680  15.621  0.00  0.00    +0.000 OA
ATOM     24  H   UNL     1       3.908   4.237  15.192  0.00  0.00    +0.000 HD
ENDBRANCH  22  23
BRANCH  22  25
ATOM     25  C   UNL     1       6.470   4.415  17.144  0.00  0.00    +0.000 C 
BRANCH  25  26
ATOM     26  C   UNL     1       7.071   5.507  16.255  0.00  0.00    +0.000 C 
BRANCH  26  28
ATOM     27  C   UNL     1       7.874   6.959  18.171  0.00  0.00    +0.000 C 
ATOM     28  C   UNL     1       7.154   6.795  17.051  0.00  0.00    +0.000 C 
ENDBRANCH  26  28
ENDBRANCH  25  26
ENDBRANCH  22  25
ENDBRANCH   1  22
TORSDOF 6
ENDMDL
MODEL 4
REMARK VINA RESULT:      -7.6      4.394      8.165
REMARK  Name = 
REMARK  7 active torsions:
REMARK  status: ('A' for Active; 'I' for Inactive)
REMARK    1  A    between atoms: C_2  and  C_3
REMARK    2  A    between atoms: C_3  and  C_4
REMARK    3  A    between atoms: C_4  and  C_5
REMARK    4  A    between atoms: C_5  and  O_6
REMARK    5  A    between atoms: C_5  and  C_7
REMARK    6  A    between atoms: N_17  and  C_18
REMARK    7  A    between atoms: C_26  and  C_27
REMARK                            x       y       z     vdW  Elec       q    Type
REMARK                         _______ _______ _______ _____ _____    ______ ____
ROOT
ATOM      1  C   UNL     1       0.507  11.688  20.730  0.00  0.00    +0.000 C 
ATOM      2  C   UNL     1      -0.585  11.796  21.823  0.00  0.00    +0.000 C 
ATOM      3  C   UNL     1      -0.498  10.657  22.841  0.00  0.00    +0.000 C 
ATOM      4  C   UNL     1      -0.381   9.241  22.264  0.00  0.00    +0.000 C 
ATOM      5  C   UNL     1       0.432   9.098  20.996  0.00  0.00    +0.000 C 
ATOM      6  C   UNL     1       1.083   7.932  20.714  0.00  0.00    +0.000 C 
ATOM      7  C   UNL     1       1.778   7.847  19.474  0.00  0.00    +0.000 A 
ATOM      8  C   UNL     1       1.981   8.897  18.630  0.00  0.00    +0.000 A 
ATOM      9  C   UNL     1       2.889   8.472  17.662  0.00  0.00    +0.000 A 
ATOM     10  N   UNL     1       3.249   7.210  17.870  0.00  0.00    +0.000 NA
ATOM     11  N   UNL     1       2.445   6.785  18.896  0.00  0.00    +0.000 N 
ATOM     12  C   UNL     1       1.445  10.220  18.899  0.00  0.00    +0.000 C 
ATOM     13  C   UNL     1       0.351  10.293  19.990  0.00  0.00    +0.000 C 
ATOM     14  C   UNL     1      -1.032  10.153  19.302  0.00  0.00    +0.000 C 
ENDROOT
BRANCH  11  15
ATOM     15  C   UNL     1       2.333   5.393  19.100  0.00  0.00    +0.000 A 
ATOM     16  C   UNL     1       1.920   4.593  18.015  0.00  0.00    +0.000 A 
ATOM     17  C   UNL     1       1.715   3.231  18.198  0.00  0.00    +0.000 A 
ATOM     18  C   UNL     1       1.896   2.681  19.464  0.00  0.00    +0.000 A 
ATOM     19  F   UNL     1       1.670   1.376  19.639  0.00  0.00    +0.000 F 
ATOM     20  C   UNL     1       2.269   3.471  20.548  0.00  0.00    +0.000 A 
ATOM     21  C   UNL     1       2.498   4.835  20.370  0.00  0.00    +0.000 A 
ENDBRANCH  11  15
BRANCH   1  22
ATOM     22  C   UNL     1       0.543  12.992  19.818  0.00  0.00    +0.000 C 
BRANCH  22  23
ATOM     23  O   UNL     1      -0.350  13.967  20.379  0.00  0.00    +0.000 OA
ATOM     24  H   UNL     1      -0.875  14.347  19.652  0.00  0.00    +0.000 HD
ENDBRANCH  22  23
BRANCH  22  25
ATOM     25  C   UNL     1       1.904  13.715  19.660  0.00  0.00    +0.000 C 
BRANCH  25  26
ATOM     26  C   UNL     1       2.606  13.566  18.307  0.00  0.00    +0.000 C 
BRANCH  26  28
ATOM     27  C   UNL     1       3.409  15.853  17.569  0.00  0.00    +0.000 C 
ATOM     28  C   UNL     1       3.633  14.672  18.165  0.00  0.00    +0.000 C 
ENDBRANCH  26  28
ENDBRANCH  25  26
ENDBRANCH  22  25
ENDBRANCH   1  22
TORSDOF 6
ENDMDL
MODEL 5
REMARK VINA RESULT:      -7.5      1.486      2.105
REMARK  Name = 
REMARK  7 active torsions:
REMARK  status: ('A' for Active; 'I' for Inactive)
REMARK    1  A    between atoms: C_2  and  C_3
REMARK    2  A    between atoms: C_3  and  C_4
REMARK    3  A    between atoms: C_4  and  C_5
REMARK    4  A    between atoms: C_5  and  O_6
REMARK    5  A    between atoms: C_5  and  C_7
REMARK    6  A    between atoms: N_17  and  C_18
REMARK    7  A    between atoms: C_26  and  C_27
REMARK                            x       y       z     vdW  Elec       q    Type
REMARK                         _______ _______ _______ _____ _____    ______ ____
ROOT
ATOM      1  C   UNL     1       3.775   3.852  18.098  0.00  0.00    +0.000 C 
ATOM      2  C   UNL     1       3.926   2.688  19.108  0.00  0.00    +0.000 C 
ATOM      3  C   UNL     1       2.782   2.654  20.125  0.00  0.00    +0.000 C 
ATOM      4  C   UNL     1       2.443   3.985  20.808  0.00  0.00    +0.000 C 
ATOM      5  C   UNL     1       2.573   5.229  19.954  0.00  0.00    +0.000 C 
ATOM      6  C   UNL     1       1.799   6.325  20.200  0.00  0.00    +0.000 C 
ATOM      7  C   UNL     1       2.017   7.480  19.397  0.00  0.00    +0.000 A 
ATOM      8  C   UNL     1       2.821   7.515  18.298  0.00  0.00    +0.000 A 
ATOM      9  C   UNL     1       2.588   8.734  17.661  0.00  0.00    +0.000 A 
ATOM     10  N   UNL     1       1.684   9.450  18.322  0.00  0.00    +0.000 NA
ATOM     11  N   UNL     1       1.451   8.738  19.470  0.00  0.00    +0.000 N 
ATOM     12  C   UNL     1       3.590   6.362  17.865  0.00  0.00    +0.000 C 
ATOM     13  C   UNL     1       3.728   5.221  18.900  0.00  0.00    +0.000 C 
ATOM     14  C   UNL     1       5.026   5.458  19.715  0.00  0.00    +0.000 C 
ENDROOT
BRANCH  11  15
ATOM     15  C   UNL     1       0.819   9.413  20.536  0.00  0.00    +0.000 A 
ATOM     16  C   UNL     1       0.378   8.652  21.639  0.00  0.00    +0.000 A 
ATOM     17  C   UNL     1      -0.324   9.266  22.668  0.00  0.00    +0.000 A 
ATOM     18  C   UNL     1      -0.606  10.626  22.580  0.00  0.00    +0.000 A 
ATOM     19  F   UNL     1      -1.306  11.205  23.560  0.00  0.00    +0.000 F 
ATOM     20  C   UNL     1      -0.205  11.378  21.479  0.00  0.00    +0.000 A 
ATOM     21  C   UNL     1       0.519  10.775  20.450  0.00  0.00    +0.000 A 
ENDBRANCH  11  15
BRANCH   1  22
ATOM     22  C   UNL     1       4.841   3.737  16.921  0.00  0.00    +0.000 C 
BRANCH  22  23
ATOM     23  O   UNL     1       4.901   2.369  16.491  0.00  0.00    +0.000 OA
ATOM     24  H   UNL     1       4.983   1.808  17.283  0.00  0.00    +0.000 HD
ENDBRANCH  22  23
BRANCH  22  25
ATOM     25  C   UNL     1       4.579   4.567  15.639  0.00  0.00    +0.000 C 
BRANCH  25  26
ATOM     26  C   UNL     1       5.668   5.565  15.235  0.00  0.00    +0.000 C 
BRANCH  26  28
ATOM     27  C   UNL     1       7.237   6.502  16.989  0.00  0.00    +0.000 C 
ATOM     28  C   UNL     1       6.804   5.482  16.234  0.00  0.00    +0.000 C 
ENDBRANCH  26  28
ENDBRANCH  25  26
ENDBRANCH  22  25
ENDBRANCH   1  22
TORSDOF 6
ENDMDL
MODEL 6
REMARK VINA RESULT:      -7.4      2.606      4.621
REMARK  Name = 
REMARK  7 active torsions:
REMARK  status: ('A' for Active; 'I' for Inactive)
REMARK    1  A    between atoms: C_2  and  C_3
REMARK    2  A    between atoms: C_3  and  C_4
REMARK    3  A    between atoms: C_4  and  C_5
REMARK    4  A    between atoms: C_5  and  O_6
REMARK    5  A    between atoms: C_5  and  C_7
REMARK    6  A    between atoms: N_17  and  C_18
REMARK    7  A    between atoms: C_26  and  C_27
REMARK                            x       y       z     vdW  Elec       q    Type
REMARK                         _______ _______ _______ _____ _____    ______ ____
ROOT
ATOM      1  C   UNL     1       4.151   4.857  18.678  0.00  0.00    +0.000 C 
ATOM      2  C   UNL     1       4.781   4.609  17.284  0.00  0.00    +0.000 C 
ATOM      3  C   UNL     1       5.205   5.912  16.602  0.00  0.00    +0.000 C 
ATOM      4  C   UNL     1       4.162   7.037  16.585  0.00  0.00    +0.000 C 
ATOM      5  C   UNL     1       3.280   7.153  17.809  0.00  0.00    +0.000 C 
ATOM      6  C   UNL     1       2.763   8.359  18.183  0.00  0.00    +0.000 C 
ATOM      7  C   UNL     1       1.891   8.384  19.308  0.00  0.00    +0.000 A 
ATOM      8  C   UNL     1       1.671   7.325  20.137  0.00  0.00    +0.000 A 
ATOM      9  C   UNL     1       0.958   7.807  21.234  0.00  0.00    +0.000 A 
ATOM     10  N   UNL     1       0.726   9.110  21.114  0.00  0.00    +0.000 NA
ATOM     11  N   UNL     1       1.170   9.426  19.856  0.00  0.00    +0.000 N 
ATOM     12  C   UNL     1       2.279   6.026  19.910  0.00  0.00    +0.000 C 
ATOM     13  C   UNL     1       2.892   5.808  18.506  0.00  0.00    +0.000 C 
ATOM     14  C   UNL     1       1.808   5.174  17.595  0.00  0.00    +0.000 C 
ENDROOT
BRANCH  11  15
ATOM     15  C   UNL     1       0.731  10.647  19.300  0.00  0.00    +0.000 A 
ATOM     16  C   UNL     1       1.655  11.709  19.212  0.00  0.00    +0.000 A 
ATOM     17  C   UNL     1       1.240  12.951  18.750  0.00  0.00    +0.000 A 
ATOM     18  C   UNL     1      -0.096  13.136  18.406  0.00  0.00    +0.000 A 
ATOM     19  F   UNL     1      -0.494  14.341  17.989  0.00  0.00    +0.000 F 
ATOM     20  C   UNL     1      -1.022  12.103  18.523  0.00  0.00    +0.000 A 
ATOM     21  C   UNL     1      -0.611  10.846  18.965  0.00  0.00    +0.000 A 
ENDBRANCH  11  15
BRANCH   1  22
ATOM     22  C   UNL     1       3.926   3.490  19.461  0.00  0.00    +0.000 C 
BRANCH  22  23
ATOM     23  O   UNL     1       5.205   2.884  19.699  0.00  0.00    +0.000 OA
ATOM     24  H   UNL     1       5.893   3.523  19.442  0.00  0.00    +0.000 HD
ENDBRANCH  22  23
BRANCH  22  25
ATOM     25  C   UNL     1       3.236   3.567  20.847  0.00  0.00    +0.000 C 
BRANCH  25  26
ATOM     26  C   UNL     1       2.099   2.574  21.103  0.00  0.00    +0.000 C 
BRANCH  26  28
ATOM     27  C   UNL     1       0.692   2.163  19.036  0.00  0.00    +0.000 C 
ATOM     28  C   UNL     1       0.964   2.871  20.143  0.00  0.00    +0.000 C 
ENDBRANCH  26  28
ENDBRANCH  25  26
ENDBRANCH  22  25
ENDBRANCH   1  22
TORSDOF 6
ENDMDL
MODEL 7
REMARK VINA RESULT:      -7.4      4.438      8.329
REMARK  Name = 
REMARK  7 active torsions:
REMARK  status: ('A' for Active; 'I' for Inactive)
REMARK    1  A    between atoms: C_2  and  C_3
REMARK    2  A    between atoms: C_3  and  C_4
REMARK    3  A    between atoms: C_4  and  C_5
REMARK    4  A    between atoms: C_5  and  O_6
REMARK    5  A    between atoms: C_5  and  C_7
REMARK    6  A    between atoms: N_17  and  C_18
REMARK    7  A    between atoms: C_26  and  C_27
REMARK                            x       y       z     vdW  Elec       q    Type
REMARK                         _______ _______ _______ _____ _____    ______ ____
ROOT
ATOM      1  C   UNL     1       0.698  12.072  19.711  0.00  0.00    +0.000 C 
ATOM      2  C   UNL     1      -0.389  12.467  20.741  0.00  0.00    +0.000 C 
ATOM      3  C   UNL     1      -0.348  11.585  21.991  0.00  0.00    +0.000 C 
ATOM      4  C   UNL     1      -0.287  10.072  21.751  0.00  0.00    +0.000 C 
ATOM      5  C   UNL     1       0.521   9.614  20.554  0.00  0.00    +0.000 C 
ATOM      6  C   UNL     1       1.125   8.391  20.550  0.00  0.00    +0.000 C 
ATOM      7  C   UNL     1       1.816   8.001  19.368  0.00  0.00    +0.000 A 
ATOM      8  C   UNL     1       2.061   8.824  18.310  0.00  0.00    +0.000 A 
ATOM      9  C   UNL     1       2.952   8.156  17.472  0.00  0.00    +0.000 A 
ATOM     10  N   UNL     1       3.262   6.960  17.963  0.00  0.00    +0.000 NA
ATOM     11  N   UNL     1       2.441   6.810  19.051  0.00  0.00    +0.000 N 
ATOM     12  C   UNL     1       1.579  10.193  18.268  0.00  0.00    +0.000 C 
ATOM     13  C   UNL     1       0.487  10.552  19.304  0.00  0.00    +0.000 C 
ATOM     14  C   UNL     1      -0.899  10.315  18.653  0.00  0.00    +0.000 C 
ENDROOT
BRANCH  11  15
ATOM     15  C   UNL     1       2.273   5.506  19.564  0.00  0.00    +0.000 A 
ATOM     16  C   UNL     1       1.855   4.492  18.677  0.00  0.00    +0.000 A 
ATOM     17  C   UNL     1       1.596   3.215  19.160  0.00  0.00    +0.000 A 
ATOM     18  C   UNL     1       1.730   2.964  20.522  0.00  0.00    +0.000 A 
ATOM     19  F   UNL     1       1.452   1.741  20.983  0.00  0.00    +0.000 F 
ATOM     20  C   UNL     1       2.109   3.968  21.409  0.00  0.00    +0.000 A 
ATOM     21  C   UNL     1       2.391   5.248  20.932  0.00  0.00    +0.000 A 
ENDBRANCH  11  15
BRANCH   1  22
ATOM     22  C   UNL     1       0.786  13.134  18.528  0.00  0.00    +0.000 C 
BRANCH  22  23
ATOM     23  O   UNL     1      -0.303  14.059  18.663  0.00  0.00    +0.000 OA
ATOM     24  H   UNL     1      -1.134  13.551  18.643  0.00  0.00    +0.000 HD
ENDBRANCH  22  23
BRANCH  22  25
ATOM     25  C   UNL     1       2.066  14.004  18.445  0.00  0.00    +0.000 C 
BRANCH  25  26
ATOM     26  C   UNL     1       2.958  14.031  19.688  0.00  0.00    +0.000 C 
BRANCH  26  28
ATOM     27  C   UNL     1       2.449  15.092  21.933  0.00  0.00    +0.000 C 
ATOM     28  C   UNL     1       2.500  15.158  20.594  0.00  0.00    +0.000 C 
ENDBRANCH  26  28
ENDBRANCH  25  26
ENDBRANCH  22  25
ENDBRANCH   1  22
TORSDOF 6
ENDMDL
MODEL 8
REMARK VINA RESULT:      -7.3      4.387      8.266
REMARK  Name = 
REMARK  7 active torsions:
REMARK  status: ('A' for Active; 'I' for Inactive)
REMARK    1  A    between atoms: C_2  and  C_3
REMARK    2  A    between atoms: C_3  and  C_4
REMARK    3  A    between atoms: C_4  and  C_5
REMARK    4  A    between atoms: C_5  and  O_6
REMARK    5  A    between atoms: C_5  and  C_7
REMARK    6  A    between atoms: N_17  and  C_18
REMARK    7  A    between atoms: C_26  and  C_27
REMARK                            x       y       z     vdW  Elec       q    Type
REMARK                         _______ _______ _______ _____ _____    ______ ____
ROOT
ATOM      1  C   UNL     1       0.216  11.965  19.977  0.00  0.00    +0.000 C 
ATOM      2  C   UNL     1      -0.849  12.207  21.076  0.00  0.00    +0.000 C 
ATOM      3  C   UNL     1      -0.616  11.328  22.308  0.00  0.00    +0.000 C 
ATOM      4  C   UNL     1      -0.374   9.837  22.041  0.00  0.00    +0.000 C 
ATOM      5  C   UNL     1       0.412   9.499  20.792  0.00  0.00    +0.000 C 
ATOM      6  C   UNL     1       1.170   8.366  20.732  0.00  0.00    +0.000 C 
ATOM      7  C   UNL     1       1.833   8.079  19.505  0.00  0.00    +0.000 A 
ATOM      8  C   UNL     1       1.903   8.935  18.448  0.00  0.00    +0.000 A 
ATOM      9  C   UNL     1       2.821   8.395  17.547  0.00  0.00    +0.000 A 
ATOM     10  N   UNL     1       3.313   7.247  18.001  0.00  0.00    +0.000 NA
ATOM     11  N   UNL     1       2.587   6.983  19.133  0.00  0.00    +0.000 N 
ATOM     12  C   UNL     1       1.244  10.229  18.455  0.00  0.00    +0.000 C 
ATOM     13  C   UNL     1       0.181  10.434  19.560  0.00  0.00    +0.000 C 
ATOM     14  C   UNL     1      -1.200  10.022  18.989  0.00  0.00    +0.000 C 
ENDROOT
BRANCH  11  15
ATOM     15  C   UNL     1       2.622   5.664  19.635  0.00  0.00    +0.000 A 
ATOM     16  C   UNL     1       1.661   5.292  20.599  0.00  0.00    +0.000 A 
ATOM     17  C   UNL     1       1.715   4.032  21.178  0.00  0.00    +0.000 A 
ATOM     18  C   UNL     1       2.739   3.160  20.816  0.00  0.00    +0.000 A 
ATOM     19  F   UNL     1       2.801   1.960  21.399  0.00  0.00    +0.000 F 
ATOM     20  C   UNL     1       3.711   3.532  19.892  0.00  0.00    +0.000 A 
ATOM     21  C   UNL     1       3.654   4.788  19.288  0.00  0.00    +0.000 A 
ENDBRANCH  11  15
BRANCH   1  22
ATOM     22  C   UNL     1       0.092  13.038  18.808  0.00  0.00    +0.000 C 
BRANCH  22  23
ATOM     23  O   UNL     1      -1.168  13.713  18.938  0.00  0.00    +0.000 OA
ATOM     24  H   UNL     1      -1.747  13.410  18.216  0.00  0.00    +0.000 HD
ENDBRANCH  22  23
BRANCH  22  25
ATOM     25  C   UNL     1       1.162  14.158  18.752  0.00  0.00    +0.000 C 
BRANCH  25  26
ATOM     26  C   UNL     1       2.624  13.715  18.853  0.00  0.00    +0.000 C 
BRANCH  26  28
ATOM     27  C   UNL     1       2.451  14.721  21.173  0.00  0.00    +0.000 C 
ATOM     28  C   UNL     1       3.144  14.057  20.236  0.00  0.00    +0.000 C 
ENDBRANCH  26  28
ENDBRANCH  25  26
ENDBRANCH  22  25
ENDBRANCH   1  22
TORSDOF 6
ENDMDL
MODEL 9
REMARK VINA RESULT:      -7.3      0.960      1.529
REMARK  Name = 
REMARK  7 active torsions:
REMARK  status: ('A' for Active; 'I' for Inactive)
REMARK    1  A    between atoms: C_2  and  C_3
REMARK    2  A    between atoms: C_3  and  C_4
REMARK    3  A    between atoms: C_4  and  C_5
REMARK    4  A    between atoms: C_5  and  O_6
REMARK    5  A    between atoms: C_5  and  C_7
REMARK    6  A    between atoms: N_17  and  C_18
REMARK    7  A    between atoms: C_26  and  C_27
REMARK                            x       y       z     vdW  Elec       q    Type
REMARK                         _______ _______ _______ _____ _____    ______ ____
ROOT
ATOM      1  C   UNL     1       3.728   3.802  18.141  0.00  0.00    +0.000 C 
ATOM      2  C   UNL     1       3.917   2.680  19.192  0.00  0.00    +0.000 C 
ATOM      3  C   UNL     1       2.795   2.669  20.233  0.00  0.00    +0.000 C 
ATOM      4  C   UNL     1       2.450   4.021  20.871  0.00  0.00    +0.000 C 
ATOM      5  C   UNL     1       2.543   5.233  19.967  0.00  0.00    +0.000 C 
ATOM      6  C   UNL     1       1.757   6.326  20.186  0.00  0.00    +0.000 C 
ATOM      7  C   UNL     1       1.942   7.453  19.336  0.00  0.00    +0.000 A 
ATOM      8  C   UNL     1       2.722   7.456  18.219  0.00  0.00    +0.000 A 
ATOM      9  C   UNL     1       2.459   8.646  17.541  0.00  0.00    +0.000 A 
ATOM     10  N   UNL     1       1.556   9.373  18.192  0.00  0.00    +0.000 NA
ATOM     11  N   UNL     1       1.358   8.704  19.372  0.00  0.00    +0.000 N 
ATOM     12  C   UNL     1       3.500   6.298  17.815  0.00  0.00    +0.000 C 
ATOM     13  C   UNL     1       3.677   5.200  18.891  0.00  0.00    +0.000 C 
ATOM     14  C   UNL     1       4.986   5.488  19.669  0.00  0.00    +0.000 C 
ENDROOT
BRANCH  11  15
ATOM     15  C   UNL     1       0.737   9.411  20.424  0.00  0.00    +0.000 A 
ATOM     16  C   UNL     1       0.904   8.929  21.739  0.00  0.00    +0.000 A 
ATOM     17  C   UNL     1       0.241   9.547  22.791  0.00  0.00    +0.000 A 
ATOM     18  C   UNL     1      -0.605  10.620  22.525  0.00  0.00    +0.000 A 
ATOM     19  F   UNL     1      -1.262  11.191  23.538  0.00  0.00    +0.000 F 
ATOM     20  C   UNL     1      -0.802  11.079  21.226  0.00  0.00    +0.000 A 
ATOM     21  C   UNL     1      -0.124  10.480  20.164  0.00  0.00    +0.000 A 
ENDBRANCH  11  15
BRANCH   1  22
ATOM     22  C   UNL     1       4.771   3.657  16.948  0.00  0.00    +0.000 C 
BRANCH  22  23
ATOM     23  O   UNL     1       4.861   2.271  16.586  0.00  0.00    +0.000 OA
ATOM     24  H   UNL     1       5.803   2.025  16.568  0.00  0.00    +0.000 HD
ENDBRANCH  22  23
BRANCH  22  25
ATOM     25  C   UNL     1       4.459   4.413  15.632  0.00  0.00    +0.000 C 
BRANCH  25  26
ATOM     26  C   UNL     1       5.626   5.152  14.972  0.00  0.00    +0.000 C 
BRANCH  26  28
ATOM     27  C   UNL     1       6.018   3.820  12.853  0.00  0.00    +0.000 C 
ATOM     28  C   UNL     1       6.386   4.180  14.092  0.00  0.00    +0.000 C 
ENDBRANCH  26  28
ENDBRANCH  25  26
ENDBRANCH  22  25
ENDBRANCH   1  22
TORSDOF 6
ENDMDL
