MODEL 1
REMARK VINA RESULT:      -6.8      0.000      0.000
REMARK  Name = 
REMARK  7 active torsions:
REMARK  status: ('A' for Active; 'I' for Inactive)
REMARK    1  A    between atoms: C_1  and  O_2
REMARK    2  A    between atoms: O_2  and  C_3
REMARK    3  A    between atoms: C_3  and  C_5
REMARK    4  A    between atoms: C_6  and  N_7
REMARK    5  A    between atoms: C_8  and  C_10
REMARK    6  A    between atoms: C_10  and  C_11
REMARK    7  A    between atoms: C_13  and  C_14
REMARK                            x       y       z     vdW  Elec       q    Type
REMARK                         _______ _______ _______ _____ _____    ______ ____
ROOT
ATOM      1  N   UNL     1       3.652   6.289  17.320  0.00  0.00    +0.000 N 
ATOM      2  C   UNL     1       5.017   6.497  17.191  0.00  0.00    +0.000 C 
ATOM      3  O   UNL     1       5.683   7.241  17.908  0.00  0.00    +0.000 OA
ATOM      4  H   UNL     1       3.274   5.393  17.041  0.00  0.00    +0.000 HD
ENDROOT
BRANCH   1   6
ATOM      5  C   UNL     1       2.492   6.594  19.580  0.00  0.00    +0.000 A 
ATOM      6  C   UNL     1       2.933   6.942  18.305  0.00  0.00    +0.000 A 
ATOM      7  S   UNL     1       2.539   8.557  17.858  0.00  0.00    +0.000 S 
ATOM      8  C   UNL     1       1.634   8.740  19.247  0.00  0.00    +0.000 A 
ATOM      9  C   UNL     1       1.697   7.669  20.093  0.00  0.00    +0.000 A 
ATOM     10  C   UNL     1       0.971   7.959  21.360  0.00  0.00    +0.000 C 
ATOM     11  C   UNL     1       0.139   9.227  20.992  0.00  0.00    +0.000 C 
ATOM     12  C   UNL     1       0.843   9.883  19.765  0.00  0.00    +0.000 C 
BRANCH   5  13
ATOM     13  C   UNL     1       2.874   5.383  20.305  0.00  0.00    +0.000 C 
ATOM     14  O   UNL     1       2.169   4.826  21.140  0.00  0.00    +0.000 OA
BRANCH  13  16
ATOM     15  C   UNL     1       4.066   3.502  19.536  0.00  0.00    +0.000 C 
ATOM     16  O   UNL     1       4.076   4.887  19.878  0.00  0.00    +0.000 OA
ENDBRANCH  13  16
ENDBRANCH   5  13
ENDBRANCH   1   6
BRANCH   2  17
ATOM     17  C   UNL     1       5.695   5.591  16.200  0.00  0.00    +0.000 C 
ATOM     18  C   UNL     1       5.226   5.541  14.936  0.00  0.00    +0.000 C 
BRANCH  18  19
ATOM     19  C   UNL     1       5.848   4.780  13.845  0.00  0.00    +0.000 A 
ATOM     20  C   UNL     1       5.188   3.688  13.272  0.00  0.00    +0.000 A 
ATOM     21  C   UNL     1       5.784   2.978  12.223  0.00  0.00    +0.000 A 
ATOM     22  C   UNL     1       7.038   3.345  11.749  0.00  0.00    +0.000 A 
ATOM     23  C   UNL     1       7.708   4.423  12.322  0.00  0.00    +0.000 A 
ATOM     24  C   UNL     1       7.115   5.139  13.368  0.00  0.00    +0.000 A 
ENDBRANCH  18  19
BRANCH  17  25
ATOM     25  C   UNL     1       6.956   4.835  16.585  0.00  0.00    +0.000 C 
ATOM     26  N   UNL     1       8.002   4.208  16.906  0.00  0.00    +0.000 NA
ENDBRANCH  17  25
ENDBRANCH   2  17
TORSDOF 6
ENDMDL
MODEL 2
REMARK VINA RESULT:      -6.8      2.788      8.549
REMARK  Name = 
REMARK  7 active torsions:
REMARK  status: ('A' for Active; 'I' for Inactive)
REMARK    1  A    between atoms: C_1  and  O_2
REMARK    2  A    between atoms: O_2  and  C_3
REMARK    3  A    between atoms: C_3  and  C_5
REMARK    4  A    between atoms: C_6  and  N_7
REMARK    5  A    between atoms: C_8  and  C_10
REMARK    6  A    between atoms: C_10  and  C_11
REMARK    7  A    between atoms: C_13  and  C_14
REMARK                            x       y       z     vdW  Elec       q    Type
REMARK                         _______ _______ _______ _____ _____    ______ ____
ROOT
ATOM      1  N   UNL     1       2.240   7.597  18.896  0.00  0.00    +0.000 N 
ATOM      2  C   UNL     1       1.800   8.770  18.302  0.00  0.00    +0.000 C 
ATOM      3  O   UNL     1       2.045   9.103  17.144  0.00  0.00    +0.000 OA
ATOM      4  H   UNL     1       1.669   7.182  19.622  0.00  0.00    +0.000 HD
ENDROOT
BRANCH   1   6
ATOM      5  C   UNL     1       2.928   5.337  17.913  0.00  0.00    +0.000 A 
ATOM      6  C   UNL     1       3.019   6.699  18.186  0.00  0.00    +0.000 A 
ATOM      7  S   UNL     1       4.375   7.461  17.449  0.00  0.00    +0.000 S 
ATOM      8  C   UNL     1       4.945   5.982  16.929  0.00  0.00    +0.000 A 
ATOM      9  C   UNL     1       4.103   4.940  17.196  0.00  0.00    +0.000 A 
ATOM     10  C   UNL     1       4.619   3.681  16.592  0.00  0.00    +0.000 C 
ATOM     11  C   UNL     1       6.095   4.052  16.244  0.00  0.00    +0.000 C 
ATOM     12  C   UNL     1       6.157   5.607  16.159  0.00  0.00    +0.000 C 
BRANCH   5  13
ATOM     13  C   UNL     1       1.775   4.489  18.212  0.00  0.00    +0.000 C 
ATOM     14  O   UNL     1       1.200   3.788  17.387  0.00  0.00    +0.000 OA
BRANCH  13  16
ATOM     15  C   UNL     1       2.354   3.743  20.371  0.00  0.00    +0.000 C 
ATOM     16  O   UNL     1       1.466   4.495  19.545  0.00  0.00    +0.000 OA
ENDBRANCH  13  16
ENDBRANCH   5  13
ENDBRANCH   1   6
BRANCH   2  17
ATOM     17  C   UNL     1       0.819   9.557  19.128  0.00  0.00    +0.000 C 
ATOM     18  C   UNL     1       1.126   9.837  20.411  0.00  0.00    +0.000 C 
BRANCH  18  19
ATOM     19  C   UNL     1       0.312  10.677  21.299  0.00  0.00    +0.000 A 
ATOM     20  C   UNL     1      -0.509  10.098  22.272  0.00  0.00    +0.000 A 
ATOM     21  C   UNL     1      -1.271  10.907  23.122  0.00  0.00    +0.000 A 
ATOM     22  C   UNL     1      -1.224  12.291  23.002  0.00  0.00    +0.000 A 
ATOM     23  C   UNL     1      -0.419  12.877  22.028  0.00  0.00    +0.000 A 
ATOM     24  C   UNL     1       0.347  12.072  21.178  0.00  0.00    +0.000 A 
ENDBRANCH  18  19
BRANCH  17  25
ATOM     25  C   UNL     1      -0.439  10.125  18.493  0.00  0.00    +0.000 C 
ATOM     26  N   UNL     1      -1.483  10.596  17.966  0.00  0.00    +0.000 NA
ENDBRANCH  17  25
ENDBRANCH   2  17
TORSDOF 6
ENDMDL
MODEL 3
REMARK VINA RESULT:      -6.8      2.778      8.568
REMARK  Name = 
REMARK  7 active torsions:
REMARK  status: ('A' for Active; 'I' for Inactive)
REMARK    1  A    between atoms: C_1  and  O_2
REMARK    2  A    between atoms: O_2  and  C_3
REMARK    3  A    between atoms: C_3  and  C_5
REMARK    4  A    between atoms: C_6  and  N_7
REMARK    5  A    between atoms: C_8  and  C_10
REMARK    6  A    between atoms: C_10  and  C_11
REMARK    7  A    between atoms: C_13  and  C_14
REMARK                            x       y       z     vdW  Elec       q    Type
REMARK                         _______ _______ _______ _____ _____    ______ ____
ROOT
ATOM      1  N   UNL     1       2.302   7.493  18.868  0.00  0.00    +0.000 N 
ATOM      2  C   UNL     1       1.886   8.692  18.309  0.00  0.00    +0.000 C 
ATOM      3  O   UNL     1       2.169   9.072  17.174  0.00  0.00    +0.000 OA
ATOM      4  H   UNL     1       1.707   7.052  19.558  0.00  0.00    +0.000 HD
ENDROOT
BRANCH   1   6
ATOM      5  C   UNL     1       3.035   5.261  17.854  0.00  0.00    +0.000 A 
ATOM      6  C   UNL     1       3.099   6.621  18.146  0.00  0.00    +0.000 A 
ATOM      7  S   UNL     1       4.440   7.419  17.421  0.00  0.00    +0.000 S 
ATOM      8  C   UNL     1       5.039   5.960  16.881  0.00  0.00    +0.000 A 
ATOM      9  C   UNL     1       4.218   4.897  17.133  0.00  0.00    +0.000 A 
ATOM     10  C   UNL     1       4.759   3.657  16.512  0.00  0.00    +0.000 C 
ATOM     11  C   UNL     1       6.228   4.062  16.170  0.00  0.00    +0.000 C 
ATOM     12  C   UNL     1       6.259   5.619  16.108  0.00  0.00    +0.000 C 
BRANCH   5  13
ATOM     13  C   UNL     1       1.899   4.387  18.140  0.00  0.00    +0.000 C 
ATOM     14  O   UNL     1       0.996   4.143  17.347  0.00  0.00    +0.000 OA
BRANCH  13  16
ATOM     15  C   UNL     1       1.068   4.253  20.341  0.00  0.00    +0.000 C 
ATOM     16  O   UNL     1       2.005   3.793  19.369  0.00  0.00    +0.000 OA
ENDBRANCH  13  16
ENDBRANCH   5  13
ENDBRANCH   1   6
BRANCH   2  17
ATOM     17  C   UNL     1       0.883   9.451  19.136  0.00  0.00    +0.000 C 
ATOM     18  C   UNL     1       1.171   9.715  20.426  0.00  0.00    +0.000 C 
BRANCH  18  19
ATOM     19  C   UNL     1       0.333  10.528  21.318  0.00  0.00    +0.000 A 
ATOM     20  C   UNL     1       0.283  11.918  21.177  0.00  0.00    +0.000 A 
ATOM     21  C   UNL     1      -0.529  12.682  22.023  0.00  0.00    +0.000 A 
ATOM     22  C   UNL     1      -1.285  12.067  23.014  0.00  0.00    +0.000 A 
ATOM     23  C   UNL     1      -1.233  10.684  23.170  0.00  0.00    +0.000 A 
ATOM     24  C   UNL     1      -0.426   9.915  22.324  0.00  0.00    +0.000 A 
ENDBRANCH  18  19
BRANCH  17  25
ATOM     25  C   UNL     1      -0.377  10.009  18.495  0.00  0.00    +0.000 C 
ATOM     26  N   UNL     1      -1.422  10.472  17.964  0.00  0.00    +0.000 NA
ENDBRANCH  17  25
ENDBRANCH   2  17
TORSDOF 6
ENDMDL
MODEL 4
REMARK VINA RESULT:      -6.5      2.675      4.714
REMARK  Name = 
REMARK  7 active torsions:
REMARK  status: ('A' for Active; 'I' for Inactive)
REMARK    1  A    between atoms: C_1  and  O_2
REMARK    2  A    between atoms: O_2  and  C_3
REMARK    3  A    between atoms: C_3  and  C_5
REMARK    4  A    between atoms: C_6  and  N_7
REMARK    5  A    between atoms: C_8  and  C_10
REMARK    6  A    between atoms: C_10  and  C_11
REMARK    7  A    between atoms: C_13  and  C_14
REMARK                            x       y       z     vdW  Elec       q    Type
REMARK                         _______ _______ _______ _____ _____    ______ ____
ROOT
ATOM      1  N   UNL     1       2.326   7.818  19.874  0.00  0.00    +0.000 N 
ATOM      2  C   UNL     1       2.159   6.449  20.017  0.00  0.00    +0.000 C 
ATOM      3  O   UNL     1       1.185   5.913  20.542  0.00  0.00    +0.000 OA
ATOM      4  H   UNL     1       2.864   8.158  19.085  0.00  0.00    +0.000 HD
ENDROOT
BRANCH   1   6
ATOM      5  C   UNL     1       0.555   9.660  19.743  0.00  0.00    +0.000 A 
ATOM      6  C   UNL     1       1.363   8.696  20.340  0.00  0.00    +0.000 A 
ATOM      7  S   UNL     1       1.082   8.512  22.028  0.00  0.00    +0.000 S 
ATOM      8  C   UNL     1       0.043   9.816  22.015  0.00  0.00    +0.000 A 
ATOM      9  C   UNL     1      -0.187  10.328  20.770  0.00  0.00    +0.000 A 
ATOM     10  C   UNL     1      -1.218  11.401  20.826  0.00  0.00    +0.000 C 
ATOM     11  C   UNL     1      -1.294  11.718  22.353  0.00  0.00    +0.000 C 
ATOM     12  C   UNL     1      -0.737  10.467  23.097  0.00  0.00    +0.000 C 
BRANCH   5  13
ATOM     13  C   UNL     1       0.413   9.871  18.303  0.00  0.00    +0.000 C 
ATOM     14  O   UNL     1      -0.661   9.982  17.722  0.00  0.00    +0.000 OA
BRANCH  13  16
ATOM     15  C   UNL     1       2.266  11.278  17.925  0.00  0.00    +0.000 C 
ATOM     16  O   UNL     1       1.625  10.026  17.685  0.00  0.00    +0.000 OA
ENDBRANCH  13  16
ENDBRANCH   5  13
ENDBRANCH   1   6
BRANCH   2  17
ATOM     17  C   UNL     1       3.193   5.617  19.307  0.00  0.00    +0.000 C 
ATOM     18  C   UNL     1       3.965   6.201  18.368  0.00  0.00    +0.000 C 
BRANCH  18  19
ATOM     19  C   UNL     1       5.074   5.537  17.670  0.00  0.00    +0.000 A 
ATOM     20  C   UNL     1       6.351   5.498  18.239  0.00  0.00    +0.000 A 
ATOM     21  C   UNL     1       7.398   4.852  17.572  0.00  0.00    +0.000 A 
ATOM     22  C   UNL     1       7.180   4.251  16.337  0.00  0.00    +0.000 A 
ATOM     23  C   UNL     1       5.914   4.296  15.758  0.00  0.00    +0.000 A 
ATOM     24  C   UNL     1       4.863   4.937  16.422  0.00  0.00    +0.000 A 
ENDBRANCH  18  19
BRANCH  17  25
ATOM     25  C   UNL     1       3.439   4.177  19.724  0.00  0.00    +0.000 C 
ATOM     26  N   UNL     1       3.644   2.982  20.071  0.00  0.00    +0.000 NA
ENDBRANCH  17  25
ENDBRANCH   2  17
TORSDOF 6
ENDMDL
MODEL 5
REMARK VINA RESULT:      -6.5      0.856      1.288
REMARK  Name = 
REMARK  7 active torsions:
REMARK  status: ('A' for Active; 'I' for Inactive)
REMARK    1  A    between atoms: C_1  and  O_2
REMARK    2  A    between atoms: O_2  and  C_3
REMARK    3  A    between atoms: C_3  and  C_5
REMARK    4  A    between atoms: C_6  and  N_7
REMARK    5  A    between atoms: C_8  and  C_10
REMARK    6  A    between atoms: C_10  and  C_11
REMARK    7  A    between atoms: C_13  and  C_14
REMARK                            x       y       z     vdW  Elec       q    Type
REMARK                         _______ _______ _______ _____ _____    ______ ____
ROOT
ATOM      1  N   UNL     1       3.715   6.480  17.491  0.00  0.00    +0.000 N 
ATOM      2  C   UNL     1       5.000   6.064  17.806  0.00  0.00    +0.000 C 
ATOM      3  O   UNL     1       5.498   6.120  18.929  0.00  0.00    +0.000 OA
ATOM      4  H   UNL     1       3.233   6.015  16.731  0.00  0.00    +0.000 HD
ENDROOT
BRANCH   1   6
ATOM      5  C   UNL     1       2.230   6.481  19.574  0.00  0.00    +0.000 A 
ATOM      6  C   UNL     1       2.889   7.009  18.466  0.00  0.00    +0.000 A 
ATOM      7  S   UNL     1       2.672   8.706  18.281  0.00  0.00    +0.000 S 
ATOM      8  C   UNL     1       1.570   8.721  19.532  0.00  0.00    +0.000 A 
ATOM      9  C   UNL     1       1.431   7.515  20.160  0.00  0.00    +0.000 A 
ATOM     10  C   UNL     1       0.531   7.640  21.340  0.00  0.00    +0.000 C 
ATOM     11  C   UNL     1      -0.152   9.023  21.101  0.00  0.00    +0.000 C 
ATOM     12  C   UNL     1       0.778   9.820  20.137  0.00  0.00    +0.000 C 
BRANCH   5  13
ATOM     13  C   UNL     1       2.415   5.132  20.105  0.00  0.00    +0.000 C 
ATOM     14  O   UNL     1       2.483   4.861  21.298  0.00  0.00    +0.000 OA
BRANCH  13  16
ATOM     15  C   UNL     1       1.263   3.338  19.099  0.00  0.00    +0.000 C 
ATOM     16  O   UNL     1       2.410   4.186  19.115  0.00  0.00    +0.000 OA
ENDBRANCH  13  16
ENDBRANCH   5  13
ENDBRANCH   1   6
BRANCH   2  17
ATOM     17  C   UNL     1       5.715   5.348  16.693  0.00  0.00    +0.000 C 
ATOM     18  C   UNL     1       5.193   5.391  15.451  0.00  0.00    +0.000 C 
BRANCH  18  19
ATOM     19  C   UNL     1       5.833   4.823  14.257  0.00  0.00    +0.000 A 
ATOM     20  C   UNL     1       7.091   5.272  13.842  0.00  0.00    +0.000 A 
ATOM     21  C   UNL     1       7.699   4.715  12.711  0.00  0.00    +0.000 A 
ATOM     22  C   UNL     1       7.055   3.720  11.986  0.00  0.00    +0.000 A 
ATOM     23  C   UNL     1       5.796   3.275  12.384  0.00  0.00    +0.000 A 
ATOM     24  C   UNL     1       5.186   3.825  13.517  0.00  0.00    +0.000 A 
ENDBRANCH  18  19
BRANCH  17  25
ATOM     25  C   UNL     1       7.061   4.688  16.943  0.00  0.00    +0.000 C 
ATOM     26  N   UNL     1       8.178   4.140  17.150  0.00  0.00    +0.000 NA
ENDBRANCH  17  25
ENDBRANCH   2  17
TORSDOF 6
ENDMDL
MODEL 6
REMARK VINA RESULT:      -6.5      3.288      5.011
REMARK  Name = 
REMARK  7 active torsions:
REMARK  status: ('A' for Active; 'I' for Inactive)
REMARK    1  A    between atoms: C_1  and  O_2
REMARK    2  A    between atoms: O_2  and  C_3
REMARK    3  A    between atoms: C_3  and  C_5
REMARK    4  A    between atoms: C_6  and  N_7
REMARK    5  A    between atoms: C_8  and  C_10
REMARK    6  A    between atoms: C_10  and  C_11
REMARK    7  A    between atoms: C_13  and  C_14
REMARK                            x       y       z     vdW  Elec       q    Type
REMARK                         _______ _______ _______ _____ _____    ______ ____
ROOT
ATOM      1  N   UNL     1       0.909   8.681  18.926  0.00  0.00    +0.000 N 
ATOM      2  C   UNL     1       1.992   8.843  18.075  0.00  0.00    +0.000 C 
ATOM      3  O   UNL     1       2.274   9.888  17.491  0.00  0.00    +0.000 OA
ATOM      4  H   UNL     1       0.987   8.010  19.680  0.00  0.00    +0.000 HD
ENDROOT
BRANCH   1   6
ATOM      5  C   UNL     1      -0.038  10.712  20.160  0.00  0.00    +0.000 A 
ATOM      6  C   UNL     1       0.046   9.734  19.172  0.00  0.00    +0.000 A 
ATOM      7  S   UNL     1      -1.161   9.880  17.954  0.00  0.00    +0.000 S 
ATOM      8  C   UNL     1      -1.905  11.102  18.812  0.00  0.00    +0.000 A 
ATOM      9  C   UNL     1      -1.225  11.482  19.935  0.00  0.00    +0.000 A 
ATOM     10  C   UNL     1      -1.883  12.655  20.573  0.00  0.00    +0.000 C 
ATOM     11  C   UNL     1      -3.278  12.685  19.874  0.00  0.00    +0.000 C 
ATOM     12  C   UNL     1      -3.123  11.902  18.535  0.00  0.00    +0.000 C 
BRANCH   5  13
ATOM     13  C   UNL     1       0.974  10.972  21.182  0.00  0.00    +0.000 C 
ATOM     14  O   UNL     1       1.491  12.065  21.381  0.00  0.00    +0.000 OA
BRANCH  13  16
ATOM     15  C   UNL     1       0.178   9.551  22.885  0.00  0.00    +0.000 C 
ATOM     16  O   UNL     1       1.214   9.870  21.958  0.00  0.00    +0.000 OA
ENDBRANCH  13  16
ENDBRANCH   5  13
ENDBRANCH   1   6
BRANCH   2  17
ATOM     17  C   UNL     1       2.940   7.676  18.043  0.00  0.00    +0.000 C 
ATOM     18  C   UNL     1       3.907   7.648  17.103  0.00  0.00    +0.000 C 
BRANCH  18  19
ATOM     19  C   UNL     1       4.958   6.625  17.016  0.00  0.00    +0.000 A 
ATOM     20  C   UNL     1       4.674   5.355  16.506  0.00  0.00    +0.000 A 
ATOM     21  C   UNL     1       5.685   4.391  16.415  0.00  0.00    +0.000 A 
ATOM     22  C   UNL     1       6.976   4.686  16.839  0.00  0.00    +0.000 A 
ATOM     23  C   UNL     1       7.265   5.945  17.360  0.00  0.00    +0.000 A 
ATOM     24  C   UNL     1       6.259   6.913  17.449  0.00  0.00    +0.000 A 
ENDBRANCH  18  19
BRANCH  17  25
ATOM     25  C   UNL     1       2.881   6.607  19.121  0.00  0.00    +0.000 C 
ATOM     26  N   UNL     1       2.832   5.720  20.016  0.00  0.00    +0.000 NA
ENDBRANCH  17  25
ENDBRANCH   2  17
TORSDOF 6
ENDMDL
MODEL 7
REMARK VINA RESULT:      -6.5      3.233      8.006
REMARK  Name = 
REMARK  7 active torsions:
REMARK  status: ('A' for Active; 'I' for Inactive)
REMARK    1  A    between atoms: C_1  and  O_2
REMARK    2  A    between atoms: O_2  and  C_3
REMARK    3  A    between atoms: C_3  and  C_5
REMARK    4  A    between atoms: C_6  and  N_7
REMARK    5  A    between atoms: C_8  and  C_10
REMARK    6  A    between atoms: C_10  and  C_11
REMARK    7  A    between atoms: C_13  and  C_14
REMARK                            x       y       z     vdW  Elec       q    Type
REMARK                         _______ _______ _______ _____ _____    ______ ____
ROOT
ATOM      1  N   UNL     1       2.321   7.062  20.083  0.00  0.00    +0.000 N 
ATOM      2  C   UNL     1       1.975   7.935  19.063  0.00  0.00    +0.000 C 
ATOM      3  O   UNL     1       1.921   7.635  17.872  0.00  0.00    +0.000 OA
ATOM      4  H   UNL     1       1.925   7.216  21.003  0.00  0.00    +0.000 HD
ENDROOT
BRANCH   1   6
ATOM      5  C   UNL     1       3.764   5.111  19.273  0.00  0.00    +0.000 A 
ATOM      6  C   UNL     1       2.643   5.746  19.802  0.00  0.00    +0.000 A 
ATOM      7  S   UNL     1       1.385   4.661  20.252  0.00  0.00    +0.000 S 
ATOM      8  C   UNL     1       2.225   3.383  19.585  0.00  0.00    +0.000 A 
ATOM      9  C   UNL     1       3.467   3.718  19.125  0.00  0.00    +0.000 A 
ATOM     10  C   UNL     1       4.199   2.506  18.664  0.00  0.00    +0.000 C 
ATOM     11  C   UNL     1       3.062   1.441  18.563  0.00  0.00    +0.000 C 
ATOM     12  C   UNL     1       1.900   1.940  19.475  0.00  0.00    +0.000 C 
BRANCH   5  13
ATOM     13  C   UNL     1       5.056   5.747  19.019  0.00  0.00    +0.000 C 
ATOM     14  O   UNL     1       6.091   5.473  19.615  0.00  0.00    +0.000 OA
BRANCH  13  16
ATOM     15  C   UNL     1       5.187   6.035  16.683  0.00  0.00    +0.000 C 
ATOM     16  O   UNL     1       4.998   6.624  17.969  0.00  0.00    +0.000 OA
ENDBRANCH  13  16
ENDBRANCH   5  13
ENDBRANCH   1   6
BRANCH   2  17
ATOM     17  C   UNL     1       1.479   9.276  19.531  0.00  0.00    +0.000 C 
ATOM     18  C   UNL     1       1.158  10.209  18.611  0.00  0.00    +0.000 C 
BRANCH  18  19
ATOM     19  C   UNL     1       0.571  11.519  18.921  0.00  0.00    +0.000 A 
ATOM     20  C   UNL     1      -0.812  11.660  19.078  0.00  0.00    +0.000 A 
ATOM     21  C   UNL     1      -1.360  12.910  19.387  0.00  0.00    +0.000 A 
ATOM     22  C   UNL     1      -0.538  14.022  19.532  0.00  0.00    +0.000 A 
ATOM     23  C   UNL     1       0.839  13.893  19.366  0.00  0.00    +0.000 A 
ATOM     24  C   UNL     1       1.392  12.645  19.061  0.00  0.00    +0.000 A 
ENDBRANCH  18  19
BRANCH  17  25
ATOM     25  C   UNL     1       1.233   9.533  21.009  0.00  0.00    +0.000 C 
ATOM     26  N   UNL     1       1.030   9.745  22.235  0.00  0.00    +0.000 NA
ENDBRANCH  17  25
ENDBRANCH   2  17
TORSDOF 6
ENDMDL
MODEL 8
REMARK VINA RESULT:      -6.5      3.160      5.352
REMARK  Name = 
REMARK  7 active torsions:
REMARK  status: ('A' for Active; 'I' for Inactive)
REMARK    1  A    between atoms: C_1  and  O_2
REMARK    2  A    between atoms: O_2  and  C_3
REMARK    3  A    between atoms: C_3  and  C_5
REMARK    4  A    between atoms: C_6  and  N_7
REMARK    5  A    between atoms: C_8  and  C_10
REMARK    6  A    between atoms: C_10  and  C_11
REMARK    7  A    between atoms: C_13  and  C_14
REMARK                            x       y       z     vdW  Elec       q    Type
REMARK                         _______ _______ _______ _____ _____    ______ ____
ROOT
ATOM      1  N   UNL     1       1.249   9.214  17.868  0.00  0.00    +0.000 N 
ATOM      2  C   UNL     1       1.832   8.350  18.783  0.00  0.00    +0.000 C 
ATOM      3  O   UNL     1       1.564   8.314  19.982  0.00  0.00    +0.000 OA
ATOM      4  H   UNL     1       1.163   8.909  16.906  0.00  0.00    +0.000 HD
ENDROOT
BRANCH   1   6
ATOM      5  C   UNL     1       0.318  11.269  19.074  0.00  0.00    +0.000 A 
ATOM      6  C   UNL     1       0.293  10.128  18.276  0.00  0.00    +0.000 A 
ATOM      7  S   UNL     1      -1.255   9.789  17.606  0.00  0.00    +0.000 S 
ATOM      8  C   UNL     1      -1.933  11.020  18.504  0.00  0.00    +0.000 A 
ATOM      9  C   UNL     1      -1.024  11.751  19.215  0.00  0.00    +0.000 A 
ATOM     10  C   UNL     1      -1.687  12.903  19.885  0.00  0.00    +0.000 C 
ATOM     11  C   UNL     1      -3.200  12.533  19.777  0.00  0.00    +0.000 C 
ATOM     12  C   UNL     1      -3.329  11.514  18.605  0.00  0.00    +0.000 C 
BRANCH   5  13
ATOM     13  C   UNL     1       1.524  11.921  19.582  0.00  0.00    +0.000 C 
ATOM     14  O   UNL     1       1.740  12.148  20.767  0.00  0.00    +0.000 OA
BRANCH  13  16
ATOM     15  C   UNL     1       2.508  13.528  18.166  0.00  0.00    +0.000 C 
ATOM     16  O   UNL     1       2.432  12.167  18.587  0.00  0.00    +0.000 OA
ENDBRANCH  13  16
ENDBRANCH   5  13
ENDBRANCH   1   6
BRANCH   2  17
ATOM     17  C   UNL     1       2.716   7.297  18.171  0.00  0.00    +0.000 C 
ATOM     18  C   UNL     1       3.930   7.657  17.708  0.00  0.00    +0.000 C 
BRANCH  18  19
ATOM     19  C   UNL     1       4.932   6.721  17.179  0.00  0.00    +0.000 A 
ATOM     20  C   UNL     1       5.872   6.129  18.028  0.00  0.00    +0.000 A 
ATOM     21  C   UNL     1       6.813   5.229  17.517  0.00  0.00    +0.000 A 
ATOM     22  C   UNL     1       6.827   4.921  16.161  0.00  0.00    +0.000 A 
ATOM     23  C   UNL     1       5.901   5.514  15.306  0.00  0.00    +0.000 A 
ATOM     24  C   UNL     1       4.956   6.412  15.813  0.00  0.00    +0.000 A 
ENDBRANCH  18  19
BRANCH  17  25
ATOM     25  C   UNL     1       2.294   5.837  18.182  0.00  0.00    +0.000 C 
ATOM     26  N   UNL     1       1.944   4.626  18.191  0.00  0.00    +0.000 NA
ENDBRANCH  17  25
ENDBRANCH   2  17
TORSDOF 6
ENDMDL
MODEL 9
REMARK VINA RESULT:      -6.5      2.717      4.833
REMARK  Name = 
REMARK  7 active torsions:
REMARK  status: ('A' for Active; 'I' for Inactive)
REMARK    1  A    between atoms: C_1  and  O_2
REMARK    2  A    between atoms: O_2  and  C_3
REMARK    3  A    between atoms: C_3  and  C_5
REMARK    4  A    between atoms: C_6  and  N_7
REMARK    5  A    between atoms: C_8  and  C_10
REMARK    6  A    between atoms: C_10  and  C_11
REMARK    7  A    between atoms: C_13  and  C_14
REMARK                            x       y       z     vdW  Elec       q    Type
REMARK                         _______ _______ _______ _____ _____    ______ ____
ROOT
ATOM      1  N   UNL     1       2.304   7.840  19.894  0.00  0.00    +0.000 N 
ATOM      2  C   UNL     1       2.128   6.470  20.021  0.00  0.00    +0.000 C 
ATOM      3  O   UNL     1       1.148   5.935  20.535  0.00  0.00    +0.000 OA
ATOM      4  H   UNL     1       2.848   8.184  19.112  0.00  0.00    +0.000 HD
ENDROOT
BRANCH   1   6
ATOM      5  C   UNL     1       0.562   9.709  19.778  0.00  0.00    +0.000 A 
ATOM      6  C   UNL     1       1.344   8.718  20.365  0.00  0.00    +0.000 A 
ATOM      7  S   UNL     1       1.028   8.494  22.041  0.00  0.00    +0.000 S 
ATOM      8  C   UNL     1       0.007   9.813  22.044  0.00  0.00    +0.000 A 
ATOM      9  C   UNL     1      -0.191  10.360  20.808  0.00  0.00    +0.000 A 
ATOM     10  C   UNL     1      -1.208  11.447  20.873  0.00  0.00    +0.000 C 
ATOM     11  C   UNL     1      -1.310  11.724  22.406  0.00  0.00    +0.000 C 
ATOM     12  C   UNL     1      -0.784  10.446  23.127  0.00  0.00    +0.000 C 
BRANCH   5  13
ATOM     13  C   UNL     1       0.451   9.961  18.342  0.00  0.00    +0.000 C 
ATOM     14  O   UNL     1       1.249   9.556  17.505  0.00  0.00    +0.000 OA
BRANCH  13  16
ATOM     15  C   UNL     1      -1.651   9.862  17.281  0.00  0.00    +0.000 C 
ATOM     16  O   UNL     1      -0.703  10.626  18.025  0.00  0.00    +0.000 OA
ENDBRANCH  13  16
ENDBRANCH   5  13
ENDBRANCH   1   6
BRANCH   2  17
ATOM     17  C   UNL     1       3.160   5.640  19.308  0.00  0.00    +0.000 C 
ATOM     18  C   UNL     1       3.932   6.225  18.370  0.00  0.00    +0.000 C 
BRANCH  18  19
ATOM     19  C   UNL     1       5.040   5.563  17.669  0.00  0.00    +0.000 A 
ATOM     20  C   UNL     1       6.327   5.557  18.216  0.00  0.00    +0.000 A 
ATOM     21  C   UNL     1       7.372   4.911  17.547  0.00  0.00    +0.000 A 
ATOM     22  C   UNL     1       7.143   4.278  16.330  0.00  0.00    +0.000 A 
ATOM     23  C   UNL     1       5.867   4.289  15.772  0.00  0.00    +0.000 A 
ATOM     24  C   UNL     1       4.818   4.930  16.439  0.00  0.00    +0.000 A 
ENDBRANCH  18  19
BRANCH  17  25
ATOM     25  C   UNL     1       3.405   4.198  19.720  0.00  0.00    +0.000 C 
ATOM     26  N   UNL     1       3.609   3.001  20.062  0.00  0.00    +0.000 NA
ENDBRANCH  17  25
ENDBRANCH   2  17
TORSDOF 6
ENDMDL
