MODEL 1
REMARK VINA RESULT:      -7.2      0.000      0.000
REMARK  Name = 
REMARK  5 active torsions:
REMARK  status: ('A' for Active; 'I' for Inactive)
REMARK    1  A    between atoms: C_1  and  O_2
REMARK    2  A    between atoms: O_2  and  C_3
REMARK    3  A    between atoms: C_7  and  N_8
REMARK    4  A    between atoms: N_8  and  C_9
REMARK    5  A    between atoms: C_15  and  C_16
REMARK                            x       y       z     vdW  Elec       q    Type
REMARK                         _______ _______ _______ _____ _____    ______ ____
ROOT
ATOM      1  N   UNL     1       5.206   3.287  18.925  0.00  0.00    +0.000 N 
ATOM      2  H   UNL     1       5.585   2.338  19.073  0.00  0.00    +0.000 HD
ENDROOT
BRANCH   1   3
ATOM      3  C   UNL     1       6.063   4.274  18.363  0.00  0.00    +0.000 A 
ATOM      4  N   UNL     1       6.779   5.111  19.174  0.00  0.00    +0.000 NA
ATOM      5  C   UNL     1       7.561   6.109  18.672  0.00  0.00    +0.000 A 
ATOM      6  N   UNL     1       7.658   6.295  17.324  0.00  0.00    +0.000 NA
ATOM      7  C   UNL     1       6.964   5.474  16.503  0.00  0.00    +0.000 A 
ATOM      8  S   UNL     1       6.952   5.505  14.828  0.00  0.00    +0.000 S 
ATOM      9  C   UNL     1       5.893   4.186  14.694  0.00  0.00    +0.000 A 
ATOM     10  C   UNL     1       5.424   3.596  13.407  0.00  0.00    +0.000 C 
ATOM     11  C   UNL     1       5.537   3.725  15.960  0.00  0.00    +0.000 A 
ATOM     12  C   UNL     1       6.154   4.462  16.980  0.00  0.00    +0.000 A 
ENDBRANCH   1   3
BRANCH   1  17
ATOM     13  C   UNL     1       2.073   4.970  20.069  0.00  0.00    +0.000 A 
ATOM     14  C   UNL     1       1.116   4.004  19.736  0.00  0.00    +0.000 A 
ATOM     15  C   UNL     1       1.500   2.803  19.141  0.00  0.00    +0.000 A 
ATOM     16  C   UNL     1       2.846   2.547  18.884  0.00  0.00    +0.000 A 
ATOM     17  C   UNL     1       3.827   3.506  19.206  0.00  0.00    +0.000 A 
ATOM     18  C   UNL     1       3.431   4.719  19.784  0.00  0.00    +0.000 A 
BRANCH  13  20
ATOM     19  C   UNL     1       1.918   7.394  20.210  0.00  0.00    +0.000 C 
ATOM     20  O   UNL     1       1.658   6.117  20.661  0.00  0.00    +0.000 OA
ENDBRANCH  13  20
ENDBRANCH   1  17
TORSDOF 3
ENDMDL
MODEL 2
REMARK VINA RESULT:      -7.1      1.613      1.938
REMARK  Name = 
REMARK  5 active torsions:
REMARK  status: ('A' for Active; 'I' for Inactive)
REMARK    1  A    between atoms: C_1  and  O_2
REMARK    2  A    between atoms: O_2  and  C_3
REMARK    3  A    between atoms: C_7  and  N_8
REMARK    4  A    between atoms: N_8  and  C_9
REMARK    5  A    between atoms: C_15  and  C_16
REMARK                            x       y       z     vdW  Elec       q    Type
REMARK                         _______ _______ _______ _____ _____    ______ ____
ROOT
ATOM      1  N   UNL     1       5.274   3.371  18.002  0.00  0.00    +0.000 N 
ATOM      2  H   UNL     1       5.712   2.455  18.185  0.00  0.00    +0.000 HD
ENDROOT
BRANCH   1   3
ATOM      3  C   UNL     1       6.076   4.399  17.432  0.00  0.00    +0.000 A 
ATOM      4  N   UNL     1       6.602   5.383  18.224  0.00  0.00    +0.000 NA
ATOM      5  C   UNL     1       7.322   6.419  17.704  0.00  0.00    +0.000 A 
ATOM      6  N   UNL     1       7.547   6.496  16.362  0.00  0.00    +0.000 NA
ATOM      7  C   UNL     1       7.041   5.529  15.562  0.00  0.00    +0.000 A 
ATOM      8  S   UNL     1       7.211   5.411  13.899  0.00  0.00    +0.000 S 
ATOM      9  C   UNL     1       6.323   3.970  13.792  0.00  0.00    +0.000 A 
ATOM     10  C   UNL     1       6.066   3.218  12.530  0.00  0.00    +0.000 C 
ATOM     11  C   UNL     1       5.881   3.583  15.056  0.00  0.00    +0.000 A 
ATOM     12  C   UNL     1       6.298   4.474  16.054  0.00  0.00    +0.000 A 
ENDBRANCH   1   3
BRANCH   1  17
ATOM     13  C   UNL     1       1.928   2.950  19.609  0.00  0.00    +0.000 A 
ATOM     14  C   UNL     1       1.136   3.767  18.793  0.00  0.00    +0.000 A 
ATOM     15  C   UNL     1       1.701   4.451  17.716  0.00  0.00    +0.000 A 
ATOM     16  C   UNL     1       3.059   4.315  17.435  0.00  0.00    +0.000 A 
ATOM     17  C   UNL     1       3.876   3.502  18.245  0.00  0.00    +0.000 A 
ATOM     18  C   UNL     1       3.306   2.837  19.338  0.00  0.00    +0.000 A 
BRANCH  13  20
ATOM     19  C   UNL     1       1.384   2.660  21.963  0.00  0.00    +0.000 C 
ATOM     20  O   UNL     1       1.335   2.290  20.636  0.00  0.00    +0.000 OA
ENDBRANCH  13  20
ENDBRANCH   1  17
TORSDOF 3
ENDMDL
MODEL 3
REMARK VINA RESULT:      -7.0      3.222      6.038
REMARK  Name = 
REMARK  5 active torsions:
REMARK  status: ('A' for Active; 'I' for Inactive)
REMARK    1  A    between atoms: C_1  and  O_2
REMARK    2  A    between atoms: O_2  and  C_3
REMARK    3  A    between atoms: C_7  and  N_8
REMARK    4  A    between atoms: N_8  and  C_9
REMARK    5  A    between atoms: C_15  and  C_16
REMARK                            x       y       z     vdW  Elec       q    Type
REMARK                         _______ _______ _______ _____ _____    ______ ____
ROOT
ATOM      1  N   UNL     1       4.804   4.993  17.036  0.00  0.00    +0.000 N 
ATOM      2  H   UNL     1       4.616   5.141  16.033  0.00  0.00    +0.000 HD
ENDROOT
BRANCH   1   3
ATOM      3  C   UNL     1       3.951   4.112  17.759  0.00  0.00    +0.000 A 
ATOM      4  N   UNL     1       3.949   2.773  17.482  0.00  0.00    +0.000 NA
ATOM      5  C   UNL     1       3.102   1.907  18.110  0.00  0.00    +0.000 A 
ATOM      6  N   UNL     1       2.227   2.362  19.051  0.00  0.00    +0.000 NA
ATOM      7  C   UNL     1       2.217   3.682  19.345  0.00  0.00    +0.000 A 
ATOM      8  S   UNL     1       1.249   4.453  20.476  0.00  0.00    +0.000 S 
ATOM      9  C   UNL     1       1.914   5.984  20.175  0.00  0.00    +0.000 A 
ATOM     10  C   UNL     1       1.524   7.237  20.884  0.00  0.00    +0.000 C 
ATOM     11  C   UNL     1       2.887   5.899  19.181  0.00  0.00    +0.000 A 
ATOM     12  C   UNL     1       3.053   4.587  18.720  0.00  0.00    +0.000 A 
ENDBRANCH   1   3
BRANCH   1  17
ATOM     13  C   UNL     1       7.475   7.521  17.693  0.00  0.00    +0.000 A 
ATOM     14  C   UNL     1       8.204   6.882  18.703  0.00  0.00    +0.000 A 
ATOM     15  C   UNL     1       7.820   5.623  19.164  0.00  0.00    +0.000 A 
ATOM     16  C   UNL     1       6.711   4.982  18.611  0.00  0.00    +0.000 A 
ATOM     17  C   UNL     1       5.960   5.608  17.597  0.00  0.00    +0.000 A 
ATOM     18  C   UNL     1       6.339   6.883  17.155  0.00  0.00    +0.000 A 
BRANCH  13  20
ATOM     19  C   UNL     1       8.458   9.718  18.052  0.00  0.00    +0.000 C 
ATOM     20  O   UNL     1       7.893   8.738  17.263  0.00  0.00    +0.000 OA
ENDBRANCH  13  20
ENDBRANCH   1  17
TORSDOF 3
ENDMDL
MODEL 4
REMARK VINA RESULT:      -6.9      3.971      6.733
REMARK  Name = 
REMARK  5 active torsions:
REMARK  status: ('A' for Active; 'I' for Inactive)
REMARK    1  A    between atoms: C_1  and  O_2
REMARK    2  A    between atoms: O_2  and  C_3
REMARK    3  A    between atoms: C_7  and  N_8
REMARK    4  A    between atoms: N_8  and  C_9
REMARK    5  A    between atoms: C_15  and  C_16
REMARK                            x       y       z     vdW  Elec       q    Type
REMARK                         _______ _______ _______ _____ _____    ______ ____
ROOT
ATOM      1  N   UNL     1       2.266   6.442  20.568  0.00  0.00    +0.000 N 
ATOM      2  H   UNL     1       2.702   6.552  21.496  0.00  0.00    +0.000 HD
ENDROOT
BRANCH   1   3
ATOM      3  C   UNL     1       1.931   7.617  19.838  0.00  0.00    +0.000 A 
ATOM      4  N   UNL     1       2.384   7.787  18.559  0.00  0.00    +0.000 NA
ATOM      5  C   UNL     1       2.135   8.927  17.851  0.00  0.00    +0.000 A 
ATOM      6  N   UNL     1       1.408   9.938  18.407  0.00  0.00    +0.000 NA
ATOM      7  C   UNL     1       0.944   9.786  19.669  0.00  0.00    +0.000 A 
ATOM      8  S   UNL     1       0.017  10.880  20.536  0.00  0.00    +0.000 S 
ATOM      9  C   UNL     1      -0.091   9.883  21.905  0.00  0.00    +0.000 A 
ATOM     10  C   UNL     1      -0.838  10.222  23.150  0.00  0.00    +0.000 C 
ATOM     11  C   UNL     1       0.608   8.696  21.691  0.00  0.00    +0.000 A 
ATOM     12  C   UNL     1       1.188   8.651  20.417  0.00  0.00    +0.000 A 
ENDBRANCH   1   3
BRANCH   1  17
ATOM     13  C   UNL     1       2.980   3.327  18.633  0.00  0.00    +0.000 A 
ATOM     14  C   UNL     1       1.915   2.513  19.036  0.00  0.00    +0.000 A 
ATOM     15  C   UNL     1       0.963   2.989  19.938  0.00  0.00    +0.000 A 
ATOM     16  C   UNL     1       1.058   4.288  20.437  0.00  0.00    +0.000 A 
ATOM     17  C   UNL     1       2.124   5.123  20.049  0.00  0.00    +0.000 A 
ATOM     18  C   UNL     1       3.088   4.630  19.160  0.00  0.00    +0.000 A 
BRANCH  13  20
ATOM     19  C   UNL     1       4.645   3.578  16.875  0.00  0.00    +0.000 C 
ATOM     20  O   UNL     1       3.874   2.831  17.741  0.00  0.00    +0.000 OA
ENDBRANCH  13  20
ENDBRANCH   1  17
TORSDOF 3
ENDMDL
MODEL 5
REMARK VINA RESULT:      -6.9      3.255      6.029
REMARK  Name = 
REMARK  5 active torsions:
REMARK  status: ('A' for Active; 'I' for Inactive)
REMARK    1  A    between atoms: C_1  and  O_2
REMARK    2  A    between atoms: O_2  and  C_3
REMARK    3  A    between atoms: C_7  and  N_8
REMARK    4  A    between atoms: N_8  and  C_9
REMARK    5  A    between atoms: C_15  and  C_16
REMARK                            x       y       z     vdW  Elec       q    Type
REMARK                         _______ _______ _______ _____ _____    ______ ____
ROOT
ATOM      1  N   UNL     1       3.717   3.581  17.439  0.00  0.00    +0.000 N 
ATOM      2  H   UNL     1       3.175   2.888  16.901  0.00  0.00    +0.000 HD
ENDROOT
BRANCH   1   3
ATOM      3  C   UNL     1       3.201   4.013  18.693  0.00  0.00    +0.000 A 
ATOM      4  N   UNL     1       3.056   3.125  19.722  0.00  0.00    +0.000 NA
ATOM      5  C   UNL     1       2.507   3.488  20.918  0.00  0.00    +0.000 A 
ATOM      6  N   UNL     1       2.092   4.771  21.123  0.00  0.00    +0.000 NA
ATOM      7  C   UNL     1       2.234   5.668  20.120  0.00  0.00    +0.000 A 
ATOM      8  S   UNL     1       1.818   7.291  20.157  0.00  0.00    +0.000 S 
ATOM      9  C   UNL     1       2.346   7.584  18.572  0.00  0.00    +0.000 A 
ATOM     10  C   UNL     1       2.303   8.909  17.890  0.00  0.00    +0.000 C 
ATOM     11  C   UNL     1       2.839   6.410  18.005  0.00  0.00    +0.000 A 
ATOM     12  C   UNL     1       2.774   5.330  18.894  0.00  0.00    +0.000 A 
ENDBRANCH   1   3
BRANCH   1  17
ATOM     13  C   UNL     1       6.440   4.369  15.006  0.00  0.00    +0.000 A 
ATOM     14  C   UNL     1       7.455   4.795  15.871  0.00  0.00    +0.000 A 
ATOM     15  C   UNL     1       7.245   4.819  17.250  0.00  0.00    +0.000 A 
ATOM     16  C   UNL     1       6.024   4.406  17.781  0.00  0.00    +0.000 A 
ATOM     17  C   UNL     1       4.987   3.978  16.928  0.00  0.00    +0.000 A 
ATOM     18  C   UNL     1       5.198   3.977  15.543  0.00  0.00    +0.000 A 
BRANCH  13  20
ATOM     19  C   UNL     1       6.034   3.567  12.745  0.00  0.00    +0.000 C 
ATOM     20  O   UNL     1       6.692   4.346  13.673  0.00  0.00    +0.000 OA
ENDBRANCH  13  20
ENDBRANCH   1  17
TORSDOF 3
ENDMDL
MODEL 6
REMARK VINA RESULT:      -6.9      3.080      5.688
REMARK  Name = 
REMARK  5 active torsions:
REMARK  status: ('A' for Active; 'I' for Inactive)
REMARK    1  A    between atoms: C_1  and  O_2
REMARK    2  A    between atoms: O_2  and  C_3
REMARK    3  A    between atoms: C_7  and  N_8
REMARK    4  A    between atoms: N_8  and  C_9
REMARK    5  A    between atoms: C_15  and  C_16
REMARK                            x       y       z     vdW  Elec       q    Type
REMARK                         _______ _______ _______ _____ _____    ______ ____
ROOT
ATOM      1  N   UNL     1       3.391   3.794  17.416  0.00  0.00    +0.000 N 
ATOM      2  H   UNL     1       2.781   3.201  16.833  0.00  0.00    +0.000 HD
ENDROOT
BRANCH   1   3
ATOM      3  C   UNL     1       2.902   4.226  18.681  0.00  0.00    +0.000 A 
ATOM      4  N   UNL     1       2.712   3.325  19.692  0.00  0.00    +0.000 NA
ATOM      5  C   UNL     1       2.186   3.691  20.897  0.00  0.00    +0.000 A 
ATOM      6  N   UNL     1       1.840   4.989  21.130  0.00  0.00    +0.000 NA
ATOM      7  C   UNL     1       2.027   5.899  20.146  0.00  0.00    +0.000 A 
ATOM      8  S   UNL     1       1.697   7.540  20.219  0.00  0.00    +0.000 S 
ATOM      9  C   UNL     1       2.236   7.838  18.639  0.00  0.00    +0.000 A 
ATOM     10  C   UNL     1       2.262   9.179  17.985  0.00  0.00    +0.000 C 
ATOM     11  C   UNL     1       2.665   6.653  18.045  0.00  0.00    +0.000 A 
ATOM     12  C   UNL     1       2.545   5.558  18.911  0.00  0.00    +0.000 A 
ENDBRANCH   1   3
BRANCH   1  17
ATOM     13  C   UNL     1       7.049   4.551  17.454  0.00  0.00    +0.000 A 
ATOM     14  C   UNL     1       7.341   4.522  16.085  0.00  0.00    +0.000 A 
ATOM     15  C   UNL     1       6.337   4.258  15.153  0.00  0.00    +0.000 A 
ATOM     16  C   UNL     1       5.028   4.034  15.577  0.00  0.00    +0.000 A 
ATOM     17  C   UNL     1       4.712   4.053  16.951  0.00  0.00    +0.000 A 
ATOM     18  C   UNL     1       5.730   4.297  17.881  0.00  0.00    +0.000 A 
BRANCH  13  20
ATOM     19  C   UNL     1       7.971   5.695  19.393  0.00  0.00    +0.000 C 
ATOM     20  O   UNL     1       8.052   4.827  18.325  0.00  0.00    +0.000 OA
ENDBRANCH  13  20
ENDBRANCH   1  17
TORSDOF 3
ENDMDL
MODEL 7
REMARK VINA RESULT:      -6.9      4.114      6.851
REMARK  Name = 
REMARK  5 active torsions:
REMARK  status: ('A' for Active; 'I' for Inactive)
REMARK    1  A    between atoms: C_1  and  O_2
REMARK    2  A    between atoms: O_2  and  C_3
REMARK    3  A    between atoms: C_7  and  N_8
REMARK    4  A    between atoms: N_8  and  C_9
REMARK    5  A    between atoms: C_15  and  C_16
REMARK                            x       y       z     vdW  Elec       q    Type
REMARK                         _______ _______ _______ _____ _____    ______ ____
ROOT
ATOM      1  N   UNL     1       2.551   6.584  19.998  0.00  0.00    +0.000 N 
ATOM      2  H   UNL     1       2.508   6.437  21.018  0.00  0.00    +0.000 HD
ENDROOT
BRANCH   1   3
ATOM      3  C   UNL     1       2.060   7.814  19.474  0.00  0.00    +0.000 A 
ATOM      4  N   UNL     1       2.360   8.186  18.193  0.00  0.00    +0.000 NA
ATOM      5  C   UNL     1       1.961   9.385  17.677  0.00  0.00    +0.000 A 
ATOM      6  N   UNL     1       1.231  10.251  18.436  0.00  0.00    +0.000 NA
ATOM      7  C   UNL     1       0.917   9.899  19.704  0.00  0.00    +0.000 A 
ATOM      8  S   UNL     1       0.018  10.791  20.801  0.00  0.00    +0.000 S 
ATOM      9  C   UNL     1       0.126   9.618  22.022  0.00  0.00    +0.000 A 
ATOM     10  C   UNL     1      -0.505   9.729  23.369  0.00  0.00    +0.000 C 
ATOM     11  C   UNL     1       0.875   8.530  21.579  0.00  0.00    +0.000 A 
ATOM     12  C   UNL     1       1.317   8.699  20.260  0.00  0.00    +0.000 A 
ENDBRANCH   1   3
BRANCH   1  17
ATOM     13  C   UNL     1       5.238   4.463  18.503  0.00  0.00    +0.000 A 
ATOM     14  C   UNL     1       4.482   3.603  17.698  0.00  0.00    +0.000 A 
ATOM     15  C   UNL     1       3.093   3.724  17.644  0.00  0.00    +0.000 A 
ATOM     16  C   UNL     1       2.446   4.713  18.384  0.00  0.00    +0.000 A 
ATOM     17  C   UNL     1       3.187   5.586  19.205  0.00  0.00    +0.000 A 
ATOM     18  C   UNL     1       4.579   5.444  19.271  0.00  0.00    +0.000 A 
BRANCH  13  20
ATOM     19  C   UNL     1       7.504   5.351  18.463  0.00  0.00    +0.000 C 
ATOM     20  O   UNL     1       6.587   4.322  18.514  0.00  0.00    +0.000 OA
ENDBRANCH  13  20
ENDBRANCH   1  17
TORSDOF 3
ENDMDL
MODEL 8
REMARK VINA RESULT:      -6.8      2.972      5.117
REMARK  Name = 
REMARK  5 active torsions:
REMARK  status: ('A' for Active; 'I' for Inactive)
REMARK    1  A    between atoms: C_1  and  O_2
REMARK    2  A    between atoms: O_2  and  C_3
REMARK    3  A    between atoms: C_7  and  N_8
REMARK    4  A    between atoms: N_8  and  C_9
REMARK    5  A    between atoms: C_15  and  C_16
REMARK                            x       y       z     vdW  Elec       q    Type
REMARK                         _______ _______ _______ _____ _____    ______ ____
ROOT
ATOM      1  N   UNL     1       2.747   6.580  20.244  0.00  0.00    +0.000 N 
ATOM      2  H   UNL     1       3.520   6.749  20.906  0.00  0.00    +0.000 HD
ENDROOT
BRANCH   1   3
ATOM      3  C   UNL     1       2.350   5.235  19.999  0.00  0.00    +0.000 A 
ATOM      4  N   UNL     1       1.380   4.651  20.767  0.00  0.00    +0.000 NA
ATOM      5  C   UNL     1       1.019   3.346  20.604  0.00  0.00    +0.000 A 
ATOM      6  N   UNL     1       1.618   2.580  19.648  0.00  0.00    +0.000 NA
ATOM      7  C   UNL     1       2.574   3.141  18.872  0.00  0.00    +0.000 A 
ATOM      8  S   UNL     1       3.422   2.400  17.631  0.00  0.00    +0.000 S 
ATOM      9  C   UNL     1       4.319   3.790  17.256  0.00  0.00    +0.000 A 
ATOM     10  C   UNL     1       5.328   3.885  16.161  0.00  0.00    +0.000 C 
ATOM     11  C   UNL     1       3.967   4.835  18.109  0.00  0.00    +0.000 A 
ATOM     12  C   UNL     1       2.973   4.455  19.020  0.00  0.00    +0.000 A 
ENDBRANCH   1   3
BRANCH   1  17
ATOM     13  C   UNL     1       0.577   9.614  20.030  0.00  0.00    +0.000 A 
ATOM     14  C   UNL     1       0.763   9.981  18.692  0.00  0.00    +0.000 A 
ATOM     15  C   UNL     1       1.596   9.230  17.862  0.00  0.00    +0.000 A 
ATOM     16  C   UNL     1       2.242   8.098  18.356  0.00  0.00    +0.000 A 
ATOM     17  C   UNL     1       2.074   7.712  19.701  0.00  0.00    +0.000 A 
ATOM     18  C   UNL     1       1.253   8.484  20.534  0.00  0.00    +0.000 A 
BRANCH  13  20
ATOM     19  C   UNL     1       0.021  11.620  21.289  0.00  0.00    +0.000 C 
ATOM     20  O   UNL     1      -0.255  10.362  20.797  0.00  0.00    +0.000 OA
ENDBRANCH  13  20
ENDBRANCH   1  17
TORSDOF 3
ENDMDL
MODEL 9
REMARK VINA RESULT:      -6.8      2.681      4.647
REMARK  Name = 
REMARK  5 active torsions:
REMARK  status: ('A' for Active; 'I' for Inactive)
REMARK    1  A    between atoms: C_1  and  O_2
REMARK    2  A    between atoms: O_2  and  C_3
REMARK    3  A    between atoms: C_7  and  N_8
REMARK    4  A    between atoms: N_8  and  C_9
REMARK    5  A    between atoms: C_15  and  C_16
REMARK                            x       y       z     vdW  Elec       q    Type
REMARK                         _______ _______ _______ _____ _____    ______ ____
ROOT
ATOM      1  N   UNL     1       2.735   6.433  19.977  0.00  0.00    +0.000 N 
ATOM      2  H   UNL     1       3.230   6.291  20.871  0.00  0.00    +0.000 HD
ENDROOT
BRANCH   1   3
ATOM      3  C   UNL     1       2.728   5.367  19.034  0.00  0.00    +0.000 A 
ATOM      4  N   UNL     1       1.675   4.495  18.986  0.00  0.00    +0.000 NA
ATOM      5  C   UNL     1       1.662   3.426  18.138  0.00  0.00    +0.000 A 
ATOM      6  N   UNL     1       2.712   3.201  17.297  0.00  0.00    +0.000 NA
ATOM      7  C   UNL     1       3.760   4.056  17.323  0.00  0.00    +0.000 A 
ATOM      8  S   UNL     1       5.136   3.988  16.369  0.00  0.00    +0.000 S 
ATOM      9  C   UNL     1       5.819   5.384  17.049  0.00  0.00    +0.000 A 
ATOM     10  C   UNL     1       7.124   5.980  16.642  0.00  0.00    +0.000 C 
ATOM     11  C   UNL     1       4.978   5.901  18.033  0.00  0.00    +0.000 A 
ATOM     12  C   UNL     1       3.810   5.141  18.177  0.00  0.00    +0.000 A 
ENDBRANCH   1   3
BRANCH   1  17
ATOM     13  C   UNL     1       0.590   9.394  20.740  0.00  0.00    +0.000 A 
ATOM     14  C   UNL     1       0.618  10.068  19.513  0.00  0.00    +0.000 A 
ATOM     15  C   UNL     1       1.338   9.547  18.437  0.00  0.00    +0.000 A 
ATOM     16  C   UNL     1       2.026   8.341  18.572  0.00  0.00    +0.000 A 
ATOM     17  C   UNL     1       2.015   7.649  19.799  0.00  0.00    +0.000 A 
ATOM     18  C   UNL     1       1.308   8.190  20.881  0.00  0.00    +0.000 A 
BRANCH  13  20
ATOM     19  C   UNL     1      -0.068   9.546  23.078  0.00  0.00    +0.000 C 
ATOM     20  O   UNL     1      -0.136   9.928  21.755  0.00  0.00    +0.000 OA
ENDBRANCH  13  20
ENDBRANCH   1  17
TORSDOF 3
ENDMDL
