MODEL 1
REMARK VINA RESULT:      -8.3      0.000      0.000
REMARK  Name = 
REMARK  3 active torsions:
REMARK  status: ('A' for Active; 'I' for Inactive)
REMARK    1  A    between atoms: C_1  and  C_2
REMARK    2  A    between atoms: C_3  and  C_4
REMARK    3  A    between atoms: C_10  and  C_11
REMARK                            x       y       z     vdW  Elec       q    Type
REMARK                         _______ _______ _______ _____ _____    ______ ____
ROOT
ATOM      1  C   UNL     1       4.848   3.663  15.809  0.00  0.00    +0.000 C 
ATOM      2  C   UNL     1       3.978   4.101  16.974  0.00  0.00    +0.000 C 
ATOM      3  C   UNL     1       4.177   5.184  17.787  0.00  0.00    +0.000 C 
ATOM      4  C   UNL     1       3.256   5.394  18.994  0.00  0.00    +0.000 C 
ATOM      5  N   UNL     1       2.205   4.359  19.100  0.00  0.00    +0.000 N 
ATOM      6  N   UNL     1       1.324   4.306  20.128  0.00  0.00    +0.000 NA
ATOM      7  C   UNL     1       0.532   3.281  19.794  0.00  0.00    +0.000 A 
ATOM      8  C   UNL     1       0.947   2.630  18.615  0.00  0.00    +0.000 A 
ATOM      9  C   UNL     1       2.046   3.340  18.209  0.00  0.00    +0.000 A 
ATOM     10  N   UNL     1       2.912   3.229  17.183  0.00  0.00    +0.000 N 
ATOM     11  H   UNL     1       2.820   2.462  16.519  0.00  0.00    +0.000 HD
ENDROOT
BRANCH   4  12
ATOM     12  C   UNL     1       2.588   6.763  19.126  0.00  0.00    +0.000 A 
ATOM     13  C   UNL     1       2.368   7.513  17.947  0.00  0.00    +0.000 A 
ATOM     14  C   UNL     1       1.646   8.703  17.974  0.00  0.00    +0.000 A 
ATOM     15  C   UNL     1       1.156   9.189  19.186  0.00  0.00    +0.000 A 
ATOM     16 CL   UNL     1       0.213  10.635  19.139  0.00  0.00    +0.000 Cl
ATOM     17  C   UNL     1       1.416   8.493  20.373  0.00  0.00    +0.000 A 
ATOM     18 CL   UNL     1       0.820   9.032  21.903  0.00  0.00    +0.000 Cl
ATOM     19  C   UNL     1       2.141   7.292  20.347  0.00  0.00    +0.000 A 
ENDBRANCH   4  12
BRANCH   3  20
ATOM     20  C   UNL     1       5.300   6.151  17.490  0.00  0.00    +0.000 C 
ATOM     21  O   UNL     1       5.131   7.030  16.636  0.00  0.00    +0.000 OA
ATOM     22  N   UNL     1       6.521   6.085  18.111  0.00  0.00    +0.000 N 
ATOM     23  C   UNL     1       7.600   7.067  17.914  0.00  0.00    +0.000 C 
ATOM     24  C   UNL     1       8.344   6.327  19.027  0.00  0.00    +0.000 C 
ATOM     25  C   UNL     1       6.990   5.766  19.447  0.00  0.00    +0.000 C 
ENDBRANCH   3  20
TORSDOF 2
ENDMDL
MODEL 2
REMARK VINA RESULT:      -8.1      1.627      4.530
REMARK  Name = 
REMARK  3 active torsions:
REMARK  status: ('A' for Active; 'I' for Inactive)
REMARK    1  A    between atoms: C_1  and  C_2
REMARK    2  A    between atoms: C_3  and  C_4
REMARK    3  A    between atoms: C_10  and  C_11
REMARK                            x       y       z     vdW  Elec       q    Type
REMARK                         _______ _______ _______ _____ _____    ______ ____
ROOT
ATOM      1  C   UNL     1       4.973   2.277  19.351  0.00  0.00    +0.000 C 
ATOM      2  C   UNL     1       4.968   3.688  18.790  0.00  0.00    +0.000 C 
ATOM      3  C   UNL     1       3.888   4.376  18.307  0.00  0.00    +0.000 C 
ATOM      4  C   UNL     1       4.102   5.751  17.664  0.00  0.00    +0.000 C 
ATOM      5  N   UNL     1       5.518   6.178  17.683  0.00  0.00    +0.000 N 
ATOM      6  N   UNL     1       5.950   7.327  17.107  0.00  0.00    +0.000 NA
ATOM      7  C   UNL     1       7.251   7.348  17.416  0.00  0.00    +0.000 A 
ATOM      8  C   UNL     1       7.670   6.193  18.106  0.00  0.00    +0.000 A 
ATOM      9  C   UNL     1       6.527   5.448  18.238  0.00  0.00    +0.000 A 
ATOM     10  N   UNL     1       6.245   4.245  18.771  0.00  0.00    +0.000 N 
ATOM     11  H   UNL     1       6.990   3.676  19.173  0.00  0.00    +0.000 HD
ENDROOT
BRANCH   4  12
ATOM     12  C   UNL     1       3.252   6.906  18.195  0.00  0.00    +0.000 A 
ATOM     13  C   UNL     1       2.923   7.954  17.304  0.00  0.00    +0.000 A 
ATOM     14  C   UNL     1       2.043   8.967  17.676  0.00  0.00    +0.000 A 
ATOM     15  C   UNL     1       1.498   8.974  18.960  0.00  0.00    +0.000 A 
ATOM     16 CL   UNL     1       0.363  10.221  19.335  0.00  0.00    +0.000 Cl
ATOM     17  C   UNL     1       1.858   7.978  19.877  0.00  0.00    +0.000 A 
ATOM     18 CL   UNL     1       1.203   7.919  21.474  0.00  0.00    +0.000 Cl
ATOM     19  C   UNL     1       2.743   6.955  19.501  0.00  0.00    +0.000 A 
ENDBRANCH   4  12
BRANCH   3  20
ATOM     20  C   UNL     1       2.505   3.774  18.407  0.00  0.00    +0.000 C 
ATOM     21  O   UNL     1       1.887   3.505  17.371  0.00  0.00    +0.000 OA
ATOM     22  N   UNL     1       1.886   3.530  19.607  0.00  0.00    +0.000 N 
ATOM     23  C   UNL     1       0.582   2.859  19.740  0.00  0.00    +0.000 C 
ATOM     24  C   UNL     1       0.832   2.890  21.249  0.00  0.00    +0.000 C 
ATOM     25  C   UNL     1       2.308   3.079  20.920  0.00  0.00    +0.000 C 
ENDBRANCH   3  20
TORSDOF 2
ENDMDL
MODEL 3
REMARK VINA RESULT:      -7.8      0.693      1.439
REMARK  Name = 
REMARK  3 active torsions:
REMARK  status: ('A' for Active; 'I' for Inactive)
REMARK    1  A    between atoms: C_1  and  C_2
REMARK    2  A    between atoms: C_3  and  C_4
REMARK    3  A    between atoms: C_10  and  C_11
REMARK                            x       y       z     vdW  Elec       q    Type
REMARK                         _______ _______ _______ _____ _____    ______ ____
ROOT
ATOM      1  C   UNL     1       4.747   3.757  15.801  0.00  0.00    +0.000 C 
ATOM      2  C   UNL     1       3.902   4.061  17.026  0.00  0.00    +0.000 C 
ATOM      3  C   UNL     1       4.078   5.093  17.909  0.00  0.00    +0.000 C 
ATOM      4  C   UNL     1       3.197   5.165  19.161  0.00  0.00    +0.000 C 
ATOM      5  N   UNL     1       2.207   4.069  19.229  0.00  0.00    +0.000 N 
ATOM      6  N   UNL     1       1.371   3.893  20.282  0.00  0.00    +0.000 NA
ATOM      7  C   UNL     1       0.621   2.853  19.902  0.00  0.00    +0.000 A 
ATOM      8  C   UNL     1       1.021   2.312  18.663  0.00  0.00    +0.000 A 
ATOM      9  C   UNL     1       2.065   3.109  18.271  0.00  0.00    +0.000 A 
ATOM     10  N   UNL     1       2.893   3.119  17.209  0.00  0.00    +0.000 N 
ATOM     11  H   UNL     1       2.814   2.398  16.493  0.00  0.00    +0.000 HD
ENDROOT
BRANCH   4  12
ATOM     12  C   UNL     1       2.464   6.482  19.419  0.00  0.00    +0.000 A 
ATOM     13  C   UNL     1       1.907   6.694  20.702  0.00  0.00    +0.000 A 
ATOM     14  C   UNL     1       1.346   7.919  21.050  0.00  0.00    +0.000 A 
ATOM     15  C   UNL     1       1.296   8.950  20.113  0.00  0.00    +0.000 A 
ATOM     16 CL   UNL     1       0.647  10.465  20.630  0.00  0.00    +0.000 Cl
ATOM     17  C   UNL     1       1.787   8.740  18.818  0.00  0.00    +0.000 A 
ATOM     18 CL   UNL     1       1.774   9.984  17.618  0.00  0.00    +0.000 Cl
ATOM     19  C   UNL     1       2.356   7.507  18.467  0.00  0.00    +0.000 A 
ENDBRANCH   4  12
BRANCH   3  20
ATOM     20  C   UNL     1       5.136   6.139  17.644  0.00  0.00    +0.000 C 
ATOM     21  O   UNL     1       4.870   7.093  16.903  0.00  0.00    +0.000 OA
ATOM     22  N   UNL     1       6.399   6.068  18.172  0.00  0.00    +0.000 N 
ATOM     23  C   UNL     1       7.421   7.116  18.009  0.00  0.00    +0.000 C 
ATOM     24  C   UNL     1       8.272   6.301  18.985  0.00  0.00    +0.000 C 
ATOM     25  C   UNL     1       6.976   5.634  19.431  0.00  0.00    +0.000 C 
ENDBRANCH   3  20
TORSDOF 2
ENDMDL
MODEL 4
REMARK VINA RESULT:      -7.5      5.144      7.828
REMARK  Name = 
REMARK  3 active torsions:
REMARK  status: ('A' for Active; 'I' for Inactive)
REMARK    1  A    between atoms: C_1  and  C_2
REMARK    2  A    between atoms: C_3  and  C_4
REMARK    3  A    between atoms: C_10  and  C_11
REMARK                            x       y       z     vdW  Elec       q    Type
REMARK                         _______ _______ _______ _____ _____    ______ ____
ROOT
ATOM      1  C   UNL     1      -1.552  14.319  20.735  0.00  0.00    +0.000 C 
ATOM      2  C   UNL     1      -1.316  13.077  19.894  0.00  0.00    +0.000 C 
ATOM      3  C   UNL     1      -0.108  12.509  19.588  0.00  0.00    +0.000 C 
ATOM      4  C   UNL     1      -0.062  11.323  18.618  0.00  0.00    +0.000 C 
ATOM      5  N   UNL     1      -1.403  10.916  18.146  0.00  0.00    +0.000 N 
ATOM      6  N   UNL     1      -1.597   9.937  17.229  0.00  0.00    +0.000 NA
ATOM      7  C   UNL     1      -2.930   9.856  17.151  0.00  0.00    +0.000 A 
ATOM      8  C   UNL     1      -3.585  10.824  17.939  0.00  0.00    +0.000 A 
ATOM      9  C   UNL     1      -2.565  11.507  18.548  0.00  0.00    +0.000 A 
ATOM     10  N   UNL     1      -2.506  12.551  19.396  0.00  0.00    +0.000 N 
ATOM     11  H   UNL     1      -3.363  13.018  19.691  0.00  0.00    +0.000 HD
ENDROOT
BRANCH   4  12
ATOM     12  C   UNL     1       0.675  10.069  19.090  0.00  0.00    +0.000 A 
ATOM     13  C   UNL     1       0.327   9.528  20.350  0.00  0.00    +0.000 A 
ATOM     14  C   UNL     1       0.857   8.316  20.784  0.00  0.00    +0.000 A 
ATOM     15  C   UNL     1       1.773   7.634  19.984  0.00  0.00    +0.000 A 
ATOM     16 CL   UNL     1       2.342   6.105  20.553  0.00  0.00    +0.000 Cl
ATOM     17  C   UNL     1       2.177   8.184  18.760  0.00  0.00    +0.000 A 
ATOM     18 CL   UNL     1       3.292   7.378  17.715  0.00  0.00    +0.000 Cl
ATOM     19  C   UNL     1       1.641   9.404  18.320  0.00  0.00    +0.000 A 
ENDBRANCH   4  12
BRANCH   3  20
ATOM     20  C   UNL     1       1.159  13.059  20.202  0.00  0.00    +0.000 C 
ATOM     21  O   UNL     1       1.407  12.821  21.390  0.00  0.00    +0.000 OA
ATOM     22  N   UNL     1       2.045  13.838  19.503  0.00  0.00    +0.000 N 
ATOM     23  C   UNL     1       3.331  14.310  20.043  0.00  0.00    +0.000 C 
ATOM     24  C   UNL     1       3.613  14.845  18.638  0.00  0.00    +0.000 C 
ATOM     25  C   UNL     1       2.548  13.873  18.142  0.00  0.00    +0.000 C 
ENDBRANCH   3  20
TORSDOF 2
ENDMDL
MODEL 5
REMARK VINA RESULT:      -7.3      1.776      4.707
REMARK  Name = 
REMARK  3 active torsions:
REMARK  status: ('A' for Active; 'I' for Inactive)
REMARK    1  A    between atoms: C_1  and  C_2
REMARK    2  A    between atoms: C_3  and  C_4
REMARK    3  A    between atoms: C_10  and  C_11
REMARK                            x       y       z     vdW  Elec       q    Type
REMARK                         _______ _______ _______ _____ _____    ______ ____
ROOT
ATOM      1  C   UNL     1       5.000   2.160  19.282  0.00  0.00    +0.000 C 
ATOM      2  C   UNL     1       4.893   3.585  18.770  0.00  0.00    +0.000 C 
ATOM      3  C   UNL     1       3.750   4.239  18.394  0.00  0.00    +0.000 C 
ATOM      4  C   UNL     1       3.856   5.641  17.782  0.00  0.00    +0.000 C 
ATOM      5  N   UNL     1       5.249   6.130  17.707  0.00  0.00    +0.000 N 
ATOM      6  N   UNL     1       5.587   7.313  17.138  0.00  0.00    +0.000 NA
ATOM      7  C   UNL     1       6.906   7.383  17.346  0.00  0.00    +0.000 A 
ATOM      8  C   UNL     1       7.425   6.227  17.963  0.00  0.00    +0.000 A 
ATOM      9  C   UNL     1       6.328   5.429  18.158  0.00  0.00    +0.000 A 
ATOM     10  N   UNL     1       6.140   4.199  18.672  0.00  0.00    +0.000 N 
ATOM     11  H   UNL     1       6.937   3.653  18.996  0.00  0.00    +0.000 HD
ENDROOT
BRANCH   4  12
ATOM     12  C   UNL     1       3.001   6.740  18.414  0.00  0.00    +0.000 A 
ATOM     13  C   UNL     1       2.539   6.545  19.737  0.00  0.00    +0.000 A 
ATOM     14  C   UNL     1       1.872   7.556  20.423  0.00  0.00    +0.000 A 
ATOM     15  C   UNL     1       1.622   8.774  19.791  0.00  0.00    +0.000 A 
ATOM     16 CL   UNL     1       0.850  10.008  20.721  0.00  0.00    +0.000 Cl
ATOM     17  C   UNL     1       2.018   8.965  18.461  0.00  0.00    +0.000 A 
ATOM     18 CL   UNL     1       1.756  10.457  17.630  0.00  0.00    +0.000 Cl
ATOM     19  C   UNL     1       2.693   7.947  17.770  0.00  0.00    +0.000 A 
ENDBRANCH   4  12
BRANCH   3  20
ATOM     20  C   UNL     1       2.406   3.573  18.580  0.00  0.00    +0.000 C 
ATOM     21  O   UNL     1       1.755   3.237  17.584  0.00  0.00    +0.000 OA
ATOM     22  N   UNL     1       1.856   3.342  19.815  0.00  0.00    +0.000 N 
ATOM     23  C   UNL     1       0.596   2.613  20.032  0.00  0.00    +0.000 C 
ATOM     24  C   UNL     1       0.912   2.709  21.526  0.00  0.00    +0.000 C 
ATOM     25  C   UNL     1       2.360   2.959  21.121  0.00  0.00    +0.000 C 
ENDBRANCH   3  20
TORSDOF 2
ENDMDL
MODEL 6
REMARK VINA RESULT:      -6.8      1.188      1.448
REMARK  Name = 
REMARK  3 active torsions:
REMARK  status: ('A' for Active; 'I' for Inactive)
REMARK    1  A    between atoms: C_1  and  C_2
REMARK    2  A    between atoms: C_3  and  C_4
REMARK    3  A    between atoms: C_10  and  C_11
REMARK                            x       y       z     vdW  Elec       q    Type
REMARK                         _______ _______ _______ _____ _____    ______ ____
ROOT
ATOM      1  C   UNL     1       5.379   2.861  17.048  0.00  0.00    +0.000 C 
ATOM      2  C   UNL     1       4.268   3.419  17.920  0.00  0.00    +0.000 C 
ATOM      3  C   UNL     1       4.356   4.473  18.789  0.00  0.00    +0.000 C 
ATOM      4  C   UNL     1       3.155   4.812  19.680  0.00  0.00    +0.000 C 
ATOM      5  N   UNL     1       1.996   3.926  19.440  0.00  0.00    +0.000 N 
ATOM      6  N   UNL     1       0.851   3.997  20.162  0.00  0.00    +0.000 NA
ATOM      7  C   UNL     1       0.068   3.083  19.579  0.00  0.00    +0.000 A 
ATOM      8  C   UNL     1       0.725   2.374  18.553  0.00  0.00    +0.000 A 
ATOM      9  C   UNL     1       1.977   2.930  18.509  0.00  0.00    +0.000 A 
ATOM     10  N   UNL     1       3.085   2.697  17.780  0.00  0.00    +0.000 N 
ATOM     11  H   UNL     1       3.095   1.944  17.093  0.00  0.00    +0.000 HD
ENDROOT
BRANCH   4  12
ATOM     12  C   UNL     1       2.659   6.258  19.654  0.00  0.00    +0.000 A 
ATOM     13  C   UNL     1       2.688   6.949  18.420  0.00  0.00    +0.000 A 
ATOM     14  C   UNL     1       2.130   8.218  18.291  0.00  0.00    +0.000 A 
ATOM     15  C   UNL     1       1.559   8.839  19.402  0.00  0.00    +0.000 A 
ATOM     16 CL   UNL     1       0.826  10.384  19.158  0.00  0.00    +0.000 Cl
ATOM     17  C   UNL     1       1.575   8.197  20.646  0.00  0.00    +0.000 A 
ATOM     18 CL   UNL     1       0.867   8.905  22.054  0.00  0.00    +0.000 Cl
ATOM     19  C   UNL     1       2.135   6.917  20.776  0.00  0.00    +0.000 A 
ENDBRANCH   4  12
BRANCH   3  20
ATOM     20  C   UNL     1       5.631   5.280  18.866  0.00  0.00    +0.000 C 
ATOM     21  O   UNL     1       6.404   5.102  19.815  0.00  0.00    +0.000 OA
ATOM     22  N   UNL     1       5.966   6.230  17.934  0.00  0.00    +0.000 N 
ATOM     23  C   UNL     1       7.242   6.965  17.929  0.00  0.00    +0.000 C 
ATOM     24  C   UNL     1       6.787   7.547  16.589  0.00  0.00    +0.000 C 
ATOM     25  C   UNL     1       5.823   6.371  16.497  0.00  0.00    +0.000 C 
ENDBRANCH   3  20
TORSDOF 2
ENDMDL
MODEL 7
REMARK VINA RESULT:      -6.7      5.135      7.767
REMARK  Name = 
REMARK  3 active torsions:
REMARK  status: ('A' for Active; 'I' for Inactive)
REMARK    1  A    between atoms: C_1  and  C_2
REMARK    2  A    between atoms: C_3  and  C_4
REMARK    3  A    between atoms: C_10  and  C_11
REMARK                            x       y       z     vdW  Elec       q    Type
REMARK                         _______ _______ _______ _____ _____    ______ ____
ROOT
ATOM      1  C   UNL     1      -1.607  14.210  20.826  0.00  0.00    +0.000 C 
ATOM      2  C   UNL     1      -1.420  13.048  19.867  0.00  0.00    +0.000 C 
ATOM      3  C   UNL     1      -0.232  12.495  19.468  0.00  0.00    +0.000 C 
ATOM      4  C   UNL     1      -0.238  11.404  18.391  0.00  0.00    +0.000 C 
ATOM      5  N   UNL     1      -1.601  11.061  17.931  0.00  0.00    +0.000 N 
ATOM      6  N   UNL     1      -1.842  10.173  16.935  0.00  0.00    +0.000 NA
ATOM      7  C   UNL     1      -3.177  10.119  16.895  0.00  0.00    +0.000 A 
ATOM      8  C   UNL     1      -3.789  11.018  17.792  0.00  0.00    +0.000 A 
ATOM      9  C   UNL     1      -2.738  11.627  18.426  0.00  0.00    +0.000 A 
ATOM     10  N   UNL     1      -2.634  12.587  19.364  0.00  0.00    +0.000 N 
ATOM     11  H   UNL     1      -3.473  13.036  19.731  0.00  0.00    +0.000 HD
ENDROOT
BRANCH   4  12
ATOM     12  C   UNL     1       0.493  10.102  18.719  0.00  0.00    +0.000 A 
ATOM     13  C   UNL     1       1.283   9.508  17.706  0.00  0.00    +0.000 A 
ATOM     14  C   UNL     1       2.082   8.400  17.972  0.00  0.00    +0.000 A 
ATOM     15  C   UNL     1       2.084   7.838  19.248  0.00  0.00    +0.000 A 
ATOM     16 CL   UNL     1       3.147   6.506  19.528  0.00  0.00    +0.000 Cl
ATOM     17  C   UNL     1       1.263   8.373  20.249  0.00  0.00    +0.000 A 
ATOM     18 CL   UNL     1       1.236   7.735  21.854  0.00  0.00    +0.000 Cl
ATOM     19  C   UNL     1       0.459   9.492  19.982  0.00  0.00    +0.000 A 
ENDBRANCH   4  12
BRANCH   3  20
ATOM     20  C   UNL     1       1.063  12.968  20.085  0.00  0.00    +0.000 C 
ATOM     21  O   UNL     1       1.327  12.654  21.252  0.00  0.00    +0.000 OA
ATOM     22  N   UNL     1       1.961  13.760  19.415  0.00  0.00    +0.000 N 
ATOM     23  C   UNL     1       3.271  14.159  19.954  0.00  0.00    +0.000 C 
ATOM     24  C   UNL     1       3.543  14.767  18.577  0.00  0.00    +0.000 C 
ATOM     25  C   UNL     1       2.438  13.860  18.048  0.00  0.00    +0.000 C 
ENDBRANCH   3  20
TORSDOF 2
ENDMDL
MODEL 8
REMARK VINA RESULT:      -6.6      3.133      5.417
REMARK  Name = 
REMARK  3 active torsions:
REMARK  status: ('A' for Active; 'I' for Inactive)
REMARK    1  A    between atoms: C_1  and  C_2
REMARK    2  A    between atoms: C_3  and  C_4
REMARK    3  A    between atoms: C_10  and  C_11
REMARK                            x       y       z     vdW  Elec       q    Type
REMARK                         _______ _______ _______ _____ _____    ______ ____
ROOT
ATOM      1  C   UNL     1       1.431   8.121  21.330  0.00  0.00    +0.000 C 
ATOM      2  C   UNL     1       1.798   6.868  20.555  0.00  0.00    +0.000 C 
ATOM      3  C   UNL     1       2.249   6.803  19.263  0.00  0.00    +0.000 C 
ATOM      4  C   UNL     1       2.449   5.431  18.608  0.00  0.00    +0.000 C 
ATOM      5  N   UNL     1       2.141   4.310  19.521  0.00  0.00    +0.000 N 
ATOM      6  N   UNL     1       2.181   3.011  19.134  0.00  0.00    +0.000 NA
ATOM      7  C   UNL     1       1.907   2.351  20.264  0.00  0.00    +0.000 A 
ATOM      8  C   UNL     1       1.612   3.209  21.343  0.00  0.00    +0.000 A 
ATOM      9  C   UNL     1       1.749   4.468  20.817  0.00  0.00    +0.000 A 
ATOM     10  N   UNL     1       1.589   5.713  21.304  0.00  0.00    +0.000 N 
ATOM     11  H   UNL     1       1.277   5.849  22.265  0.00  0.00    +0.000 HD
ENDROOT
BRANCH   4  12
ATOM     12  C   UNL     1       3.811   5.161  17.968  0.00  0.00    +0.000 A 
ATOM     13  C   UNL     1       3.838   4.687  16.635  0.00  0.00    +0.000 A 
ATOM     14  C   UNL     1       5.038   4.549  15.944  0.00  0.00    +0.000 A 
ATOM     15  C   UNL     1       6.243   4.848  16.579  0.00  0.00    +0.000 A 
ATOM     16 CL   UNL     1       7.689   4.717  15.644  0.00  0.00    +0.000 Cl
ATOM     17  C   UNL     1       6.242   5.260  17.918  0.00  0.00    +0.000 A 
ATOM     18 CL   UNL     1       7.698   5.665  18.755  0.00  0.00    +0.000 Cl
ATOM     19  C   UNL     1       5.032   5.403  18.615  0.00  0.00    +0.000 A 
ENDBRANCH   4  12
BRANCH   3  20
ATOM     20  C   UNL     1       2.535   8.076  18.501  0.00  0.00    +0.000 C 
ATOM     21  O   UNL     1       3.514   8.122  17.748  0.00  0.00    +0.000 OA
ATOM     22  N   UNL     1       1.765   9.204  18.624  0.00  0.00    +0.000 N 
ATOM     23  C   UNL     1       1.961  10.427  17.827  0.00  0.00    +0.000 C 
ATOM     24  C   UNL     1       0.674  10.939  18.477  0.00  0.00    +0.000 C 
ATOM     25  C   UNL     1       0.350   9.483  18.794  0.00  0.00    +0.000 C 
ENDBRANCH   3  20
TORSDOF 2
ENDMDL
MODEL 9
REMARK VINA RESULT:      -6.6      5.798      8.737
REMARK  Name = 
REMARK  3 active torsions:
REMARK  status: ('A' for Active; 'I' for Inactive)
REMARK    1  A    between atoms: C_1  and  C_2
REMARK    2  A    between atoms: C_3  and  C_4
REMARK    3  A    between atoms: C_10  and  C_11
REMARK                            x       y       z     vdW  Elec       q    Type
REMARK                         _______ _______ _______ _____ _____    ______ ____
ROOT
ATOM      1  C   UNL     1      -2.903  14.436  21.375  0.00  0.00    +0.000 C 
ATOM      2  C   UNL     1      -2.468  13.349  20.408  0.00  0.00    +0.000 C 
ATOM      3  C   UNL     1      -1.183  12.967  20.125  0.00  0.00    +0.000 C 
ATOM      4  C   UNL     1      -0.936  11.930  19.023  0.00  0.00    +0.000 C 
ATOM      5  N   UNL     1      -2.187  11.439  18.406  0.00  0.00    +0.000 N 
ATOM      6  N   UNL     1      -2.205  10.572  17.365  0.00  0.00    +0.000 NA
ATOM      7  C   UNL     1      -3.511  10.352  17.178  0.00  0.00    +0.000 A 
ATOM      8  C   UNL     1      -4.324  11.128  18.028  0.00  0.00    +0.000 A 
ATOM      9  C   UNL     1      -3.433  11.837  18.791  0.00  0.00    +0.000 A 
ATOM     10  N   UNL     1      -3.553  12.761  19.762  0.00  0.00    +0.000 N 
ATOM     11  H   UNL     1      -4.476  13.085  20.048  0.00  0.00    +0.000 HD
ENDROOT
BRANCH   4  12
ATOM     12  C   UNL     1      -0.080  10.717  19.391  0.00  0.00    +0.000 A 
ATOM     13  C   UNL     1      -0.332  10.077  20.627  0.00  0.00    +0.000 A 
ATOM     14  C   UNL     1       0.312   8.891  20.968  0.00  0.00    +0.000 A 
ATOM     15  C   UNL     1       1.248   8.335  20.095  0.00  0.00    +0.000 A 
ATOM     16 CL   UNL     1       1.962   6.829  20.549  0.00  0.00    +0.000 Cl
ATOM     17  C   UNL     1       1.556   8.987  18.894  0.00  0.00    +0.000 A 
ATOM     18 CL   UNL     1       2.690   8.340  17.763  0.00  0.00    +0.000 Cl
ATOM     19  C   UNL     1       0.905  10.181  18.549  0.00  0.00    +0.000 A 
ENDBRANCH   4  12
BRANCH   3  20
ATOM     20  C   UNL     1      -0.032  13.572  20.894  0.00  0.00    +0.000 C 
ATOM     21  O   UNL     1       0.321  13.054  21.960  0.00  0.00    +0.000 OA
ATOM     22  N   UNL     1       0.633  14.696  20.474  0.00  0.00    +0.000 N 
ATOM     23  C   UNL     1       1.816  15.254  21.150  0.00  0.00    +0.000 C 
ATOM     24  C   UNL     1       1.906  16.229  19.974  0.00  0.00    +0.000 C 
ATOM     25  C   UNL     1       1.047  15.240  19.194  0.00  0.00    +0.000 C 
ENDBRANCH   3  20
TORSDOF 2
ENDMDL
