MODEL 1
REMARK VINA RESULT:      -7.0      0.000      0.000
REMARK  Name = 
REMARK  12 active torsions:
REMARK  status: ('A' for Active; 'I' for Inactive)
REMARK    1  A    between atoms: C_1  and  O_2
REMARK    2  A    between atoms: O_2  and  C_3
REMARK    3  A    between atoms: C_3  and  C_4
REMARK    4  A    between atoms: C_4  and  O_5
REMARK    5  A    between atoms: O_5  and  C_6
REMARK    6  A    between atoms: C_11  and  C_12
REMARK    7  A    between atoms: C_13  and  C_14
REMARK    8  A    between atoms: C_14  and  C_16
REMARK    9  A    between atoms: C_16  and  C_17
REMARK   10  A    between atoms: C_16  and  C_18
REMARK   11  A    between atoms: N_23  and  C_24
REMARK   12  A    between atoms: C_27  and  C_28
REMARK                            x       y       z     vdW  Elec       q    Type
REMARK                         _______ _______ _______ _____ _____    ______ ____
ROOT
ATOM      1  C   UNL     1       3.118   4.248  17.893  0.00  0.00    +0.000 C 
ATOM      2  C   UNL     1       2.917   2.729  18.164  0.00  0.00    +0.000 C 
ATOM      3  C   UNL     1       1.545   2.760  18.720  0.00  0.00    +0.000 C 
ATOM      4  O   UNL     1       0.763   1.841  18.737  0.00  0.00    +0.000 OA
ATOM      5  C   UNL     1       1.207   4.179  19.204  0.00  0.00    +0.000 C 
ATOM      6  O   UNL     1       0.233   4.409  19.895  0.00  0.00    +0.000 OA
ATOM      7  N   UNL     1       2.177   5.021  18.683  0.00  0.00    +0.000 N 
ENDROOT
BRANCH   1  13
ATOM      8  C   UNL     1       5.390   4.828  16.734  0.00  0.00    +0.000 A 
ATOM      9  C   UNL     1       6.701   5.279  16.970  0.00  0.00    +0.000 A 
ATOM     10  C   UNL     1       7.160   5.646  18.231  0.00  0.00    +0.000 A 
ATOM     11  C   UNL     1       6.353   5.507  19.340  0.00  0.00    +0.000 A 
ATOM     12  C   UNL     1       5.060   5.043  19.163  0.00  0.00    +0.000 A 
ATOM     13  C   UNL     1       4.542   4.741  17.868  0.00  0.00    +0.000 A 
BRANCH   8  14
ATOM     14  O   UNL     1       4.982   4.442  15.444  0.00  0.00    +0.000 OA
BRANCH  14  15
ATOM     15  C   UNL     1       6.041   3.778  14.704  0.00  0.00    +0.000 C 
BRANCH  15  16
ATOM     16  C   UNL     1       6.621   4.317  13.383  0.00  0.00    +0.000 C 
BRANCH  16  18
ATOM     17  C   UNL     1       5.051   3.208  11.898  0.00  0.00    +0.000 C 
ATOM     18  O   UNL     1       6.362   3.254  12.435  0.00  0.00    +0.000 OA
ENDBRANCH  16  18
ENDBRANCH  15  16
ENDBRANCH  14  15
ENDBRANCH   8  14
ENDBRANCH   1  13
BRANCH   7  19
ATOM     19  C   UNL     1       2.222   6.458  18.814  0.00  0.00    +0.000 A 
ATOM     20  C   UNL     1       2.382   7.245  17.677  0.00  0.00    +0.000 A 
ATOM     21  C   UNL     1       2.162   8.649  17.736  0.00  0.00    +0.000 A 
ATOM     22  C   UNL     1       1.823   9.283  18.932  0.00  0.00    +0.000 A 
ATOM     23  C   UNL     1       1.752   8.503  20.081  0.00  0.00    +0.000 A 
ATOM     24  C   UNL     1       1.970   7.119  20.022  0.00  0.00    +0.000 A 
BRANCH  22  25
ATOM     25  C   UNL     1       1.565  10.723  18.999  0.00  0.00    +0.000 A 
ATOM     26  C   UNL     1       0.614  11.311  19.814  0.00  0.00    +0.000 A 
ATOM     27  S   UNL     1       0.591  13.009  19.585  0.00  0.00    +0.000 S 
ATOM     28  C   UNL     1       1.847  12.845  18.434  0.00  0.00    +0.000 A 
ATOM     29  N   UNL     1       2.278  11.622  18.213  0.00  0.00    +0.000 NA
ENDBRANCH  22  25
ENDBRANCH   7  19
BRANCH   2  30
ATOM     30  C   UNL     1       3.931   1.843  18.931  0.00  0.00    +0.000 C 
ATOM     31  O   UNL     1       4.389   0.849  18.347  0.00  0.00    +0.000 OA
BRANCH  30  32
ATOM     32  C   UNL     1       4.383   2.151  20.388  0.00  0.00    +0.000 C 
ATOM     33  C   UNL     1       3.282   2.349  21.440  0.00  0.00    +0.000 C 
ATOM     34  C   UNL     1       5.295   1.045  20.961  0.00  0.00    +0.000 C 
ENDBRANCH  30  32
ENDBRANCH   2  30
TORSDOF 9
ENDMDL
MODEL 2
REMARK VINA RESULT:      -6.8      0.825      1.083
REMARK  Name = 
REMARK  12 active torsions:
REMARK  status: ('A' for Active; 'I' for Inactive)
REMARK    1  A    between atoms: C_1  and  O_2
REMARK    2  A    between atoms: O_2  and  C_3
REMARK    3  A    between atoms: C_3  and  C_4
REMARK    4  A    between atoms: C_4  and  O_5
REMARK    5  A    between atoms: O_5  and  C_6
REMARK    6  A    between atoms: C_11  and  C_12
REMARK    7  A    between atoms: C_13  and  C_14
REMARK    8  A    between atoms: C_14  and  C_16
REMARK    9  A    between atoms: C_16  and  C_17
REMARK   10  A    between atoms: C_16  and  C_18
REMARK   11  A    between atoms: N_23  and  C_24
REMARK   12  A    between atoms: C_27  and  C_28
REMARK                            x       y       z     vdW  Elec       q    Type
REMARK                         _______ _______ _______ _____ _____    ______ ____
ROOT
ATOM      1  C   UNL     1       3.060   4.214  17.962  0.00  0.00    +0.000 C 
ATOM      2  C   UNL     1       2.845   2.700  18.244  0.00  0.00    +0.000 C 
ATOM      3  C   UNL     1       1.475   2.749  18.805  0.00  0.00    +0.000 C 
ATOM      4  O   UNL     1       0.684   1.838  18.832  0.00  0.00    +0.000 OA
ATOM      5  C   UNL     1       1.154   4.175  19.280  0.00  0.00    +0.000 C 
ATOM      6  O   UNL     1       0.185   4.419  19.974  0.00  0.00    +0.000 OA
ATOM      7  N   UNL     1       2.131   5.003  18.750  0.00  0.00    +0.000 N 
ENDROOT
BRANCH   1  13
ATOM      8  C   UNL     1       5.362   4.678  16.809  0.00  0.00    +0.000 A 
ATOM      9  C   UNL     1       6.672   5.137  17.036  0.00  0.00    +0.000 A 
ATOM     10  C   UNL     1       7.107   5.604  18.273  0.00  0.00    +0.000 A 
ATOM     11  C   UNL     1       6.275   5.565  19.370  0.00  0.00    +0.000 A 
ATOM     12  C   UNL     1       4.982   5.098  19.204  0.00  0.00    +0.000 A 
ATOM     13  C   UNL     1       4.489   4.693  17.927  0.00  0.00    +0.000 A 
BRANCH   8  14
ATOM     14  O   UNL     1       4.979   4.189  15.547  0.00  0.00    +0.000 OA
BRANCH  14  15
ATOM     15  C   UNL     1       6.109   3.703  14.775  0.00  0.00    +0.000 C 
BRANCH  15  16
ATOM     16  C   UNL     1       6.457   4.212  13.365  0.00  0.00    +0.000 C 
BRANCH  16  18
ATOM     17  C   UNL     1       8.255   5.619  12.536  0.00  0.00    +0.000 C 
ATOM     18  O   UNL     1       7.388   5.293  13.609  0.00  0.00    +0.000 OA
ENDBRANCH  16  18
ENDBRANCH  15  16
ENDBRANCH  14  15
ENDBRANCH   8  14
ENDBRANCH   1  13
BRANCH   7  19
ATOM     19  C   UNL     1       2.191   6.440  18.870  0.00  0.00    +0.000 A 
ATOM     20  C   UNL     1       2.333   7.219  17.725  0.00  0.00    +0.000 A 
ATOM     21  C   UNL     1       2.126   8.624  17.780  0.00  0.00    +0.000 A 
ATOM     22  C   UNL     1       1.819   9.270  18.979  0.00  0.00    +0.000 A 
ATOM     23  C   UNL     1       1.766   8.498  20.134  0.00  0.00    +0.000 A 
ATOM     24  C   UNL     1       1.971   7.111  20.080  0.00  0.00    +0.000 A 
BRANCH  22  25
ATOM     25  C   UNL     1       1.575  10.712  19.042  0.00  0.00    +0.000 A 
ATOM     26  C   UNL     1       2.167  11.643  18.208  0.00  0.00    +0.000 A 
ATOM     27  S   UNL     1       1.652  13.228  18.612  0.00  0.00    +0.000 S 
ATOM     28  C   UNL     1       0.676  12.566  19.852  0.00  0.00    +0.000 A 
ATOM     29  N   UNL     1       0.707  11.258  19.982  0.00  0.00    +0.000 NA
ENDBRANCH  22  25
ENDBRANCH   7  19
BRANCH   2  30
ATOM     30  C   UNL     1       3.853   1.809  19.014  0.00  0.00    +0.000 C 
ATOM     31  O   UNL     1       4.275   0.789  18.446  0.00  0.00    +0.000 OA
BRANCH  30  32
ATOM     32  C   UNL     1       4.341   2.142  20.453  0.00  0.00    +0.000 C 
ATOM     33  C   UNL     1       3.271   2.272  21.548  0.00  0.00    +0.000 C 
ATOM     34  C   UNL     1       5.339   1.093  20.987  0.00  0.00    +0.000 C 
ENDBRANCH  30  32
ENDBRANCH   2  30
TORSDOF 9
ENDMDL
MODEL 3
REMARK VINA RESULT:      -6.3      5.111      9.844
REMARK  Name = 
REMARK  12 active torsions:
REMARK  status: ('A' for Active; 'I' for Inactive)
REMARK    1  A    between atoms: C_1  and  O_2
REMARK    2  A    between atoms: O_2  and  C_3
REMARK    3  A    between atoms: C_3  and  C_4
REMARK    4  A    between atoms: C_4  and  O_5
REMARK    5  A    between atoms: O_5  and  C_6
REMARK    6  A    between atoms: C_11  and  C_12
REMARK    7  A    between atoms: C_13  and  C_14
REMARK    8  A    between atoms: C_14  and  C_16
REMARK    9  A    between atoms: C_16  and  C_17
REMARK   10  A    between atoms: C_16  and  C_18
REMARK   11  A    between atoms: N_23  and  C_24
REMARK   12  A    between atoms: C_27  and  C_28
REMARK                            x       y       z     vdW  Elec       q    Type
REMARK                         _______ _______ _______ _____ _____    ______ ____
ROOT
ATOM      1  C   UNL     1      -0.886  11.676  20.447  0.00  0.00    +0.000 C 
ATOM      2  C   UNL     1      -1.744  12.559  21.398  0.00  0.00    +0.000 C 
ATOM      3  C   UNL     1      -1.172  12.142  22.699  0.00  0.00    +0.000 C 
ATOM      4  O   UNL     1      -1.196  12.779  23.724  0.00  0.00    +0.000 OA
ATOM      5  C   UNL     1      -0.447  10.796  22.546  0.00  0.00    +0.000 C 
ATOM      6  O   UNL     1      -0.091  10.143  23.509  0.00  0.00    +0.000 OA
ATOM      7  N   UNL     1      -0.306  10.569  21.186  0.00  0.00    +0.000 N 
ENDROOT
BRANCH   1  13
ATOM      8  C   UNL     1      -1.446  12.144  17.935  0.00  0.00    +0.000 A 
ATOM      9  C   UNL     1      -2.132  11.643  16.814  0.00  0.00    +0.000 A 
ATOM     10  C   UNL     1      -2.812  10.429  16.822  0.00  0.00    +0.000 A 
ATOM     11  C   UNL     1      -2.905   9.685  17.978  0.00  0.00    +0.000 A 
ATOM     12  C   UNL     1      -2.267  10.147  19.117  0.00  0.00    +0.000 A 
ATOM     13  C   UNL     1      -1.495  11.347  19.108  0.00  0.00    +0.000 A 
BRANCH   8  14
ATOM     14  O   UNL     1      -0.797  13.391  17.885  0.00  0.00    +0.000 OA
BRANCH  14  15
ATOM     15  C   UNL     1       0.583  13.315  18.329  0.00  0.00    +0.000 C 
BRANCH  15  16
ATOM     16  C   UNL     1       1.221  14.330  19.294  0.00  0.00    +0.000 C 
BRANCH  16  18
ATOM     17  C   UNL     1       3.131  13.304  18.198  0.00  0.00    +0.000 C 
ATOM     18  O   UNL     1       2.580  14.458  18.811  0.00  0.00    +0.000 OA
ENDBRANCH  16  18
ENDBRANCH  15  16
ENDBRANCH  14  15
ENDBRANCH   8  14
ENDBRANCH   1  13
BRANCH   7  19
ATOM     19  C   UNL     1       0.383   9.461  20.571  0.00  0.00    +0.000 A 
ATOM     20  C   UNL     1       1.017   9.643  19.345  0.00  0.00    +0.000 A 
ATOM     21  C   UNL     1       1.920   8.663  18.849  0.00  0.00    +0.000 A 
ATOM     22  C   UNL     1       2.166   7.479  19.546  0.00  0.00    +0.000 A 
ATOM     23  C   UNL     1       1.462   7.265  20.725  0.00  0.00    +0.000 A 
ATOM     24  C   UNL     1       0.571   8.231  21.214  0.00  0.00    +0.000 A 
BRANCH  22  25
ATOM     25  C   UNL     1       3.116   6.477  19.060  0.00  0.00    +0.000 A 
ATOM     26  C   UNL     1       3.474   5.335  19.754  0.00  0.00    +0.000 A 
ATOM     27  S   UNL     1       4.632   4.431  18.871  0.00  0.00    +0.000 S 
ATOM     28  C   UNL     1       4.568   5.608  17.631  0.00  0.00    +0.000 A 
ATOM     29  N   UNL     1       3.749   6.619  17.829  0.00  0.00    +0.000 NA
ENDBRANCH  22  25
ENDBRANCH   7  19
BRANCH   2  30
ATOM     30  C   UNL     1      -3.290  12.645  21.343  0.00  0.00    +0.000 C 
ATOM     31  O   UNL     1      -3.933  12.113  22.261  0.00  0.00    +0.000 OA
BRANCH  30  32
ATOM     32  C   UNL     1      -4.052  13.361  20.190  0.00  0.00    +0.000 C 
ATOM     33  C   UNL     1      -5.075  12.532  19.400  0.00  0.00    +0.000 C 
ATOM     34  C   UNL     1      -4.831  14.598  20.687  0.00  0.00    +0.000 C 
ENDBRANCH  30  32
ENDBRANCH   2  30
TORSDOF 9
ENDMDL
MODEL 4
REMARK VINA RESULT:      -6.3      5.770     10.374
REMARK  Name = 
REMARK  12 active torsions:
REMARK  status: ('A' for Active; 'I' for Inactive)
REMARK    1  A    between atoms: C_1  and  O_2
REMARK    2  A    between atoms: O_2  and  C_3
REMARK    3  A    between atoms: C_3  and  C_4
REMARK    4  A    between atoms: C_4  and  O_5
REMARK    5  A    between atoms: O_5  and  C_6
REMARK    6  A    between atoms: C_11  and  C_12
REMARK    7  A    between atoms: C_13  and  C_14
REMARK    8  A    between atoms: C_14  and  C_16
REMARK    9  A    between atoms: C_16  and  C_17
REMARK   10  A    between atoms: C_16  and  C_18
REMARK   11  A    between atoms: N_23  and  C_24
REMARK   12  A    between atoms: C_27  and  C_28
REMARK                            x       y       z     vdW  Elec       q    Type
REMARK                         _______ _______ _______ _____ _____    ______ ____
ROOT
ATOM      1  C   UNL     1      -0.076  13.272  22.030  0.00  0.00    +0.000 C 
ATOM      2  C   UNL     1      -1.002  14.455  22.433  0.00  0.00    +0.000 C 
ATOM      3  C   UNL     1      -1.942  13.737  23.323  0.00  0.00    +0.000 C 
ATOM      4  O   UNL     1      -2.614  14.231  24.195  0.00  0.00    +0.000 OA
ATOM      5  C   UNL     1      -1.882  12.227  23.042  0.00  0.00    +0.000 C 
ATOM      6  O   UNL     1      -2.713  11.456  23.483  0.00  0.00    +0.000 OA
ATOM      7  N   UNL     1      -0.753  12.009  22.267  0.00  0.00    +0.000 N 
ENDROOT
BRANCH   1  13
ATOM      8  C   UNL     1       0.103  13.262  19.420  0.00  0.00    +0.000 A 
ATOM      9  C   UNL     1       1.000  13.391  18.345  0.00  0.00    +0.000 A 
ATOM     10  C   UNL     1       2.353  13.667  18.516  0.00  0.00    +0.000 A 
ATOM     11  C   UNL     1       2.897  13.753  19.779  0.00  0.00    +0.000 A 
ATOM     12  C   UNL     1       2.060  13.608  20.872  0.00  0.00    +0.000 A 
ATOM     13  C   UNL     1       0.655  13.408  20.719  0.00  0.00    +0.000 A 
BRANCH   8  14
ATOM     14  O   UNL     1      -1.251  12.954  19.196  0.00  0.00    +0.000 OA
BRANCH  14  15
ATOM     15  C   UNL     1      -1.465  12.297  17.919  0.00  0.00    +0.000 C 
BRANCH  15  16
ATOM     16  C   UNL     1      -2.427  11.110  17.725  0.00  0.00    +0.000 C 
BRANCH  16  18
ATOM     17  C   UNL     1      -2.993  10.730  15.394  0.00  0.00    +0.000 C 
ATOM     18  O   UNL     1      -3.213  11.490  16.570  0.00  0.00    +0.000 OA
ENDBRANCH  16  18
ENDBRANCH  15  16
ENDBRANCH  14  15
ENDBRANCH   8  14
ENDBRANCH   1  13
BRANCH   7  19
ATOM     19  C   UNL     1      -0.253  10.730  21.826  0.00  0.00    +0.000 A 
ATOM     20  C   UNL     1      -0.552  10.282  20.542  0.00  0.00    +0.000 A 
ATOM     21  C   UNL     1       0.139   9.170  19.988  0.00  0.00    +0.000 A 
ATOM     22  C   UNL     1       1.098   8.469  20.721  0.00  0.00    +0.000 A 
ATOM     23  C   UNL     1       1.328   8.867  22.033  0.00  0.00    +0.000 A 
ATOM     24  C   UNL     1       0.646   9.964  22.579  0.00  0.00    +0.000 A 
BRANCH  22  25
ATOM     25  C   UNL     1       1.836   7.341  20.150  0.00  0.00    +0.000 A 
ATOM     26  C   UNL     1       2.526   7.382  18.952  0.00  0.00    +0.000 A 
ATOM     27  S   UNL     1       3.233   5.859  18.609  0.00  0.00    +0.000 S 
ATOM     28  C   UNL     1       2.586   5.258  20.076  0.00  0.00    +0.000 A 
ATOM     29  N   UNL     1       1.887   6.110  20.796  0.00  0.00    +0.000 NA
ENDBRANCH  22  25
ENDBRANCH   7  19
BRANCH   2  30
ATOM     30  C   UNL     1      -1.652  15.432  21.420  0.00  0.00    +0.000 C 
ATOM     31  O   UNL     1      -2.776  15.145  20.979  0.00  0.00    +0.000 OA
BRANCH  30  32
ATOM     32  C   UNL     1      -0.950  16.736  20.941  0.00  0.00    +0.000 C 
ATOM     33  C   UNL     1       0.458  17.019  21.484  0.00  0.00    +0.000 C 
ATOM     34  C   UNL     1      -0.808  16.790  19.404  0.00  0.00    +0.000 C 
ENDBRANCH  30  32
ENDBRANCH   2  30
TORSDOF 9
ENDMDL
MODEL 5
REMARK VINA RESULT:      -6.3      7.836     12.106
REMARK  Name = 
REMARK  12 active torsions:
REMARK  status: ('A' for Active; 'I' for Inactive)
REMARK    1  A    between atoms: C_1  and  O_2
REMARK    2  A    between atoms: O_2  and  C_3
REMARK    3  A    between atoms: C_3  and  C_4
REMARK    4  A    between atoms: C_4  and  O_5
REMARK    5  A    between atoms: O_5  and  C_6
REMARK    6  A    between atoms: C_11  and  C_12
REMARK    7  A    between atoms: C_13  and  C_14
REMARK    8  A    between atoms: C_14  and  C_16
REMARK    9  A    between atoms: C_16  and  C_17
REMARK   10  A    between atoms: C_16  and  C_18
REMARK   11  A    between atoms: N_23  and  C_24
REMARK   12  A    between atoms: C_27  and  C_28
REMARK                            x       y       z     vdW  Elec       q    Type
REMARK                         _______ _______ _______ _____ _____    ______ ____
ROOT
ATOM      1  C   UNL     1       9.221  14.508  18.460  0.00  0.00    +0.000 C 
ATOM      2  C   UNL     1      10.248  15.676  18.459  0.00  0.00    +0.000 C 
ATOM      3  C   UNL     1      11.353  15.028  17.715  0.00  0.00    +0.000 C 
ATOM      4  O   UNL     1      12.226  15.593  17.103  0.00  0.00    +0.000 OA
ATOM      5  C   UNL     1      11.186  13.501  17.753  0.00  0.00    +0.000 C 
ATOM      6  O   UNL     1      12.076  12.747  17.408  0.00  0.00    +0.000 OA
ATOM      7  N   UNL     1       9.900  13.250  18.205  0.00  0.00    +0.000 N 
ENDROOT
BRANCH   1  13
ATOM      8  C   UNL     1       6.887  15.036  19.516  0.00  0.00    +0.000 A 
ATOM      9  C   UNL     1       6.138  14.963  20.704  0.00  0.00    +0.000 A 
ATOM     10  C   UNL     1       6.629  14.397  21.877  0.00  0.00    +0.000 A 
ATOM     11  C   UNL     1       7.927  13.940  21.945  0.00  0.00    +0.000 A 
ATOM     12  C   UNL     1       8.715  14.011  20.808  0.00  0.00    +0.000 A 
ATOM     13  C   UNL     1       8.204  14.511  19.572  0.00  0.00    +0.000 A 
BRANCH   8  14
ATOM     14  O   UNL     1       6.355  15.644  18.365  0.00  0.00    +0.000 OA
BRANCH  14  15
ATOM     15  C   UNL     1       4.961  15.301  18.152  0.00  0.00    +0.000 C 
BRANCH  15  16
ATOM     16  C   UNL     1       3.789  16.096  18.755  0.00  0.00    +0.000 C 
BRANCH  16  18
ATOM     17  C   UNL     1       2.902  13.870  18.361  0.00  0.00    +0.000 C 
ATOM     18  O   UNL     1       2.822  15.076  19.101  0.00  0.00    +0.000 OA
ENDBRANCH  16  18
ENDBRANCH  15  16
ENDBRANCH  14  15
ENDBRANCH   8  14
ENDBRANCH   1  13
BRANCH   7  19
ATOM     19  C   UNL     1       9.274  11.956  18.329  0.00  0.00    +0.000 A 
ATOM     20  C   UNL     1       8.242  11.607  17.461  0.00  0.00    +0.000 A 
ATOM     21  C   UNL     1       7.795  10.260  17.379  0.00  0.00    +0.000 A 
ATOM     22  C   UNL     1       8.339   9.261  18.188  0.00  0.00    +0.000 A 
ATOM     23  C   UNL     1       9.307   9.633  19.113  0.00  0.00    +0.000 A 
ATOM     24  C   UNL     1       9.748  10.962  19.194  0.00  0.00    +0.000 A 
BRANCH  22  25
ATOM     25  C   UNL     1       7.907   7.865  18.091  0.00  0.00    +0.000 A 
ATOM     26  C   UNL     1       7.085   7.368  17.095  0.00  0.00    +0.000 A 
ATOM     27  S   UNL     1       6.781   5.699  17.342  0.00  0.00    +0.000 S 
ATOM     28  C   UNL     1       7.766   5.753  18.740  0.00  0.00    +0.000 A 
ATOM     29  N   UNL     1       8.301   6.919  19.031  0.00  0.00    +0.000 NA
ENDBRANCH  22  25
ENDBRANCH   7  19
BRANCH   2  30
ATOM     30  C   UNL     1      10.666  16.466  19.726  0.00  0.00    +0.000 C 
ATOM     31  O   UNL     1      11.628  16.039  20.383  0.00  0.00    +0.000 OA
BRANCH  30  32
ATOM     32  C   UNL     1       9.928  17.753  20.195  0.00  0.00    +0.000 C 
ATOM     33  C   UNL     1       8.688  18.184  19.398  0.00  0.00    +0.000 C 
ATOM     34  C   UNL     1       9.450  17.649  21.659  0.00  0.00    +0.000 C 
ENDBRANCH  30  32
ENDBRANCH   2  30
TORSDOF 9
ENDMDL
MODEL 6
REMARK VINA RESULT:      -6.2      7.537     11.147
REMARK  Name = 
REMARK  12 active torsions:
REMARK  status: ('A' for Active; 'I' for Inactive)
REMARK    1  A    between atoms: C_1  and  O_2
REMARK    2  A    between atoms: O_2  and  C_3
REMARK    3  A    between atoms: C_3  and  C_4
REMARK    4  A    between atoms: C_4  and  O_5
REMARK    5  A    between atoms: O_5  and  C_6
REMARK    6  A    between atoms: C_11  and  C_12
REMARK    7  A    between atoms: C_13  and  C_14
REMARK    8  A    between atoms: C_14  and  C_16
REMARK    9  A    between atoms: C_16  and  C_17
REMARK   10  A    between atoms: C_16  and  C_18
REMARK   11  A    between atoms: N_23  and  C_24
REMARK   12  A    between atoms: C_27  and  C_28
REMARK                            x       y       z     vdW  Elec       q    Type
REMARK                         _______ _______ _______ _____ _____    ______ ____
ROOT
ATOM      1  C   UNL     1      -3.170  12.212  20.241  0.00  0.00    +0.000 C 
ATOM      2  C   UNL     1      -4.617  12.001  19.709  0.00  0.00    +0.000 C 
ATOM      3  C   UNL     1      -4.307  11.458  18.367  0.00  0.00    +0.000 C 
ATOM      4  O   UNL     1      -5.035  10.774  17.690  0.00  0.00    +0.000 OA
ATOM      5  C   UNL     1      -2.864  11.815  17.977  0.00  0.00    +0.000 C 
ATOM      6  O   UNL     1      -2.450  11.676  16.842  0.00  0.00    +0.000 OA
ATOM      7  N   UNL     1      -2.236  12.260  19.130  0.00  0.00    +0.000 N 
ENDROOT
BRANCH   1  13
ATOM      8  C   UNL     1      -2.712  13.027  22.684  0.00  0.00    +0.000 A 
ATOM      9  C   UNL     1      -2.641  14.167  23.504  0.00  0.00    +0.000 A 
ATOM     10  C   UNL     1      -2.815  15.460  23.021  0.00  0.00    +0.000 A 
ATOM     11  C   UNL     1      -3.146  15.677  21.701  0.00  0.00    +0.000 A 
ATOM     12  C   UNL     1      -3.252  14.585  20.857  0.00  0.00    +0.000 A 
ATOM     13  C   UNL     1      -2.996  13.257  21.313  0.00  0.00    +0.000 A 
BRANCH   8  14
ATOM     14  O   UNL     1      -2.558  11.738  23.226  0.00  0.00    +0.000 OA
BRANCH  14  15
ATOM     15  C   UNL     1      -1.184  11.271  23.159  0.00  0.00    +0.000 C 
BRANCH  15  16
ATOM     16  C   UNL     1      -0.796   9.783  23.101  0.00  0.00    +0.000 C 
BRANCH  16  18
ATOM     17  C   UNL     1       1.417   9.162  22.314  0.00  0.00    +0.000 C 
ATOM     18  O   UNL     1       0.636   9.792  23.315  0.00  0.00    +0.000 OA
ENDBRANCH  16  18
ENDBRANCH  15  16
ENDBRANCH  14  15
ENDBRANCH   8  14
ENDBRANCH   1  13
BRANCH   7  19
ATOM     19  C   UNL     1      -0.848  12.633  19.259  0.00  0.00    +0.000 A 
ATOM     20  C   UNL     1      -0.441  13.907  18.871  0.00  0.00    +0.000 A 
ATOM     21  C   UNL     1       0.846  14.393  19.231  0.00  0.00    +0.000 A 
ATOM     22  C   UNL     1       1.751  13.601  19.941  0.00  0.00    +0.000 A 
ATOM     23  C   UNL     1       1.370  12.300  20.248  0.00  0.00    +0.000 A 
ATOM     24  C   UNL     1       0.101  11.821  19.892  0.00  0.00    +0.000 A 
BRANCH  22  25
ATOM     25  C   UNL     1       3.067  14.102  20.343  0.00  0.00    +0.000 A 
ATOM     26  C   UNL     1       3.946  14.758  19.501  0.00  0.00    +0.000 A 
ATOM     27  S   UNL     1       5.391  15.159  20.330  0.00  0.00    +0.000 S 
ATOM     28  C   UNL     1       4.745  14.447  21.746  0.00  0.00    +0.000 A 
ATOM     29  N   UNL     1       3.537  13.936  21.642  0.00  0.00    +0.000 NA
ENDBRANCH  22  25
ENDBRANCH   7  19
BRANCH   2  30
ATOM     30  C   UNL     1      -5.724  13.085  19.754  0.00  0.00    +0.000 C 
ATOM     31  O   UNL     1      -5.664  14.008  18.927  0.00  0.00    +0.000 OA
BRANCH  30  32
ATOM     32  C   UNL     1      -6.887  13.056  20.788  0.00  0.00    +0.000 C 
ATOM     33  C   UNL     1      -7.523  11.692  21.096  0.00  0.00    +0.000 C 
ATOM     34  C   UNL     1      -6.461  13.621  22.160  0.00  0.00    +0.000 C 
ENDBRANCH  30  32
ENDBRANCH   2  30
TORSDOF 9
ENDMDL
MODEL 7
REMARK VINA RESULT:      -6.1      8.552     11.829
REMARK  Name = 
REMARK  12 active torsions:
REMARK  status: ('A' for Active; 'I' for Inactive)
REMARK    1  A    between atoms: C_1  and  O_2
REMARK    2  A    between atoms: O_2  and  C_3
REMARK    3  A    between atoms: C_3  and  C_4
REMARK    4  A    between atoms: C_4  and  O_5
REMARK    5  A    between atoms: O_5  and  C_6
REMARK    6  A    between atoms: C_11  and  C_12
REMARK    7  A    between atoms: C_13  and  C_14
REMARK    8  A    between atoms: C_14  and  C_16
REMARK    9  A    between atoms: C_16  and  C_17
REMARK   10  A    between atoms: C_16  and  C_18
REMARK   11  A    between atoms: N_23  and  C_24
REMARK   12  A    between atoms: C_27  and  C_28
REMARK                            x       y       z     vdW  Elec       q    Type
REMARK                         _______ _______ _______ _____ _____    ______ ____
ROOT
ATOM      1  C   UNL     1       8.721  15.175  20.408  0.00  0.00    +0.000 C 
ATOM      2  C   UNL     1       9.941  16.132  20.281  0.00  0.00    +0.000 C 
ATOM      3  C   UNL     1       9.236  17.433  20.334  0.00  0.00    +0.000 C 
ATOM      4  O   UNL     1       9.717  18.491  20.661  0.00  0.00    +0.000 OA
ATOM      5  C   UNL     1       7.749  17.239  19.996  0.00  0.00    +0.000 C 
ATOM      6  O   UNL     1       7.014  18.179  19.758  0.00  0.00    +0.000 OA
ATOM      7  N   UNL     1       7.501  15.876  20.053  0.00  0.00    +0.000 N 
ENDROOT
BRANCH   1  13
ATOM      8  C   UNL     1       9.214  12.610  20.555  0.00  0.00    +0.000 A 
ATOM      9  C   UNL     1       9.368  11.440  19.791  0.00  0.00    +0.000 A 
ATOM     10  C   UNL     1       9.202  11.409  18.410  0.00  0.00    +0.000 A 
ATOM     11  C   UNL     1       8.946  12.568  17.708  0.00  0.00    +0.000 A 
ATOM     12  C   UNL     1       8.810  13.752  18.413  0.00  0.00    +0.000 A 
ATOM     13  C   UNL     1       8.894  13.791  19.837  0.00  0.00    +0.000 A 
BRANCH   8  14
ATOM     14  O   UNL     1       9.421  12.595  21.947  0.00  0.00    +0.000 OA
BRANCH  14  15
ATOM     15  C   UNL     1       8.372  11.883  22.654  0.00  0.00    +0.000 C 
BRANCH  15  16
ATOM     16  C   UNL     1       7.981  12.177  24.114  0.00  0.00    +0.000 C 
BRANCH  16  18
ATOM     17  C   UNL     1       6.350  11.290  25.680  0.00  0.00    +0.000 C 
ATOM     18  O   UNL     1       6.945  11.207  24.395  0.00  0.00    +0.000 OA
ENDBRANCH  16  18
ENDBRANCH  15  16
ENDBRANCH  14  15
ENDBRANCH   8  14
ENDBRANCH   1  13
BRANCH   7  19
ATOM     19  C   UNL     1       6.221  15.232  19.881  0.00  0.00    +0.000 A 
ATOM     20  C   UNL     1       5.496  14.835  21.001  0.00  0.00    +0.000 A 
ATOM     21  C   UNL     1       4.133  14.451  20.878  0.00  0.00    +0.000 A 
ATOM     22  C   UNL     1       3.495  14.417  19.636  0.00  0.00    +0.000 A 
ATOM     23  C   UNL     1       4.250  14.730  18.512  0.00  0.00    +0.000 A 
ATOM     24  C   UNL     1       5.595  15.109  18.634  0.00  0.00    +0.000 A 
BRANCH  22  25
ATOM     25  C   UNL     1       2.083  14.052  19.501  0.00  0.00    +0.000 A 
ATOM     26  C   UNL     1       1.115  14.302  20.457  0.00  0.00    +0.000 A 
ATOM     27  S   UNL     1      -0.406  13.699  19.947  0.00  0.00    +0.000 S 
ATOM     28  C   UNL     1       0.324  13.160  18.496  0.00  0.00    +0.000 A 
ATOM     29  N   UNL     1       1.611  13.399  18.367  0.00  0.00    +0.000 NA
ENDBRANCH  22  25
ENDBRANCH   7  19
BRANCH   2  30
ATOM     30  C   UNL     1      11.033  16.006  19.188  0.00  0.00    +0.000 C 
ATOM     31  O   UNL     1      12.013  15.285  19.429  0.00  0.00    +0.000 OA
BRANCH  30  32
ATOM     32  C   UNL     1      10.943  16.746  17.821  0.00  0.00    +0.000 C 
ATOM     33  C   UNL     1      11.821  17.993  17.637  0.00  0.00    +0.000 C 
ATOM     34  C   UNL     1      11.298  15.823  16.636  0.00  0.00    +0.000 C 
ENDBRANCH  30  32
ENDBRANCH   2  30
TORSDOF 9
ENDMDL
MODEL 8
REMARK VINA RESULT:      -6.1      5.992     10.785
REMARK  Name = 
REMARK  12 active torsions:
REMARK  status: ('A' for Active; 'I' for Inactive)
REMARK    1  A    between atoms: C_1  and  O_2
REMARK    2  A    between atoms: O_2  and  C_3
REMARK    3  A    between atoms: C_3  and  C_4
REMARK    4  A    between atoms: C_4  and  O_5
REMARK    5  A    between atoms: O_5  and  C_6
REMARK    6  A    between atoms: C_11  and  C_12
REMARK    7  A    between atoms: C_13  and  C_14
REMARK    8  A    between atoms: C_14  and  C_16
REMARK    9  A    between atoms: C_16  and  C_17
REMARK   10  A    between atoms: C_16  and  C_18
REMARK   11  A    between atoms: N_23  and  C_24
REMARK   12  A    between atoms: C_27  and  C_28
REMARK                            x       y       z     vdW  Elec       q    Type
REMARK                         _______ _______ _______ _____ _____    ______ ____
ROOT
ATOM      1  C   UNL     1       0.179  13.602  21.918  0.00  0.00    +0.000 C 
ATOM      2  C   UNL     1      -0.676  14.870  22.204  0.00  0.00    +0.000 C 
ATOM      3  C   UNL     1      -1.882  14.227  22.773  0.00  0.00    +0.000 C 
ATOM      4  O   UNL     1      -2.687  14.747  23.506  0.00  0.00    +0.000 OA
ATOM      5  C   UNL     1      -1.928  12.745  22.368  0.00  0.00    +0.000 C 
ATOM      6  O   UNL     1      -2.924  12.065  22.523  0.00  0.00    +0.000 OA
ATOM      7  N   UNL     1      -0.675  12.430  21.864  0.00  0.00    +0.000 N 
ENDROOT
BRANCH   1  13
ATOM      8  C   UNL     1       2.601  14.004  21.014  0.00  0.00    +0.000 A 
ATOM      9  C   UNL     1       3.369  14.118  19.842  0.00  0.00    +0.000 A 
ATOM     10  C   UNL     1       2.835  13.955  18.568  0.00  0.00    +0.000 A 
ATOM     11  C   UNL     1       1.485  13.742  18.395  0.00  0.00    +0.000 A 
ATOM     12  C   UNL     1       0.680  13.645  19.518  0.00  0.00    +0.000 A 
ATOM     13  C   UNL     1       1.221  13.727  20.836  0.00  0.00    +0.000 A 
BRANCH   8  14
ATOM     14  O   UNL     1       3.182  14.207  22.280  0.00  0.00    +0.000 OA
BRANCH  14  15
ATOM     15  C   UNL     1       4.594  14.534  22.194  0.00  0.00    +0.000 C 
BRANCH  15  16
ATOM     16  C   UNL     1       5.596  14.274  23.333  0.00  0.00    +0.000 C 
BRANCH  16  18
ATOM     17  C   UNL     1       6.438  12.000  23.471  0.00  0.00    +0.000 C 
ATOM     18  O   UNL     1       5.359  12.892  23.692  0.00  0.00    +0.000 OA
ENDBRANCH  16  18
ENDBRANCH  15  16
ENDBRANCH  14  15
ENDBRANCH   8  14
ENDBRANCH   1  13
BRANCH   7  19
ATOM     19  C   UNL     1      -0.232  11.127  21.430  0.00  0.00    +0.000 A 
ATOM     20  C   UNL     1      -0.324  10.784  20.084  0.00  0.00    +0.000 A 
ATOM     21  C   UNL     1       0.343   9.631  19.587  0.00  0.00    +0.000 A 
ATOM     22  C   UNL     1       1.071   8.790  20.431  0.00  0.00    +0.000 A 
ATOM     23  C   UNL     1       1.086   9.091  21.788  0.00  0.00    +0.000 A 
ATOM     24  C   UNL     1       0.426  10.227  22.278  0.00  0.00    +0.000 A 
BRANCH  22  25
ATOM     25  C   UNL     1       1.787   7.618  19.925  0.00  0.00    +0.000 A 
ATOM     26  C   UNL     1       2.468   7.575  18.721  0.00  0.00    +0.000 A 
ATOM     27  S   UNL     1       3.149   6.023  18.468  0.00  0.00    +0.000 S 
ATOM     28  C   UNL     1       2.503   5.523  19.972  0.00  0.00    +0.000 A 
ATOM     29  N   UNL     1       1.823   6.427  20.643  0.00  0.00    +0.000 NA
ENDBRANCH  22  25
ENDBRANCH   7  19
BRANCH   2  30
ATOM     30  C   UNL     1      -0.940  15.991  21.167  0.00  0.00    +0.000 C 
ATOM     31  O   UNL     1      -1.952  15.894  20.456  0.00  0.00    +0.000 OA
BRANCH  30  32
ATOM     32  C   UNL     1       0.009  17.211  20.988  0.00  0.00    +0.000 C 
ATOM     33  C   UNL     1       1.197  17.328  21.954  0.00  0.00    +0.000 C 
ATOM     34  C   UNL     1       0.631  17.263  19.576  0.00  0.00    +0.000 C 
ENDBRANCH  30  32
ENDBRANCH   2  30
TORSDOF 9
ENDMDL
MODEL 9
REMARK VINA RESULT:      -6.1      7.806     10.490
REMARK  Name = 
REMARK  12 active torsions:
REMARK  status: ('A' for Active; 'I' for Inactive)
REMARK    1  A    between atoms: C_1  and  O_2
REMARK    2  A    between atoms: O_2  and  C_3
REMARK    3  A    between atoms: C_3  and  C_4
REMARK    4  A    between atoms: C_4  and  O_5
REMARK    5  A    between atoms: O_5  and  C_6
REMARK    6  A    between atoms: C_11  and  C_12
REMARK    7  A    between atoms: C_13  and  C_14
REMARK    8  A    between atoms: C_14  and  C_16
REMARK    9  A    between atoms: C_16  and  C_17
REMARK   10  A    between atoms: C_16  and  C_18
REMARK   11  A    between atoms: N_23  and  C_24
REMARK   12  A    between atoms: C_27  and  C_28
REMARK                            x       y       z     vdW  Elec       q    Type
REMARK                         _______ _______ _______ _____ _____    ______ ____
ROOT
ATOM      1  C   UNL     1      -1.122  13.890  19.877  0.00  0.00    +0.000 C 
ATOM      2  C   UNL     1      -2.474  14.147  20.601  0.00  0.00    +0.000 C 
ATOM      3  C   UNL     1      -2.213  15.505  21.129  0.00  0.00    +0.000 C 
ATOM      4  O   UNL     1      -3.048  16.323  21.433  0.00  0.00    +0.000 OA
ATOM      5  C   UNL     1      -0.701  15.776  21.158  0.00  0.00    +0.000 C 
ATOM      6  O   UNL     1      -0.228  16.726  21.752  0.00  0.00    +0.000 OA
ATOM      7  N   UNL     1      -0.102  14.783  20.398  0.00  0.00    +0.000 N 
ENDROOT
BRANCH   1  13
ATOM      8  C   UNL     1      -1.123  11.586  18.638  0.00  0.00    +0.000 A 
ATOM      9  C   UNL     1      -0.656  10.262  18.707  0.00  0.00    +0.000 A 
ATOM     10  C   UNL     1       0.169   9.802  19.729  0.00  0.00    +0.000 A 
ATOM     11  C   UNL     1       0.508  10.625  20.781  0.00  0.00    +0.000 A 
ATOM     12  C   UNL     1       0.053  11.933  20.772  0.00  0.00    +0.000 A 
ATOM     13  C   UNL     1      -0.724  12.448  19.692  0.00  0.00    +0.000 A 
BRANCH   8  14
ATOM     14  O   UNL     1      -1.977  11.996  17.598  0.00  0.00    +0.000 OA
BRANCH  14  15
ATOM     15  C   UNL     1      -3.237  11.273  17.601  0.00  0.00    +0.000 C 
BRANCH  15  16
ATOM     16  C   UNL     1      -4.258  11.343  16.451  0.00  0.00    +0.000 C 
BRANCH  16  18
ATOM     17  C   UNL     1      -3.009  10.031  14.833  0.00  0.00    +0.000 C 
ATOM     18  O   UNL     1      -3.438  11.313  15.259  0.00  0.00    +0.000 OA
ENDBRANCH  16  18
ENDBRANCH  15  16
ENDBRANCH  14  15
ENDBRANCH   8  14
ENDBRANCH   1  13
BRANCH   7  19
ATOM     19  C   UNL     1       1.301  14.677  20.082  0.00  0.00    +0.000 A 
ATOM     20  C   UNL     1       1.729  14.897  18.775  0.00  0.00    +0.000 A 
ATOM     21  C   UNL     1       3.111  15.065  18.488  0.00  0.00    +0.000 A 
ATOM     22  C   UNL     1       4.080  14.975  19.490  0.00  0.00    +0.000 A 
ATOM     23  C   UNL     1       3.653  14.669  20.777  0.00  0.00    +0.000 A 
ATOM     24  C   UNL     1       2.289  14.501  21.059  0.00  0.00    +0.000 A 
BRANCH  22  25
ATOM     25  C   UNL     1       5.503  15.177  19.211  0.00  0.00    +0.000 A 
ATOM     26  C   UNL     1       6.104  14.929  17.990  0.00  0.00    +0.000 A 
ATOM     27  S   UNL     1       7.785  15.257  18.068  0.00  0.00    +0.000 S 
ATOM     28  C   UNL     1       7.593  15.714  19.706  0.00  0.00    +0.000 A 
ATOM     29  N   UNL     1       6.373  15.640  20.192  0.00  0.00    +0.000 NA
ENDBRANCH  22  25
ENDBRANCH   7  19
BRANCH   2  30
ATOM     30  C   UNL     1      -3.128  13.155  21.596  0.00  0.00    +0.000 C 
ATOM     31  O   UNL     1      -4.075  12.465  21.187  0.00  0.00    +0.000 OA
BRANCH  30  32
ATOM     32  C   UNL     1      -2.646  13.001  23.068  0.00  0.00    +0.000 C 
ATOM     33  C   UNL     1      -3.677  13.262  24.177  0.00  0.00    +0.000 C 
ATOM     34  C   UNL     1      -2.093  11.589  23.355  0.00  0.00    +0.000 C 
ENDBRANCH  30  32
ENDBRANCH   2  30
TORSDOF 9
ENDMDL
