MODEL 1
REMARK VINA RESULT:      -8.6      0.000      0.000
REMARK  Name = 
REMARK  13 active torsions:
REMARK  status: ('A' for Active; 'I' for Inactive)
REMARK    1  A    between atoms: C_1  and  C_2
REMARK    2  A    between atoms: C_4  and  C_5
REMARK    3  A    between atoms: C_7  and  C_8
REMARK    4  A    between atoms: C_11  and  O_12
REMARK    5  A    between atoms: O_12  and  C_13
REMARK    6  A    between atoms: C_13  and  C_14
REMARK    7  A    between atoms: C_14  and  N_15
REMARK    8  A    between atoms: N_15  and  C_16
REMARK    9  A    between atoms: N_15  and  C_17
REMARK   10  A    between atoms: C_18  and  C_19
REMARK   11  A    between atoms: C_20  and  C_21
REMARK   12  A    between atoms: C_21  and  C_23
REMARK   13  A    between atoms: C_28  and  N_29
REMARK                            x       y       z     vdW  Elec       q    Type
REMARK                         _______ _______ _______ _____ _____    ______ ____
ROOT
ATOM      1  C   UNL     1       5.433   4.763  15.949  0.00  0.00    +0.000 A 
ATOM      2  C   UNL     1       5.587   3.796  16.941  0.00  0.00    +0.000 A 
ATOM      3  C   UNL     1       5.050   3.980  18.206  0.00  0.00    +0.000 A 
ATOM      4  C   UNL     1       4.434   5.188  18.580  0.00  0.00    +0.000 A 
ATOM      5  C   UNL     1       4.210   6.168  17.597  0.00  0.00    +0.000 A 
ATOM      6  C   UNL     1       4.709   5.918  16.294  0.00  0.00    +0.000 A 
ENDROOT
BRANCH   1  13
ATOM      7  C   UNL     1       5.421   2.425  11.499  0.00  0.00    +0.000 C 
ATOM      8  C   UNL     1       6.013   3.452  12.418  0.00  0.00    +0.000 A 
ATOM      9  C   UNL     1       7.112   4.224  12.025  0.00  0.00    +0.000 A 
ATOM     10  C   UNL     1       7.668   5.162  12.899  0.00  0.00    +0.000 A 
ATOM     11  C   UNL     1       8.830   6.024  12.506  0.00  0.00    +0.000 C 
ATOM     12  C   UNL     1       7.119   5.306  14.178  0.00  0.00    +0.000 A 
ATOM     13  C   UNL     1       6.007   4.557  14.602  0.00  0.00    +0.000 A 
ATOM     14  C   UNL     1       5.465   3.635  13.692  0.00  0.00    +0.000 A 
ENDBRANCH   1  13
BRANCH   5  15
ATOM     15  C   UNL     1       3.533   7.475  17.749  0.00  0.00    +0.000 C 
ATOM     16  C   UNL     1       2.292   7.733  18.184  0.00  0.00    +0.000 C 
BRANCH  16  17
ATOM     17  C   UNL     1       1.816   9.149  18.179  0.00  0.00    +0.000 C 
ATOM     18  O   UNL     1       2.073   9.917  17.254  0.00  0.00    +0.000 OA
BRANCH  17  19
ATOM     19  C   UNL     1       0.997   9.606  19.343  0.00  0.00    +0.000 A 
ATOM     20  C   UNL     1       1.131   8.955  20.582  0.00  0.00    +0.000 A 
ATOM     21  C   UNL     1       0.362   9.348  21.675  0.00  0.00    +0.000 A 
ATOM     22  C   UNL     1      -0.550  10.391  21.536  0.00  0.00    +0.000 A 
ATOM     23  C   UNL     1      -0.699  11.031  20.304  0.00  0.00    +0.000 A 
ATOM     24  C   UNL     1       0.033  10.621  19.180  0.00  0.00    +0.000 A 
BRANCH  24  25
ATOM     25  N   UNL     1      -0.059  11.395  18.005  0.00  0.00    +0.000 N 
ATOM     26  H   UNL     1      -0.365  10.876  17.189  0.00  0.00    +0.000 HD
ATOM     27  H   UNL     1       0.818  11.901  17.827  0.00  0.00    +0.000 HD
ENDBRANCH  24  25
ENDBRANCH  17  19
ENDBRANCH  16  17
ENDBRANCH   5  15
BRANCH   4  28
ATOM     28  O   UNL     1       4.103   5.428  19.906  0.00  0.00    +0.000 OA
BRANCH  28  29
ATOM     29  C   UNL     1       3.302   4.364  20.451  0.00  0.00    +0.000 C 
BRANCH  29  30
ATOM     30  C   UNL     1       1.861   4.751  20.784  0.00  0.00    +0.000 C 
BRANCH  30  31
ATOM     31  N   UNL     1       0.949   3.585  20.668  0.00  0.00    +0.000 NA
ATOM     32  C   UNL     1       0.937   2.998  19.322  0.00  0.00    +0.000 C 
ATOM     33  C   UNL     1       1.311   2.557  21.643  0.00  0.00    +0.000 C 
ENDBRANCH  30  31
ENDBRANCH  29  30
ENDBRANCH  28  29
ENDBRANCH   4  28
TORSDOF 9
ENDMDL
MODEL 2
REMARK VINA RESULT:      -8.5      2.526      8.429
REMARK  Name = 
REMARK  13 active torsions:
REMARK  status: ('A' for Active; 'I' for Inactive)
REMARK    1  A    between atoms: C_1  and  C_2
REMARK    2  A    between atoms: C_4  and  C_5
REMARK    3  A    between atoms: C_7  and  C_8
REMARK    4  A    between atoms: C_11  and  O_12
REMARK    5  A    between atoms: O_12  and  C_13
REMARK    6  A    between atoms: C_13  and  C_14
REMARK    7  A    between atoms: C_14  and  N_15
REMARK    8  A    between atoms: N_15  and  C_16
REMARK    9  A    between atoms: N_15  and  C_17
REMARK   10  A    between atoms: C_18  and  C_19
REMARK   11  A    between atoms: C_20  and  C_21
REMARK   12  A    between atoms: C_21  and  C_23
REMARK   13  A    between atoms: C_28  and  N_29
REMARK                            x       y       z     vdW  Elec       q    Type
REMARK                         _______ _______ _______ _____ _____    ______ ____
ROOT
ATOM      1  C   UNL     1       2.499   6.730  19.973  0.00  0.00    +0.000 A 
ATOM      2  C   UNL     1       2.299   5.589  20.747  0.00  0.00    +0.000 A 
ATOM      3  C   UNL     1       3.079   4.456  20.565  0.00  0.00    +0.000 A 
ATOM      4  C   UNL     1       4.019   4.366  19.522  0.00  0.00    +0.000 A 
ATOM      5  C   UNL     1       4.290   5.510  18.751  0.00  0.00    +0.000 A 
ATOM      6  C   UNL     1       3.524   6.675  19.011  0.00  0.00    +0.000 A 
ENDROOT
BRANCH   1  13
ATOM      7  C   UNL     1       0.431  10.966  18.229  0.00  0.00    +0.000 C 
ATOM      8  C   UNL     1       0.626   9.990  19.351  0.00  0.00    +0.000 A 
ATOM      9  C   UNL     1       0.033  10.198  20.601  0.00  0.00    +0.000 A 
ATOM     10  C   UNL     1       0.241   9.293  21.644  0.00  0.00    +0.000 A 
ATOM     11  C   UNL     1      -0.396   9.469  22.990  0.00  0.00    +0.000 C 
ATOM     12  C   UNL     1       1.063   8.182  21.424  0.00  0.00    +0.000 A 
ATOM     13  C   UNL     1       1.664   7.933  20.176  0.00  0.00    +0.000 A 
ATOM     14  C   UNL     1       1.421   8.856  19.147  0.00  0.00    +0.000 A 
ENDBRANCH   1  13
BRANCH   5  15
ATOM     15  C   UNL     1       5.272   5.660  17.655  0.00  0.00    +0.000 C 
ATOM     16  C   UNL     1       5.425   4.909  16.556  0.00  0.00    +0.000 C 
BRANCH  16  17
ATOM     17  C   UNL     1       6.549   5.231  15.625  0.00  0.00    +0.000 C 
ATOM     18  O   UNL     1       7.500   5.928  15.972  0.00  0.00    +0.000 OA
BRANCH  17  19
ATOM     19  C   UNL     1       6.485   4.663  14.243  0.00  0.00    +0.000 A 
ATOM     20  C   UNL     1       5.406   3.837  13.884  0.00  0.00    +0.000 A 
ATOM     21  C   UNL     1       5.337   3.277  12.610  0.00  0.00    +0.000 A 
ATOM     22  C   UNL     1       6.347   3.536  11.688  0.00  0.00    +0.000 A 
ATOM     23  C   UNL     1       7.430   4.344  12.044  0.00  0.00    +0.000 A 
ATOM     24  C   UNL     1       7.542   4.879  13.336  0.00  0.00    +0.000 A 
BRANCH  24  25
ATOM     25  N   UNL     1       8.580   5.798  13.589  0.00  0.00    +0.000 N 
ATOM     26  H   UNL     1       8.980   5.726  14.520  0.00  0.00    +0.000 HD
ATOM     27  H   UNL     1       8.285   6.759  13.376  0.00  0.00    +0.000 HD
ENDBRANCH  24  25
ENDBRANCH  17  19
ENDBRANCH  16  17
ENDBRANCH   5  15
BRANCH   4  28
ATOM     28  O   UNL     1       4.626   3.154  19.225  0.00  0.00    +0.000 OA
BRANCH  28  29
ATOM     29  C   UNL     1       3.657   2.153  18.863  0.00  0.00    +0.000 C 
BRANCH  29  30
ATOM     30  C   UNL     1       2.970   2.384  17.516  0.00  0.00    +0.000 C 
BRANCH  30  31
ATOM     31  N   UNL     1       1.519   2.649  17.690  0.00  0.00    +0.000 NA
ATOM     32  C   UNL     1       1.016   2.237  19.007  0.00  0.00    +0.000 C 
ATOM     33  C   UNL     1       1.231   4.067  17.481  0.00  0.00    +0.000 C 
ENDBRANCH  30  31
ENDBRANCH  29  30
ENDBRANCH  28  29
ENDBRANCH   4  28
TORSDOF 9
ENDMDL
MODEL 3
REMARK VINA RESULT:      -8.4      0.540      1.668
REMARK  Name = 
REMARK  13 active torsions:
REMARK  status: ('A' for Active; 'I' for Inactive)
REMARK    1  A    between atoms: C_1  and  C_2
REMARK    2  A    between atoms: C_4  and  C_5
REMARK    3  A    between atoms: C_7  and  C_8
REMARK    4  A    between atoms: C_11  and  O_12
REMARK    5  A    between atoms: O_12  and  C_13
REMARK    6  A    between atoms: C_13  and  C_14
REMARK    7  A    between atoms: C_14  and  N_15
REMARK    8  A    between atoms: N_15  and  C_16
REMARK    9  A    between atoms: N_15  and  C_17
REMARK   10  A    between atoms: C_18  and  C_19
REMARK   11  A    between atoms: C_20  and  C_21
REMARK   12  A    between atoms: C_21  and  C_23
REMARK   13  A    between atoms: C_28  and  N_29
REMARK                            x       y       z     vdW  Elec       q    Type
REMARK                         _______ _______ _______ _____ _____    ______ ____
ROOT
ATOM      1  C   UNL     1       5.218   4.712  16.013  0.00  0.00    +0.000 A 
ATOM      2  C   UNL     1       5.220   3.657  16.924  0.00  0.00    +0.000 A 
ATOM      3  C   UNL     1       4.614   3.784  18.165  0.00  0.00    +0.000 A 
ATOM      4  C   UNL     1       4.078   5.008  18.605  0.00  0.00    +0.000 A 
ATOM      5  C   UNL     1       4.007   6.082  17.700  0.00  0.00    +0.000 A 
ATOM      6  C   UNL     1       4.572   5.896  16.413  0.00  0.00    +0.000 A 
ENDROOT
BRANCH   1  13
ATOM      7  C   UNL     1       8.826   5.963  12.745  0.00  0.00    +0.000 C 
ATOM      8  C   UNL     1       7.620   5.138  13.086  0.00  0.00    +0.000 A 
ATOM      9  C   UNL     1       7.085   4.229  12.168  0.00  0.00    +0.000 A 
ATOM     10  C   UNL     1       5.948   3.483  12.490  0.00  0.00    +0.000 A 
ATOM     11  C   UNL     1       5.358   2.482  11.542  0.00  0.00    +0.000 C 
ATOM     12  C   UNL     1       5.345   3.671  13.738  0.00  0.00    +0.000 A 
ATOM     13  C   UNL     1       5.864   4.567  14.691  0.00  0.00    +0.000 A 
ATOM     14  C   UNL     1       7.015   5.287  14.339  0.00  0.00    +0.000 A 
ENDBRANCH   1  13
BRANCH   5  15
ATOM     15  C   UNL     1       3.434   7.427  17.924  0.00  0.00    +0.000 C 
ATOM     16  C   UNL     1       2.147   7.787  18.023  0.00  0.00    +0.000 C 
BRANCH  16  17
ATOM     17  C   UNL     1       1.824   9.237  18.184  0.00  0.00    +0.000 C 
ATOM     18  O   UNL     1       2.211  10.082  17.378  0.00  0.00    +0.000 OA
BRANCH  17  19
ATOM     19  C   UNL     1       0.994   9.632  19.363  0.00  0.00    +0.000 A 
ATOM     20  C   UNL     1       1.160   8.958  20.584  0.00  0.00    +0.000 A 
ATOM     21  C   UNL     1       0.381   9.293  21.690  0.00  0.00    +0.000 A 
ATOM     22  C   UNL     1      -0.571  10.303  21.581  0.00  0.00    +0.000 A 
ATOM     23  C   UNL     1      -0.751  10.967  20.366  0.00  0.00    +0.000 A 
ATOM     24  C   UNL     1      -0.010  10.613  19.229  0.00  0.00    +0.000 A 
BRANCH  24  25
ATOM     25  N   UNL     1      -0.138  11.412  18.074  0.00  0.00    +0.000 N 
ATOM     26  H   UNL     1      -0.231  10.884  17.212  0.00  0.00    +0.000 HD
ATOM     27  H   UNL     1       0.621  12.103  18.017  0.00  0.00    +0.000 HD
ENDBRANCH  24  25
ENDBRANCH  17  19
ENDBRANCH  16  17
ENDBRANCH   5  15
BRANCH   4  28
ATOM     28  O   UNL     1       3.678   5.167  19.924  0.00  0.00    +0.000 OA
BRANCH  28  29
ATOM     29  C   UNL     1       2.261   4.965  20.073  0.00  0.00    +0.000 C 
BRANCH  29  30
ATOM     30  C   UNL     1       1.871   3.706  20.850  0.00  0.00    +0.000 C 
BRANCH  30  31
ATOM     31  N   UNL     1       1.326   2.662  19.944  0.00  0.00    +0.000 NA
ATOM     32  C   UNL     1       0.805   3.211  18.686  0.00  0.00    +0.000 C 
ATOM     33  C   UNL     1       2.348   1.659  19.651  0.00  0.00    +0.000 C 
ENDBRANCH  30  31
ENDBRANCH  29  30
ENDBRANCH  28  29
ENDBRANCH   4  28
TORSDOF 9
ENDMDL
MODEL 4
REMARK VINA RESULT:      -8.1      0.889      1.987
REMARK  Name = 
REMARK  13 active torsions:
REMARK  status: ('A' for Active; 'I' for Inactive)
REMARK    1  A    between atoms: C_1  and  C_2
REMARK    2  A    between atoms: C_4  and  C_5
REMARK    3  A    between atoms: C_7  and  C_8
REMARK    4  A    between atoms: C_11  and  O_12
REMARK    5  A    between atoms: O_12  and  C_13
REMARK    6  A    between atoms: C_13  and  C_14
REMARK    7  A    between atoms: C_14  and  N_15
REMARK    8  A    between atoms: N_15  and  C_16
REMARK    9  A    between atoms: N_15  and  C_17
REMARK   10  A    between atoms: C_18  and  C_19
REMARK   11  A    between atoms: C_20  and  C_21
REMARK   12  A    between atoms: C_21  and  C_23
REMARK   13  A    between atoms: C_28  and  N_29
REMARK                            x       y       z     vdW  Elec       q    Type
REMARK                         _______ _______ _______ _____ _____    ______ ____
ROOT
ATOM      1  C   UNL     1       5.371   4.819  15.938  0.00  0.00    +0.000 A 
ATOM      2  C   UNL     1       5.455   3.825  16.911  0.00  0.00    +0.000 A 
ATOM      3  C   UNL     1       4.880   3.997  18.161  0.00  0.00    +0.000 A 
ATOM      4  C   UNL     1       4.292   5.218  18.542  0.00  0.00    +0.000 A 
ATOM      5  C   UNL     1       4.138   6.227  17.576  0.00  0.00    +0.000 A 
ATOM      6  C   UNL     1       4.674   5.991  16.285  0.00  0.00    +0.000 A 
ENDROOT
BRANCH   1  13
ATOM      7  C   UNL     1       8.880   5.970  12.529  0.00  0.00    +0.000 C 
ATOM      8  C   UNL     1       7.693   5.147  12.935  0.00  0.00    +0.000 A 
ATOM      9  C   UNL     1       7.147   4.192  12.070  0.00  0.00    +0.000 A 
ATOM     10  C   UNL     1       6.027   3.449  12.453  0.00  0.00    +0.000 A 
ATOM     11  C   UNL     1       5.427   2.401  11.564  0.00  0.00    +0.000 C 
ATOM     12  C   UNL     1       5.453   3.683  13.707  0.00  0.00    +0.000 A 
ATOM     13  C   UNL     1       5.985   4.624  14.607  0.00  0.00    +0.000 A 
ATOM     14  C   UNL     1       7.118   5.342  14.196  0.00  0.00    +0.000 A 
ENDBRANCH   1  13
BRANCH   5  15
ATOM     15  C   UNL     1       3.500   7.553  17.736  0.00  0.00    +0.000 C 
ATOM     16  C   UNL     1       2.273   7.847  18.188  0.00  0.00    +0.000 C 
BRANCH  16  17
ATOM     17  C   UNL     1       1.838   9.276  18.188  0.00  0.00    +0.000 C 
ATOM     18  O   UNL     1       2.230  10.074  17.339  0.00  0.00    +0.000 OA
BRANCH  17  19
ATOM     19  C   UNL     1       0.889   9.708  19.259  0.00  0.00    +0.000 A 
ATOM     20  C   UNL     1      -0.073  10.693  18.977  0.00  0.00    +0.000 A 
ATOM     21  C   UNL     1      -0.952  11.128  19.965  0.00  0.00    +0.000 A 
ATOM     22  C   UNL     1      -0.874  10.584  21.245  0.00  0.00    +0.000 A 
ATOM     23  C   UNL     1       0.090   9.617  21.536  0.00  0.00    +0.000 A 
ATOM     24  C   UNL     1       1.014   9.199  20.568  0.00  0.00    +0.000 A 
BRANCH  24  25
ATOM     25  N   UNL     1       1.867   8.121  20.882  0.00  0.00    +0.000 N 
ATOM     26  H   UNL     1       1.769   7.778  21.832  0.00  0.00    +0.000 HD
ATOM     27  H   UNL     1       2.845   8.346  20.659  0.00  0.00    +0.000 HD
ENDBRANCH  24  25
ENDBRANCH  17  19
ENDBRANCH  16  17
ENDBRANCH   5  15
BRANCH   4  28
ATOM     28  O   UNL     1       3.922   5.438  19.861  0.00  0.00    +0.000 OA
BRANCH  28  29
ATOM     29  C   UNL     1       3.103   4.368  20.365  0.00  0.00    +0.000 C 
BRANCH  29  30
ATOM     30  C   UNL     1       1.596   4.614  20.272  0.00  0.00    +0.000 C 
BRANCH  30  31
ATOM     31  N   UNL     1       0.836   3.342  20.374  0.00  0.00    +0.000 NA
ATOM     32  C   UNL     1       0.899   2.537  19.148  0.00  0.00    +0.000 C 
ATOM     33  C   UNL     1       1.320   2.549  21.503  0.00  0.00    +0.000 C 
ENDBRANCH  30  31
ENDBRANCH  29  30
ENDBRANCH  28  29
ENDBRANCH   4  28
TORSDOF 9
ENDMDL
MODEL 5
REMARK VINA RESULT:      -8.1      1.103      1.481
REMARK  Name = 
REMARK  13 active torsions:
REMARK  status: ('A' for Active; 'I' for Inactive)
REMARK    1  A    between atoms: C_1  and  C_2
REMARK    2  A    between atoms: C_4  and  C_5
REMARK    3  A    between atoms: C_7  and  C_8
REMARK    4  A    between atoms: C_11  and  O_12
REMARK    5  A    between atoms: O_12  and  C_13
REMARK    6  A    between atoms: C_13  and  C_14
REMARK    7  A    between atoms: C_14  and  N_15
REMARK    8  A    between atoms: N_15  and  C_16
REMARK    9  A    between atoms: N_15  and  C_17
REMARK   10  A    between atoms: C_18  and  C_19
REMARK   11  A    between atoms: C_20  and  C_21
REMARK   12  A    between atoms: C_21  and  C_23
REMARK   13  A    between atoms: C_28  and  N_29
REMARK                            x       y       z     vdW  Elec       q    Type
REMARK                         _______ _______ _______ _____ _____    ______ ____
ROOT
ATOM      1  C   UNL     1       5.171   4.966  16.097  0.00  0.00    +0.000 A 
ATOM      2  C   UNL     1       5.186   4.016  17.115  0.00  0.00    +0.000 A 
ATOM      3  C   UNL     1       4.585   4.270  18.339  0.00  0.00    +0.000 A 
ATOM      4  C   UNL     1       4.041   5.531  18.648  0.00  0.00    +0.000 A 
ATOM      5  C   UNL     1       3.957   6.500  17.633  0.00  0.00    +0.000 A 
ATOM      6  C   UNL     1       4.517   6.181  16.370  0.00  0.00    +0.000 A 
ENDROOT
BRANCH   1  13
ATOM      7  C   UNL     1       5.268   2.517  11.709  0.00  0.00    +0.000 C 
ATOM      8  C   UNL     1       5.875   3.524  12.640  0.00  0.00    +0.000 A 
ATOM      9  C   UNL     1       7.049   4.205  12.302  0.00  0.00    +0.000 A 
ATOM     10  C   UNL     1       7.615   5.124  13.189  0.00  0.00    +0.000 A 
ATOM     11  C   UNL     1       8.859   5.891  12.853  0.00  0.00    +0.000 C 
ATOM     12  C   UNL     1       6.999   5.341  14.426  0.00  0.00    +0.000 A 
ATOM     13  C   UNL     1       5.811   4.684  14.794  0.00  0.00    +0.000 A 
ATOM     14  C   UNL     1       5.262   3.779  13.872  0.00  0.00    +0.000 A 
ENDBRANCH   1  13
BRANCH   5  15
ATOM     15  C   UNL     1       3.374   7.857  17.714  0.00  0.00    +0.000 C 
ATOM     16  C   UNL     1       2.109   8.214  17.975  0.00  0.00    +0.000 C 
BRANCH  16  17
ATOM     17  C   UNL     1       1.755   9.666  17.932  0.00  0.00    +0.000 C 
ATOM     18  O   UNL     1       2.584  10.527  17.642  0.00  0.00    +0.000 OA
BRANCH  17  19
ATOM     19  C   UNL     1       0.343  10.041  18.244  0.00  0.00    +0.000 A 
ATOM     20  C   UNL     1      -0.689   9.635  17.381  0.00  0.00    +0.000 A 
ATOM     21  C   UNL     1      -2.010   9.994  17.639  0.00  0.00    +0.000 A 
ATOM     22  C   UNL     1      -2.309  10.763  18.760  0.00  0.00    +0.000 A 
ATOM     23  C   UNL     1      -1.287  11.183  19.613  0.00  0.00    +0.000 A 
ATOM     24  C   UNL     1       0.055  10.872  19.347  0.00  0.00    +0.000 A 
BRANCH  24  25
ATOM     25  N   UNL     1       1.022  11.203  20.317  0.00  0.00    +0.000 N 
ATOM     26  H   UNL     1       1.178  10.478  21.011  0.00  0.00    +0.000 HD
ATOM     27  H   UNL     1       0.812  12.108  20.756  0.00  0.00    +0.000 HD
ENDBRANCH  24  25
ENDBRANCH  17  19
ENDBRANCH  16  17
ENDBRANCH   5  15
BRANCH   4  28
ATOM     28  O   UNL     1       3.646   5.828  19.944  0.00  0.00    +0.000 OA
BRANCH  28  29
ATOM     29  C   UNL     1       2.486   5.069  20.330  0.00  0.00    +0.000 C 
BRANCH  29  30
ATOM     30  C   UNL     1       1.629   4.571  19.165  0.00  0.00    +0.000 C 
BRANCH  30  31
ATOM     31  N   UNL     1       0.961   3.287  19.498  0.00  0.00    +0.000 NA
ATOM     32  C   UNL     1       1.288   2.210  18.556  0.00  0.00    +0.000 C 
ATOM     33  C   UNL     1       1.310   2.869  20.855  0.00  0.00    +0.000 C 
ENDBRANCH  30  31
ENDBRANCH  29  30
ENDBRANCH  28  29
ENDBRANCH   4  28
TORSDOF 9
ENDMDL
MODEL 6
REMARK VINA RESULT:      -8.1      1.126      2.153
REMARK  Name = 
REMARK  13 active torsions:
REMARK  status: ('A' for Active; 'I' for Inactive)
REMARK    1  A    between atoms: C_1  and  C_2
REMARK    2  A    between atoms: C_4  and  C_5
REMARK    3  A    between atoms: C_7  and  C_8
REMARK    4  A    between atoms: C_11  and  O_12
REMARK    5  A    between atoms: O_12  and  C_13
REMARK    6  A    between atoms: C_13  and  C_14
REMARK    7  A    between atoms: C_14  and  N_15
REMARK    8  A    between atoms: N_15  and  C_16
REMARK    9  A    between atoms: N_15  and  C_17
REMARK   10  A    between atoms: C_18  and  C_19
REMARK   11  A    between atoms: C_20  and  C_21
REMARK   12  A    between atoms: C_21  and  C_23
REMARK   13  A    between atoms: C_28  and  N_29
REMARK                            x       y       z     vdW  Elec       q    Type
REMARK                         _______ _______ _______ _____ _____    ______ ____
ROOT
ATOM      1  C   UNL     1       5.160   4.984  16.098  0.00  0.00    +0.000 A 
ATOM      2  C   UNL     1       5.143   4.003  17.087  0.00  0.00    +0.000 A 
ATOM      3  C   UNL     1       4.515   4.225  18.304  0.00  0.00    +0.000 A 
ATOM      4  C   UNL     1       3.974   5.480  18.638  0.00  0.00    +0.000 A 
ATOM      5  C   UNL     1       3.922   6.481  17.652  0.00  0.00    +0.000 A 
ATOM      6  C   UNL     1       4.510   6.196  16.394  0.00  0.00    +0.000 A 
ENDROOT
BRANCH   1  13
ATOM      7  C   UNL     1       8.925   5.853  12.883  0.00  0.00    +0.000 C 
ATOM      8  C   UNL     1       7.661   5.122  13.226  0.00  0.00    +0.000 A 
ATOM      9  C   UNL     1       7.092   4.206  12.334  0.00  0.00    +0.000 A 
ATOM     10  C   UNL     1       5.902   3.550  12.656  0.00  0.00    +0.000 A 
ATOM     11  C   UNL     1       5.274   2.544  11.738  0.00  0.00    +0.000 C 
ATOM     12  C   UNL     1       5.279   3.833  13.877  0.00  0.00    +0.000 A 
ATOM     13  C   UNL     1       5.830   4.737  14.803  0.00  0.00    +0.000 A 
ATOM     14  C   UNL     1       7.034   5.367  14.453  0.00  0.00    +0.000 A 
ENDBRANCH   1  13
BRANCH   5  15
ATOM     15  C   UNL     1       3.348   7.840  17.762  0.00  0.00    +0.000 C 
ATOM     16  C   UNL     1       2.066   8.202  17.902  0.00  0.00    +0.000 C 
BRANCH  16  17
ATOM     17  C   UNL     1       1.735   9.659  17.921  0.00  0.00    +0.000 C 
ATOM     18  O   UNL     1       2.577  10.519  17.668  0.00  0.00    +0.000 OA
BRANCH  17  19
ATOM     19  C   UNL     1       0.329  10.044  18.249  0.00  0.00    +0.000 A 
ATOM     20  C   UNL     1      -0.717   9.637  17.402  0.00  0.00    +0.000 A 
ATOM     21  C   UNL     1      -2.032  10.003  17.675  0.00  0.00    +0.000 A 
ATOM     22  C   UNL     1      -2.313  10.781  18.796  0.00  0.00    +0.000 A 
ATOM     23  C   UNL     1      -1.277  11.201  19.633  0.00  0.00    +0.000 A 
ATOM     24  C   UNL     1       0.059  10.883  19.350  0.00  0.00    +0.000 A 
BRANCH  24  25
ATOM     25  N   UNL     1       1.041  11.215  20.306  0.00  0.00    +0.000 N 
ATOM     26  H   UNL     1       1.697  10.466  20.504  0.00  0.00    +0.000 HD
ATOM     27  H   UNL     1       0.611  11.581  21.165  0.00  0.00    +0.000 HD
ENDBRANCH  24  25
ENDBRANCH  17  19
ENDBRANCH  16  17
ENDBRANCH   5  15
BRANCH   4  28
ATOM     28  O   UNL     1       3.550   5.740  19.933  0.00  0.00    +0.000 OA
BRANCH  28  29
ATOM     29  C   UNL     1       2.243   5.190  20.181  0.00  0.00    +0.000 C 
BRANCH  29  30
ATOM     30  C   UNL     1       2.227   3.961  21.090  0.00  0.00    +0.000 C 
BRANCH  30  31
ATOM     31  N   UNL     1       1.511   2.828  20.450  0.00  0.00    +0.000 NA
ATOM     32  C   UNL     1       0.532   3.262  19.447  0.00  0.00    +0.000 C 
ATOM     33  C   UNL     1       2.465   1.907  19.833  0.00  0.00    +0.000 C 
ENDBRANCH  30  31
ENDBRANCH  29  30
ENDBRANCH  28  29
ENDBRANCH   4  28
TORSDOF 9
ENDMDL
MODEL 7
REMARK VINA RESULT:      -8.0      3.365      8.180
REMARK  Name = 
REMARK  13 active torsions:
REMARK  status: ('A' for Active; 'I' for Inactive)
REMARK    1  A    between atoms: C_1  and  C_2
REMARK    2  A    between atoms: C_4  and  C_5
REMARK    3  A    between atoms: C_7  and  C_8
REMARK    4  A    between atoms: C_11  and  O_12
REMARK    5  A    between atoms: O_12  and  C_13
REMARK    6  A    between atoms: C_13  and  C_14
REMARK    7  A    between atoms: C_14  and  N_15
REMARK    8  A    between atoms: N_15  and  C_16
REMARK    9  A    between atoms: N_15  and  C_17
REMARK   10  A    between atoms: C_18  and  C_19
REMARK   11  A    between atoms: C_20  and  C_21
REMARK   12  A    between atoms: C_21  and  C_23
REMARK   13  A    between atoms: C_28  and  N_29
REMARK                            x       y       z     vdW  Elec       q    Type
REMARK                         _______ _______ _______ _____ _____    ______ ____
ROOT
ATOM      1  C   UNL     1       0.720   9.166  19.754  0.00  0.00    +0.000 A 
ATOM      2  C   UNL     1       0.195   8.532  20.878  0.00  0.00    +0.000 A 
ATOM      3  C   UNL     1       0.710   7.324  21.325  0.00  0.00    +0.000 A 
ATOM      4  C   UNL     1       1.700   6.631  20.603  0.00  0.00    +0.000 A 
ATOM      5  C   UNL     1       2.295   7.258  19.494  0.00  0.00    +0.000 A 
ATOM      6  C   UNL     1       1.793   8.526  19.107  0.00  0.00    +0.000 A 
ENDROOT
BRANCH   1  13
ATOM      7  C   UNL     1       1.272  14.061  18.758  0.00  0.00    +0.000 C 
ATOM      8  C   UNL     1       0.409  12.835  18.773  0.00  0.00    +0.000 A 
ATOM      9  C   UNL     1      -0.925  12.886  18.355  0.00  0.00    +0.000 A 
ATOM     10  C   UNL     1      -1.725  11.741  18.395  0.00  0.00    +0.000 A 
ATOM     11  C   UNL     1      -3.152  11.750  17.935  0.00  0.00    +0.000 C 
ATOM     12  C   UNL     1      -1.175  10.546  18.873  0.00  0.00    +0.000 A 
ATOM     13  C   UNL     1       0.166  10.455  19.288  0.00  0.00    +0.000 A 
ATOM     14  C   UNL     1       0.944  11.621  19.220  0.00  0.00    +0.000 A 
ENDBRANCH   1  13
BRANCH   5  15
ATOM     15  C   UNL     1       3.385   6.747  18.634  0.00  0.00    +0.000 C 
ATOM     16  C   UNL     1       3.328   5.821  17.667  0.00  0.00    +0.000 C 
BRANCH  16  17
ATOM     17  C   UNL     1       4.597   5.427  16.983  0.00  0.00    +0.000 C 
ATOM     18  O   UNL     1       4.601   4.711  15.983  0.00  0.00    +0.000 OA
BRANCH  17  19
ATOM     19  C   UNL     1       5.878   5.946  17.553  0.00  0.00    +0.000 A 
ATOM     20  C   UNL     1       6.408   7.157  17.075  0.00  0.00    +0.000 A 
ATOM     21  C   UNL     1       7.612   7.648  17.574  0.00  0.00    +0.000 A 
ATOM     22  C   UNL     1       8.296   6.932  18.553  0.00  0.00    +0.000 A 
ATOM     23  C   UNL     1       7.782   5.721  19.021  0.00  0.00    +0.000 A 
ATOM     24  C   UNL     1       6.596   5.185  18.499  0.00  0.00    +0.000 A 
BRANCH  24  25
ATOM     25  N   UNL     1       6.057   4.035  19.110  0.00  0.00    +0.000 N 
ATOM     26  H   UNL     1       5.855   3.278  18.464  0.00  0.00    +0.000 HD
ATOM     27  H   UNL     1       5.240   4.270  19.686  0.00  0.00    +0.000 HD
ENDBRANCH  24  25
ENDBRANCH  17  19
ENDBRANCH  16  17
ENDBRANCH   5  15
BRANCH   4  28
ATOM     28  O   UNL     1       2.040   5.331  20.948  0.00  0.00    +0.000 OA
BRANCH  28  29
ATOM     29  C   UNL     1       1.044   4.390  20.508  0.00  0.00    +0.000 C 
BRANCH  29  30
ATOM     30  C   UNL     1       1.542   2.952  20.358  0.00  0.00    +0.000 C 
BRANCH  30  31
ATOM     31  N   UNL     1       2.934   2.915  19.841  0.00  0.00    +0.000 NA
ATOM     32  C   UNL     1       3.871   2.263  20.764  0.00  0.00    +0.000 C 
ATOM     33  C   UNL     1       2.977   2.239  18.545  0.00  0.00    +0.000 C 
ENDBRANCH  30  31
ENDBRANCH  29  30
ENDBRANCH  28  29
ENDBRANCH   4  28
TORSDOF 9
ENDMDL
MODEL 8
REMARK VINA RESULT:      -8.0      2.556      8.308
REMARK  Name = 
REMARK  13 active torsions:
REMARK  status: ('A' for Active; 'I' for Inactive)
REMARK    1  A    between atoms: C_1  and  C_2
REMARK    2  A    between atoms: C_4  and  C_5
REMARK    3  A    between atoms: C_7  and  C_8
REMARK    4  A    between atoms: C_11  and  O_12
REMARK    5  A    between atoms: O_12  and  C_13
REMARK    6  A    between atoms: C_13  and  C_14
REMARK    7  A    between atoms: C_14  and  N_15
REMARK    8  A    between atoms: N_15  and  C_16
REMARK    9  A    between atoms: N_15  and  C_17
REMARK   10  A    between atoms: C_18  and  C_19
REMARK   11  A    between atoms: C_20  and  C_21
REMARK   12  A    between atoms: C_21  and  C_23
REMARK   13  A    between atoms: C_28  and  N_29
REMARK                            x       y       z     vdW  Elec       q    Type
REMARK                         _______ _______ _______ _____ _____    ______ ____
ROOT
ATOM      1  C   UNL     1       2.192   8.087  18.775  0.00  0.00    +0.000 A 
ATOM      2  C   UNL     1       1.924   7.214  19.827  0.00  0.00    +0.000 A 
ATOM      3  C   UNL     1       2.713   6.094  20.045  0.00  0.00    +0.000 A 
ATOM      4  C   UNL     1       3.737   5.726  19.152  0.00  0.00    +0.000 A 
ATOM      5  C   UNL     1       4.076   6.606  18.109  0.00  0.00    +0.000 A 
ATOM      6  C   UNL     1       3.295   7.779  17.958  0.00  0.00    +0.000 A 
ENDROOT
BRANCH   1  13
ATOM      7  C   UNL     1       1.553  13.072  18.863  0.00  0.00    +0.000 C 
ATOM      8  C   UNL     1       1.013  11.705  18.564  0.00  0.00    +0.000 A 
ATOM      9  C   UNL     1      -0.288  11.533  18.079  0.00  0.00    +0.000 A 
ATOM     10  C   UNL     1      -0.787  10.252  17.827  0.00  0.00    +0.000 A 
ATOM     11  C   UNL     1      -2.167  10.028  17.286  0.00  0.00    +0.000 C 
ATOM     12  C   UNL     1       0.030   9.144  18.079  0.00  0.00    +0.000 A 
ATOM     13  C   UNL     1       1.348   9.281  18.553  0.00  0.00    +0.000 A 
ATOM     14  C   UNL     1       1.820  10.583  18.781  0.00  0.00    +0.000 A 
ENDBRANCH   1  13
BRANCH   5  15
ATOM     15  C   UNL     1       5.147   6.454  17.100  0.00  0.00    +0.000 C 
ATOM     16  C   UNL     1       5.377   5.431  16.265  0.00  0.00    +0.000 C 
BRANCH  16  17
ATOM     17  C   UNL     1       6.579   5.491  15.380  0.00  0.00    +0.000 C 
ATOM     18  O   UNL     1       7.598   6.094  15.709  0.00  0.00    +0.000 OA
BRANCH  17  19
ATOM     19  C   UNL     1       6.507   4.775  14.069  0.00  0.00    +0.000 A 
ATOM     20  C   UNL     1       5.439   3.896  13.818  0.00  0.00    +0.000 A 
ATOM     21  C   UNL     1       5.364   3.201  12.613  0.00  0.00    +0.000 A 
ATOM     22  C   UNL     1       6.356   3.376  11.653  0.00  0.00    +0.000 A 
ATOM     23  C   UNL     1       7.428   4.235  11.903  0.00  0.00    +0.000 A 
ATOM     24  C   UNL     1       7.547   4.910  13.127  0.00  0.00    +0.000 A 
BRANCH  24  25
ATOM     25  N   UNL     1       8.572   5.868  13.264  0.00  0.00    +0.000 N 
ATOM     26  H   UNL     1       8.237   6.821  13.368  0.00  0.00    +0.000 HD
ATOM     27  H   UNL     1       9.258   5.787  12.503  0.00  0.00    +0.000 HD
ENDBRANCH  24  25
ENDBRANCH  17  19
ENDBRANCH  16  17
ENDBRANCH   5  15
BRANCH   4  28
ATOM     28  O   UNL     1       4.362   4.493  19.269  0.00  0.00    +0.000 OA
BRANCH  28  29
ATOM     29  C   UNL     1       3.450   3.412  19.007  0.00  0.00    +0.000 C 
BRANCH  29  30
ATOM     30  C   UNL     1       3.206   2.476  20.191  0.00  0.00    +0.000 C 
BRANCH  30  31
ATOM     31  N   UNL     1       1.755   2.238  20.400  0.00  0.00    +0.000 NA
ATOM     32  C   UNL     1       1.285   2.686  21.717  0.00  0.00    +0.000 C 
ATOM     33  C   UNL     1       0.975   2.899  19.354  0.00  0.00    +0.000 C 
ENDBRANCH  30  31
ENDBRANCH  29  30
ENDBRANCH  28  29
ENDBRANCH   4  28
TORSDOF 9
ENDMDL
MODEL 9
REMARK VINA RESULT:      -7.9      2.563      8.137
REMARK  Name = 
REMARK  13 active torsions:
REMARK  status: ('A' for Active; 'I' for Inactive)
REMARK    1  A    between atoms: C_1  and  C_2
REMARK    2  A    between atoms: C_4  and  C_5
REMARK    3  A    between atoms: C_7  and  C_8
REMARK    4  A    between atoms: C_11  and  O_12
REMARK    5  A    between atoms: O_12  and  C_13
REMARK    6  A    between atoms: C_13  and  C_14
REMARK    7  A    between atoms: C_14  and  N_15
REMARK    8  A    between atoms: N_15  and  C_16
REMARK    9  A    between atoms: N_15  and  C_17
REMARK   10  A    between atoms: C_18  and  C_19
REMARK   11  A    between atoms: C_20  and  C_21
REMARK   12  A    between atoms: C_21  and  C_23
REMARK   13  A    between atoms: C_28  and  N_29
REMARK                            x       y       z     vdW  Elec       q    Type
REMARK                         _______ _______ _______ _____ _____    ______ ____
ROOT
ATOM      1  C   UNL     1       2.080   8.110  18.727  0.00  0.00    +0.000 A 
ATOM      2  C   UNL     1       1.852   7.232  19.785  0.00  0.00    +0.000 A 
ATOM      3  C   UNL     1       2.651   6.113  19.969  0.00  0.00    +0.000 A 
ATOM      4  C   UNL     1       3.643   5.751  19.039  0.00  0.00    +0.000 A 
ATOM      5  C   UNL     1       3.941   6.635  17.988  0.00  0.00    +0.000 A 
ATOM      6  C   UNL     1       3.153   7.807  17.869  0.00  0.00    +0.000 A 
ENDROOT
BRANCH   1  13
ATOM      7  C   UNL     1      -2.274  10.197  17.331  0.00  0.00    +0.000 C 
ATOM      8  C   UNL     1      -0.890  10.346  17.889  0.00  0.00    +0.000 A 
ATOM      9  C   UNL     1      -0.383  11.603  18.236  0.00  0.00    +0.000 A 
ATOM     10  C   UNL     1       0.916  11.730  18.734  0.00  0.00    +0.000 A 
ATOM     11  C   UNL     1       1.487  13.056  19.139  0.00  0.00    +0.000 C 
ATOM     12  C   UNL     1       1.707  10.583  18.867  0.00  0.00    +0.000 A 
ATOM     13  C   UNL     1       1.225   9.302  18.541  0.00  0.00    +0.000 A 
ATOM     14  C   UNL     1      -0.089   9.210  18.058  0.00  0.00    +0.000 A 
ENDBRANCH   1  13
BRANCH   5  15
ATOM     15  C   UNL     1       4.976   6.489  16.940  0.00  0.00    +0.000 C 
ATOM     16  C   UNL     1       5.783   5.448  16.694  0.00  0.00    +0.000 C 
BRANCH  16  17
ATOM     17  C   UNL     1       6.801   5.577  15.608  0.00  0.00    +0.000 C 
ATOM     18  O   UNL     1       7.827   6.239  15.755  0.00  0.00    +0.000 OA
BRANCH  17  19
ATOM     19  C   UNL     1       6.536   4.857  14.326  0.00  0.00    +0.000 A 
ATOM     20  C   UNL     1       5.407   4.027  14.217  0.00  0.00    +0.000 A 
ATOM     21  C   UNL     1       5.153   3.328  13.040  0.00  0.00    +0.000 A 
ATOM     22  C   UNL     1       6.027   3.450  11.963  0.00  0.00    +0.000 A 
ATOM     23  C   UNL     1       7.159   4.261  12.070  0.00  0.00    +0.000 A 
ATOM     24  C   UNL     1       7.458   4.937  13.262  0.00  0.00    +0.000 A 
BRANCH  24  25
ATOM     25  N   UNL     1       8.534   5.848  13.260  0.00  0.00    +0.000 N 
ATOM     26  H   UNL     1       9.140   5.773  12.449  0.00  0.00    +0.000 HD
ATOM     27  H   UNL     1       9.067   5.793  14.138  0.00  0.00    +0.000 HD
ENDBRANCH  24  25
ENDBRANCH  17  19
ENDBRANCH  16  17
ENDBRANCH   5  15
BRANCH   4  28
ATOM     28  O   UNL     1       4.275   4.519  19.129  0.00  0.00    +0.000 OA
BRANCH  28  29
ATOM     29  C   UNL     1       3.571   3.628  20.013  0.00  0.00    +0.000 C 
BRANCH  29  30
ATOM     30  C   UNL     1       2.955   2.404  19.334  0.00  0.00    +0.000 C 
BRANCH  30  31
ATOM     31  N   UNL     1       1.572   2.160  19.816  0.00  0.00    +0.000 NA
ATOM     32  C   UNL     1       1.286   2.823  21.095  0.00  0.00    +0.000 C 
ATOM     33  C   UNL     1       0.599   2.595  18.815  0.00  0.00    +0.000 C 
ENDBRANCH  30  31
ENDBRANCH  29  30
ENDBRANCH  28  29
ENDBRANCH   4  28
TORSDOF 9
ENDMDL
