MODEL 1
REMARK VINA RESULT:      -8.7      0.000      0.000
REMARK  Name = 
REMARK  1 active torsions:
REMARK  status: ('A' for Active; 'I' for Inactive)
REMARK    1  A    between atoms: C_4  and  C_5
REMARK                            x       y       z     vdW  Elec       q    Type
REMARK                         _______ _______ _______ _____ _____    ______ ____
ROOT
ATOM      1  C   UNL     1       5.405   5.264  15.752  0.00  0.00    +0.000 A 
ATOM      2  C   UNL     1       4.872   6.485  16.110  0.00  0.00    +0.000 A 
ATOM      3  C   UNL     1       4.097   6.429  17.322  0.00  0.00    +0.000 A 
ATOM      4  C   UNL     1       4.106   5.158  17.860  0.00  0.00    +0.000 A 
ATOM      5  S   UNL     1       5.231   4.151  17.047  0.00  0.00    +0.000 S 
ATOM      6  C   UNL     1       3.068   4.622  18.846  0.00  0.00    +0.000 C 
ATOM      7  C   UNL     1       1.974   3.953  17.960  0.00  0.00    +0.000 C 
ATOM      8  C   UNL     1       1.033   2.937  18.607  0.00  0.00    +0.000 C 
ATOM      9  C   UNL     1       1.481   2.239  19.874  0.00  0.00    +0.000 C 
ATOM     10  C   UNL     1       2.521   2.966  20.708  0.00  0.00    +0.000 C 
ATOM     11  C   UNL     1       3.633   3.578  19.840  0.00  0.00    +0.000 C 
ATOM     12  C   UNL     1       2.513   5.819  19.674  0.00  0.00    +0.000 C 
ATOM     13  C   UNL     1       2.318   7.173  18.991  0.00  0.00    +0.000 C 
ATOM     14  C   UNL     1       3.261   7.491  17.858  0.00  0.00    +0.000 C 
ATOM     15  O   UNL     1       3.278   8.608  17.351  0.00  0.00    +0.000 OA
ENDROOT
BRANCH   1  19
ATOM     16  N   UNL     1       5.634   2.379  11.796  0.00  0.00    +0.000 N 
ATOM     17  C   UNL     1       6.140   3.436  12.550  0.00  0.00    +0.000 A 
ATOM     18  C   UNL     1       5.491   3.843  13.709  0.00  0.00    +0.000 A 
ATOM     19  C   UNL     1       6.033   4.878  14.472  0.00  0.00    +0.000 A 
ATOM     20  C   UNL     1       7.237   5.448  14.042  0.00  0.00    +0.000 A 
ATOM     21  C   UNL     1       7.812   4.967  12.879  0.00  0.00    +0.000 A 
ATOM     22  N   UNL     1       7.287   3.979  12.127  0.00  0.00    +0.000 NA
ATOM     23  H   UNL     1       4.665   2.531  11.540  0.00  0.00    +0.000 HD
ATOM     24  H   UNL     1       6.233   2.289  10.979  0.00  0.00    +0.000 HD
ENDBRANCH   1  19
TORSDOF 1
ENDMDL
MODEL 2
REMARK VINA RESULT:      -8.5      0.747      1.525
REMARK  Name = 
REMARK  1 active torsions:
REMARK  status: ('A' for Active; 'I' for Inactive)
REMARK    1  A    between atoms: C_4  and  C_5
REMARK                            x       y       z     vdW  Elec       q    Type
REMARK                         _______ _______ _______ _____ _____    ______ ____
ROOT
ATOM      1  C   UNL     1       5.228   5.239  16.270  0.00  0.00    +0.000 A 
ATOM      2  C   UNL     1       4.682   6.461  16.604  0.00  0.00    +0.000 A 
ATOM      3  C   UNL     1       3.856   6.409  17.782  0.00  0.00    +0.000 A 
ATOM      4  C   UNL     1       3.843   5.139  18.323  0.00  0.00    +0.000 A 
ATOM      5  S   UNL     1       5.000   4.129  17.559  0.00  0.00    +0.000 S 
ATOM      6  C   UNL     1       2.764   4.606  19.266  0.00  0.00    +0.000 C 
ATOM      7  C   UNL     1       1.708   3.935  18.337  0.00  0.00    +0.000 C 
ATOM      8  C   UNL     1       0.740   2.920  18.946  0.00  0.00    +0.000 C 
ATOM      9  C   UNL     1       1.135   2.225  20.232  0.00  0.00    +0.000 C 
ATOM     10  C   UNL     1       2.139   2.954  21.108  0.00  0.00    +0.000 C 
ATOM     11  C   UNL     1       3.287   3.563  20.285  0.00  0.00    +0.000 C 
ATOM     12  C   UNL     1       2.176   5.804  20.067  0.00  0.00    +0.000 C 
ATOM     13  C   UNL     1       2.010   7.157  19.373  0.00  0.00    +0.000 C 
ATOM     14  C   UNL     1       3.000   7.472  18.280  0.00  0.00    +0.000 C 
ATOM     15  O   UNL     1       3.038   8.587  17.772  0.00  0.00    +0.000 OA
ENDROOT
BRANCH   1  19
ATOM     16  N   UNL     1       8.804   5.852  12.975  0.00  0.00    +0.000 N 
ATOM     17  C   UNL     1       7.660   5.183  13.403  0.00  0.00    +0.000 A 
ATOM     18  C   UNL     1       7.077   5.503  14.623  0.00  0.00    +0.000 A 
ATOM     19  C   UNL     1       5.909   4.850  15.019  0.00  0.00    +0.000 A 
ATOM     20  C   UNL     1       5.358   3.906  14.144  0.00  0.00    +0.000 A 
ATOM     21  C   UNL     1       6.007   3.663  12.947  0.00  0.00    +0.000 A 
ATOM     22  N   UNL     1       7.144   4.278  12.564  0.00  0.00    +0.000 NA
ATOM     23  H   UNL     1       9.546   5.807  13.664  0.00  0.00    +0.000 HD
ATOM     24  H   UNL     1       9.079   5.427  12.092  0.00  0.00    +0.000 HD
ENDBRANCH   1  19
TORSDOF 1
ENDMDL
MODEL 3
REMARK VINA RESULT:      -7.5      4.509      6.642
REMARK  Name = 
REMARK  1 active torsions:
REMARK  status: ('A' for Active; 'I' for Inactive)
REMARK    1  A    between atoms: C_4  and  C_5
REMARK                            x       y       z     vdW  Elec       q    Type
REMARK                         _______ _______ _______ _____ _____    ______ ____
ROOT
ATOM      1  C   UNL     1       2.549   7.636  18.255  0.00  0.00    +0.000 A 
ATOM      2  C   UNL     1       3.758   7.778  17.606  0.00  0.00    +0.000 A 
ATOM      3  C   UNL     1       4.356   6.520  17.242  0.00  0.00    +0.000 A 
ATOM      4  C   UNL     1       3.546   5.463  17.601  0.00  0.00    +0.000 A 
ATOM      5  S   UNL     1       2.008   6.012  18.126  0.00  0.00    +0.000 S 
ATOM      6  C   UNL     1       4.025   4.023  17.789  0.00  0.00    +0.000 C 
ATOM      7  C   UNL     1       4.393   3.911  19.300  0.00  0.00    +0.000 C 
ATOM      8  C   UNL     1       4.475   2.520  19.929  0.00  0.00    +0.000 C 
ATOM      9  C   UNL     1       3.727   1.381  19.268  0.00  0.00    +0.000 C 
ATOM     10  C   UNL     1       3.437   1.540  17.786  0.00  0.00    +0.000 C 
ATOM     11  C   UNL     1       2.954   2.959  17.441  0.00  0.00    +0.000 C 
ATOM     12  C   UNL     1       5.252   3.788  16.859  0.00  0.00    +0.000 C 
ATOM     13  C   UNL     1       6.252   4.924  16.642  0.00  0.00    +0.000 C 
ATOM     14  C   UNL     1       5.699   6.325  16.721  0.00  0.00    +0.000 C 
ATOM     15  O   UNL     1       6.391   7.290  16.414  0.00  0.00    +0.000 OA
ENDROOT
BRANCH   1  19
ATOM     16  N   UNL     1       0.229   9.173  22.289  0.00  0.00    +0.000 N 
ATOM     17  C   UNL     1       0.623   9.384  20.969  0.00  0.00    +0.000 A 
ATOM     18  C   UNL     1       1.421   8.451  20.320  0.00  0.00    +0.000 A 
ATOM     19  C   UNL     1       1.775   8.659  18.986  0.00  0.00    +0.000 A 
ATOM     20  C   UNL     1       1.279   9.802  18.348  0.00  0.00    +0.000 A 
ATOM     21  C   UNL     1       0.483  10.667  19.077  0.00  0.00    +0.000 A 
ATOM     22  N   UNL     1       0.150  10.482  20.370  0.00  0.00    +0.000 NA
ATOM     23  H   UNL     1       1.023   9.008  22.896  0.00  0.00    +0.000 HD
ATOM     24  H   UNL     1      -0.301   9.995  22.571  0.00  0.00    +0.000 HD
ENDBRANCH   1  19
TORSDOF 1
ENDMDL
MODEL 4
REMARK VINA RESULT:      -7.5      4.455      6.538
REMARK  Name = 
REMARK  1 active torsions:
REMARK  status: ('A' for Active; 'I' for Inactive)
REMARK    1  A    between atoms: C_4  and  C_5
REMARK                            x       y       z     vdW  Elec       q    Type
REMARK                         _______ _______ _______ _____ _____    ______ ____
ROOT
ATOM      1  C   UNL     1       2.573   7.590  18.240  0.00  0.00    +0.000 A 
ATOM      2  C   UNL     1       3.826   7.757  17.686  0.00  0.00    +0.000 A 
ATOM      3  C   UNL     1       4.473   6.511  17.366  0.00  0.00    +0.000 A 
ATOM      4  C   UNL     1       3.656   5.438  17.660  0.00  0.00    +0.000 A 
ATOM      5  S   UNL     1       2.073   5.957  18.066  0.00  0.00    +0.000 S 
ATOM      6  C   UNL     1       4.146   4.006  17.880  0.00  0.00    +0.000 C 
ATOM      7  C   UNL     1       4.399   3.895  19.414  0.00  0.00    +0.000 C 
ATOM      8  C   UNL     1       4.458   2.503  20.044  0.00  0.00    +0.000 C 
ATOM      9  C   UNL     1       3.784   1.354  19.325  0.00  0.00    +0.000 C 
ATOM     10  C   UNL     1       3.605   1.513  17.826  0.00  0.00    +0.000 C 
ATOM     11  C   UNL     1       3.125   2.925  17.448  0.00  0.00    +0.000 C 
ATOM     12  C   UNL     1       5.445   3.797  17.047  0.00  0.00    +0.000 C 
ATOM     13  C   UNL     1       6.438   4.952  16.910  0.00  0.00    +0.000 C 
ATOM     14  C   UNL     1       5.855   6.342  16.949  0.00  0.00    +0.000 C 
ATOM     15  O   UNL     1       6.551   7.321  16.700  0.00  0.00    +0.000 OA
ENDROOT
BRANCH   1  19
ATOM     16  N   UNL     1       0.119  11.832  18.200  0.00  0.00    +0.000 N 
ATOM     17  C   UNL     1       0.546  10.692  18.876  0.00  0.00    +0.000 A 
ATOM     18  C   UNL     1       1.272   9.713  18.210  0.00  0.00    +0.000 A 
ATOM     19  C   UNL     1       1.726   8.596  18.912  0.00  0.00    +0.000 A 
ATOM     20  C   UNL     1       1.446   8.526  20.281  0.00  0.00    +0.000 A 
ATOM     21  C   UNL     1       0.724   9.555  20.857  0.00  0.00    +0.000 A 
ATOM     22  N   UNL     1       0.268  10.631  20.183  0.00  0.00    +0.000 NA
ATOM     23  H   UNL     1      -0.415  11.599  17.370  0.00  0.00    +0.000 HD
ATOM     24  H   UNL     1      -0.427  12.379  18.862  0.00  0.00    +0.000 HD
ENDBRANCH   1  19
TORSDOF 1
ENDMDL
MODEL 5
REMARK VINA RESULT:      -7.2      4.635      6.483
REMARK  Name = 
REMARK  1 active torsions:
REMARK  status: ('A' for Active; 'I' for Inactive)
REMARK    1  A    between atoms: C_4  and  C_5
REMARK                            x       y       z     vdW  Elec       q    Type
REMARK                         _______ _______ _______ _____ _____    ______ ____
ROOT
ATOM      1  C   UNL     1       2.305   8.411  17.906  0.00  0.00    +0.000 A 
ATOM      2  C   UNL     1       3.594   8.036  17.587  0.00  0.00    +0.000 A 
ATOM      3  C   UNL     1       3.824   6.623  17.733  0.00  0.00    +0.000 A 
ATOM      4  C   UNL     1       2.674   5.970  18.126  0.00  0.00    +0.000 A 
ATOM      5  S   UNL     1       1.316   7.017  18.063  0.00  0.00    +0.000 S 
ATOM      6  C   UNL     1       2.637   4.599  18.800  0.00  0.00    +0.000 C 
ATOM      7  C   UNL     1       2.674   4.896  20.330  0.00  0.00    +0.000 C 
ATOM      8  C   UNL     1       2.203   3.809  21.296  0.00  0.00    +0.000 C 
ATOM      9  C   UNL     1       1.269   2.736  20.778  0.00  0.00    +0.000 C 
ATOM     10  C   UNL     1       1.314   2.471  19.284  0.00  0.00    +0.000 C 
ATOM     11  C   UNL     1       1.369   3.774  18.468  0.00  0.00    +0.000 C 
ATOM     12  C   UNL     1       3.875   3.783  18.323  0.00  0.00    +0.000 C 
ATOM     13  C   UNL     1       5.202   4.508  18.092  0.00  0.00    +0.000 C 
ATOM     14  C   UNL     1       5.110   5.948  17.656  0.00  0.00    +0.000 C 
ATOM     15  O   UNL     1       6.111   6.562  17.306  0.00  0.00    +0.000 OA
ENDROOT
BRANCH   1  19
ATOM     16  N   UNL     1       2.885  13.278  17.937  0.00  0.00    +0.000 N 
ATOM     17  C   UNL     1       2.085  12.157  18.144  0.00  0.00    +0.000 A 
ATOM     18  C   UNL     1       2.572  10.887  17.864  0.00  0.00    +0.000 A 
ATOM     19  C   UNL     1       1.771   9.772  18.114  0.00  0.00    +0.000 A 
ATOM     20  C   UNL     1       0.504   9.989  18.668  0.00  0.00    +0.000 A 
ATOM     21  C   UNL     1       0.111  11.290  18.920  0.00  0.00    +0.000 A 
ATOM     22  N   UNL     1       0.873  12.374  18.666  0.00  0.00    +0.000 NA
ATOM     23  H   UNL     1       3.243  13.314  16.989  0.00  0.00    +0.000 HD
ATOM     24  H   UNL     1       2.315  14.091  18.159  0.00  0.00    +0.000 HD
ENDBRANCH   1  19
TORSDOF 1
ENDMDL
MODEL 6
REMARK VINA RESULT:      -7.0      5.106      7.858
REMARK  Name = 
REMARK  1 active torsions:
REMARK  status: ('A' for Active; 'I' for Inactive)
REMARK    1  A    between atoms: C_4  and  C_5
REMARK                            x       y       z     vdW  Elec       q    Type
REMARK                         _______ _______ _______ _____ _____    ______ ____
ROOT
ATOM      1  C   UNL     1       1.642   8.315  19.589  0.00  0.00    +0.000 A 
ATOM      2  C   UNL     1       1.027   8.389  20.822  0.00  0.00    +0.000 A 
ATOM      3  C   UNL     1       0.363   9.646  21.048  0.00  0.00    +0.000 A 
ATOM      4  C   UNL     1       0.472  10.471  19.947  0.00  0.00    +0.000 A 
ATOM      5  S   UNL     1       1.137   9.630  18.608  0.00  0.00    +0.000 S 
ATOM      6  C   UNL     1       0.302  11.989  19.977  0.00  0.00    +0.000 C 
ATOM      7  C   UNL     1       1.736  12.555  20.211  0.00  0.00    +0.000 C 
ATOM      8  C   UNL     1       2.012  14.014  19.851  0.00  0.00    +0.000 C 
ATOM      9  C   UNL     1       1.110  14.695  18.843  0.00  0.00    +0.000 C 
ATOM     10  C   UNL     1      -0.286  14.116  18.695  0.00  0.00    +0.000 C 
ATOM     11  C   UNL     1      -0.274  12.578  18.665  0.00  0.00    +0.000 C 
ATOM     12  C   UNL     1      -0.676  12.352  21.133  0.00  0.00    +0.000 C 
ATOM     13  C   UNL     1      -0.631  11.544  22.431  0.00  0.00    +0.000 C 
ATOM     14  C   UNL     1      -0.210  10.101  22.304  0.00  0.00    +0.000 C 
ATOM     15  O   UNL     1      -0.287   9.340  23.262  0.00  0.00    +0.000 OA
ENDROOT
BRANCH   1  19
ATOM     16  N   UNL     1       4.828   6.714  16.226  0.00  0.00    +0.000 N 
ATOM     17  C   UNL     1       4.152   6.532  17.431  0.00  0.00    +0.000 A 
ATOM     18  C   UNL     1       3.308   7.524  17.916  0.00  0.00    +0.000 A 
ATOM     19  C   UNL     1       2.609   7.309  19.104  0.00  0.00    +0.000 A 
ATOM     20  C   UNL     1       2.774   6.077  19.748  0.00  0.00    +0.000 A 
ATOM     21  C   UNL     1       3.629   5.150  19.181  0.00  0.00    +0.000 A 
ATOM     22  N   UNL     1       4.321   5.355  18.042  0.00  0.00    +0.000 NA
ATOM     23  H   UNL     1       5.368   7.572  16.224  0.00  0.00    +0.000 HD
ATOM     24  H   UNL     1       5.417   5.894  16.094  0.00  0.00    +0.000 HD
ENDBRANCH   1  19
TORSDOF 1
ENDMDL
MODEL 7
REMARK VINA RESULT:      -7.0      4.310      7.142
REMARK  Name = 
REMARK  1 active torsions:
REMARK  status: ('A' for Active; 'I' for Inactive)
REMARK    1  A    between atoms: C_4  and  C_5
REMARK                            x       y       z     vdW  Elec       q    Type
REMARK                         _______ _______ _______ _____ _____    ______ ____
ROOT
ATOM      1  C   UNL     1       2.351   6.662  19.587  0.00  0.00    +0.000 A 
ATOM      2  C   UNL     1       1.792   5.404  19.497  0.00  0.00    +0.000 A 
ATOM      3  C   UNL     1       2.672   4.437  18.892  0.00  0.00    +0.000 A 
ATOM      4  C   UNL     1       3.891   5.002  18.580  0.00  0.00    +0.000 A 
ATOM      5  S   UNL     1       4.030   6.580  19.239  0.00  0.00    +0.000 S 
ATOM      6  C   UNL     1       4.874   4.439  17.553  0.00  0.00    +0.000 C 
ATOM      7  C   UNL     1       4.505   5.138  16.210  0.00  0.00    +0.000 C 
ATOM      8  C   UNL     1       5.544   5.160  15.089  0.00  0.00    +0.000 C 
ATOM      9  C   UNL     1       7.005   4.992  15.453  0.00  0.00    +0.000 C 
ATOM     10  C   UNL     1       7.292   4.268  16.756  0.00  0.00    +0.000 C 
ATOM     11  C   UNL     1       6.359   4.726  17.889  0.00  0.00    +0.000 C 
ATOM     12  C   UNL     1       4.688   2.894  17.491  0.00  0.00    +0.000 C 
ATOM     13  C   UNL     1       3.284   2.305  17.636  0.00  0.00    +0.000 C 
ATOM     14  C   UNL     1       2.317   3.087  18.489  0.00  0.00    +0.000 C 
ATOM     15  O   UNL     1       1.222   2.619  18.783  0.00  0.00    +0.000 OA
ENDROOT
BRANCH   1  19
ATOM     16  N   UNL     1       0.894  11.168  18.324  0.00  0.00    +0.000 N 
ATOM     17  C   UNL     1       0.998  10.156  19.275  0.00  0.00    +0.000 A 
ATOM     18  C   UNL     1       1.552   8.929  18.935  0.00  0.00    +0.000 A 
ATOM     19  C   UNL     1       1.685   7.940  19.910  0.00  0.00    +0.000 A 
ATOM     20  C   UNL     1       1.270   8.246  21.212  0.00  0.00    +0.000 A 
ATOM     21  C   UNL     1       0.740   9.499  21.455  0.00  0.00    +0.000 A 
ATOM     22  N   UNL     1       0.594  10.455  20.515  0.00  0.00    +0.000 NA
ATOM     23  H   UNL     1       0.401  10.855  17.495  0.00  0.00    +0.000 HD
ATOM     24  H   UNL     1       0.421  11.948  18.775  0.00  0.00    +0.000 HD
ENDBRANCH   1  19
TORSDOF 1
ENDMDL
MODEL 8
REMARK VINA RESULT:      -7.0      4.780      7.484
REMARK  Name = 
REMARK  1 active torsions:
REMARK  status: ('A' for Active; 'I' for Inactive)
REMARK    1  A    between atoms: C_4  and  C_5
REMARK                            x       y       z     vdW  Elec       q    Type
REMARK                         _______ _______ _______ _____ _____    ______ ____
ROOT
ATOM      1  C   UNL     1       2.156   6.650  19.817  0.00  0.00    +0.000 A 
ATOM      2  C   UNL     1       1.562   5.432  19.556  0.00  0.00    +0.000 A 
ATOM      3  C   UNL     1       2.443   4.502  18.898  0.00  0.00    +0.000 A 
ATOM      4  C   UNL     1       3.698   5.049  18.720  0.00  0.00    +0.000 A 
ATOM      5  S   UNL     1       3.850   6.538  19.558  0.00  0.00    +0.000 S 
ATOM      6  C   UNL     1       4.722   4.562  17.695  0.00  0.00    +0.000 C 
ATOM      7  C   UNL     1       4.459   5.417  16.419  0.00  0.00    +0.000 C 
ATOM      8  C   UNL     1       5.564   5.519  15.368  0.00  0.00    +0.000 C 
ATOM      9  C   UNL     1       6.993   5.254  15.793  0.00  0.00    +0.000 C 
ATOM     10  C   UNL     1       7.177   4.381  17.022  0.00  0.00    +0.000 C 
ATOM     11  C   UNL     1       6.192   4.750  18.144  0.00  0.00    +0.000 C 
ATOM     12  C   UNL     1       4.488   3.041  17.451  0.00  0.00    +0.000 C 
ATOM     13  C   UNL     1       3.059   2.497  17.450  0.00  0.00    +0.000 C 
ATOM     14  C   UNL     1       2.069   3.219  18.328  0.00  0.00    +0.000 C 
ATOM     15  O   UNL     1       0.943   2.767  18.506  0.00  0.00    +0.000 OA
ENDROOT
BRANCH   1  19
ATOM     16  N   UNL     1      -0.417   9.256  23.074  0.00  0.00    +0.000 N 
ATOM     17  C   UNL     1       0.233   9.164  21.845  0.00  0.00    +0.000 A 
ATOM     18  C   UNL     1       0.903   7.999  21.492  0.00  0.00    +0.000 A 
ATOM     19  C   UNL     1       1.515   7.911  20.242  0.00  0.00    +0.000 A 
ATOM     20  C   UNL     1       1.402   9.006  19.378  0.00  0.00    +0.000 A 
ATOM     21  C   UNL     1       0.706  10.118  19.816  0.00  0.00    +0.000 A 
ATOM     22  N   UNL     1       0.125  10.218  21.029  0.00  0.00    +0.000 NA
ATOM     23  H   UNL     1       0.206   9.043  23.845  0.00  0.00    +0.000 HD
ATOM     24  H   UNL     1      -0.791  10.200  23.138  0.00  0.00    +0.000 HD
ENDBRANCH   1  19
TORSDOF 1
ENDMDL
MODEL 9
REMARK VINA RESULT:      -7.0      5.413      8.046
REMARK  Name = 
REMARK  1 active torsions:
REMARK  status: ('A' for Active; 'I' for Inactive)
REMARK    1  A    between atoms: C_4  and  C_5
REMARK                            x       y       z     vdW  Elec       q    Type
REMARK                         _______ _______ _______ _____ _____    ______ ____
ROOT
ATOM      1  C   UNL     1       1.516   8.542  19.423  0.00  0.00    +0.000 A 
ATOM      2  C   UNL     1       0.928   8.588  20.670  0.00  0.00    +0.000 A 
ATOM      3  C   UNL     1       0.304   9.854  20.954  0.00  0.00    +0.000 A 
ATOM      4  C   UNL     1       0.412  10.713  19.880  0.00  0.00    +0.000 A 
ATOM      5  S   UNL     1       1.027   9.904  18.499  0.00  0.00    +0.000 S 
ATOM      6  C   UNL     1       0.285  12.234  19.966  0.00  0.00    +0.000 C 
ATOM      7  C   UNL     1       1.737  12.753  20.190  0.00  0.00    +0.000 C 
ATOM      8  C   UNL     1       2.046  14.216  19.874  0.00  0.00    +0.000 C 
ATOM      9  C   UNL     1       1.142  14.956  18.910  0.00  0.00    +0.000 C 
ATOM     10  C   UNL     1      -0.272  14.419  18.772  0.00  0.00    +0.000 C 
ATOM     11  C   UNL     1      -0.302  12.884  18.688  0.00  0.00    +0.000 C 
ATOM     12  C   UNL     1      -0.660  12.582  21.155  0.00  0.00    +0.000 C 
ATOM     13  C   UNL     1      -0.610  11.727  22.422  0.00  0.00    +0.000 C 
ATOM     14  C   UNL     1      -0.232  10.279  22.237  0.00  0.00    +0.000 C 
ATOM     15  O   UNL     1      -0.310   9.487  23.169  0.00  0.00    +0.000 OA
ENDROOT
BRANCH   1  19
ATOM     16  N   UNL     1       3.799   4.218  19.762  0.00  0.00    +0.000 N 
ATOM     17  C   UNL     1       3.571   5.412  19.082  0.00  0.00    +0.000 A 
ATOM     18  C   UNL     1       2.633   6.321  19.556  0.00  0.00    +0.000 A 
ATOM     19  C   UNL     1       2.446   7.529  18.884  0.00  0.00    +0.000 A 
ATOM     20  C   UNL     1       3.242   7.784  17.761  0.00  0.00    +0.000 A 
ATOM     21  C   UNL     1       4.156   6.821  17.372  0.00  0.00    +0.000 A 
ATOM     22  N   UNL     1       4.332   5.644  18.007  0.00  0.00    +0.000 NA
ATOM     23  H   UNL     1       2.942   3.695  19.899  0.00  0.00    +0.000 HD
ATOM     24  H   UNL     1       4.481   3.695  19.217  0.00  0.00    +0.000 HD
ENDBRANCH   1  19
TORSDOF 1
ENDMDL
