MODEL 1
REMARK VINA RESULT:      -7.2      0.000      0.000
REMARK  Name = 
REMARK  5 active torsions:
REMARK  status: ('A' for Active; 'I' for Inactive)
REMARK    1  A    between atoms: C_1  and  O_2
REMARK    2  A    between atoms: O_2  and  C_3
REMARK    3  A    between atoms: C_3  and  C_5
REMARK    4  A    between atoms: C_10  and  N_11
REMARK    5  A    between atoms: C_12  and  C_14
REMARK                            x       y       z     vdW  Elec       q    Type
REMARK                         _______ _______ _______ _____ _____    ______ ____
ROOT
ATOM      1  C   UNL     1       0.498  13.528  18.485  0.00  0.00    +0.000 C 
ATOM      2  C   UNL     1       0.964  14.651  19.432  0.00  0.00    +0.000 C 
ATOM      3  C   UNL     1       0.507  14.477  20.902  0.00  0.00    +0.000 C 
ATOM      4  N   UNL     1      -0.915  14.070  21.101  0.00  0.00    +0.000 N 
ATOM      5  C   UNL     1      -1.239  13.798  22.469  0.00  0.00    +0.000 C 
ATOM      6  O   UNL     1      -0.345  13.387  23.220  0.00  0.00    +0.000 OA
ATOM      7  N   UNL     1      -2.400  14.419  23.005  0.00  0.00    +0.000 N 
ATOM      8  C   UNL     1      -2.099  15.076  24.292  0.00  0.00    +0.000 C 
ATOM      9  C   UNL     1      -3.268  15.591  25.119  0.00  0.00    +0.000 C 
ATOM     10  O   UNL     1      -4.388  15.940  24.323  0.00  0.00    +0.000 OA
ATOM     11  C   UNL     1      -4.756  14.818  23.616  0.00  0.00    +0.000 A 
ATOM     12  C   UNL     1      -6.123  14.505  23.701  0.00  0.00    +0.000 A 
ATOM     13  C   UNL     1      -6.609  13.399  23.028  0.00  0.00    +0.000 A 
ATOM     14  C   UNL     1      -5.719  12.645  22.257  0.00  0.00    +0.000 A 
ATOM     15  C   UNL     1      -4.336  12.962  22.189  0.00  0.00    +0.000 A 
ATOM     16  C   UNL     1      -3.807  14.053  22.883  0.00  0.00    +0.000 A 
ATOM     17  C   UNL     1      -1.230  12.955  20.228  0.00  0.00    +0.000 C 
ATOM     18  C   UNL     1      -0.986  13.273  18.757  0.00  0.00    +0.000 C 
ENDROOT
BRANCH   1  20
ATOM     19  N   UNL     1       0.603  11.056  18.475  0.00  0.00    +0.000 N 
ATOM     20  C   UNL     1       1.322  12.237  18.618  0.00  0.00    +0.000 C 
ATOM     21  O   UNL     1       2.538  12.277  18.829  0.00  0.00    +0.000 OA
ATOM     22  H   UNL     1      -0.163  11.064  17.803  0.00  0.00    +0.000 HD
BRANCH  19  28
ATOM     23  C   UNL     1       1.242   9.275  20.105  0.00  0.00    +0.000 A 
ATOM     24  C   UNL     1       1.804   7.985  20.311  0.00  0.00    +0.000 A 
ATOM     25  C   UNL     1       2.301   7.234  19.258  0.00  0.00    +0.000 A 
ATOM     26  C   UNL     1       2.244   7.744  17.963  0.00  0.00    +0.000 A 
ATOM     27  C   UNL     1       1.673   8.997  17.737  0.00  0.00    +0.000 A 
ATOM     28  C   UNL     1       1.152   9.771  18.784  0.00  0.00    +0.000 A 
BRANCH  23  29
ATOM     29  C   UNL     1       0.722   9.922  21.345  0.00  0.00    +0.000 C 
ATOM     30  O   UNL     1       1.128  10.984  21.786  0.00  0.00    +0.000 OA
BRANCH  29  32
ATOM     31  C   UNL     1      -0.715   9.757  23.159  0.00  0.00    +0.000 C 
ATOM     32  O   UNL     1      -0.253   9.179  21.936  0.00  0.00    +0.000 OA
ENDBRANCH  29  32
ENDBRANCH  23  29
ENDBRANCH  19  28
ENDBRANCH   1  20
TORSDOF 4
ENDMDL
MODEL 2
REMARK VINA RESULT:      -7.0      3.385      6.055
REMARK  Name = 
REMARK  5 active torsions:
REMARK  status: ('A' for Active; 'I' for Inactive)
REMARK    1  A    between atoms: C_1  and  O_2
REMARK    2  A    between atoms: O_2  and  C_3
REMARK    3  A    between atoms: C_3  and  C_5
REMARK    4  A    between atoms: C_10  and  N_11
REMARK    5  A    between atoms: C_12  and  C_14
REMARK                            x       y       z     vdW  Elec       q    Type
REMARK                         _______ _______ _______ _____ _____    ______ ____
ROOT
ATOM      1  C   UNL     1      -0.080  13.269  20.457  0.00  0.00    +0.000 C 
ATOM      2  C   UNL     1      -0.643  11.891  20.055  0.00  0.00    +0.000 C 
ATOM      3  C   UNL     1      -2.145  11.900  19.679  0.00  0.00    +0.000 C 
ATOM      4  N   UNL     1      -3.041  12.679  20.584  0.00  0.00    +0.000 N 
ATOM      5  C   UNL     1      -4.390  12.758  20.112  0.00  0.00    +0.000 C 
ATOM      6  O   UNL     1      -4.596  12.714  18.892  0.00  0.00    +0.000 OA
ATOM      7  N   UNL     1      -5.428  12.433  21.029  0.00  0.00    +0.000 N 
ATOM      8  C   UNL     1      -6.375  11.471  20.432  0.00  0.00    +0.000 C 
ATOM      9  C   UNL     1      -7.669  11.189  21.182  0.00  0.00    +0.000 C 
ATOM     10  O   UNL     1      -7.540  11.370  22.582  0.00  0.00    +0.000 OA
ATOM     11  C   UNL     1      -7.136  12.668  22.793  0.00  0.00    +0.000 A 
ATOM     12  C   UNL     1      -7.903  13.365  23.741  0.00  0.00    +0.000 A 
ATOM     13  C   UNL     1      -7.587  14.678  24.038  0.00  0.00    +0.000 A 
ATOM     14  C   UNL     1      -6.486  15.258  23.399  0.00  0.00    +0.000 A 
ATOM     15  C   UNL     1      -5.725  14.550  22.432  0.00  0.00    +0.000 A 
ATOM     16  C   UNL     1      -6.038  13.232  22.086  0.00  0.00    +0.000 A 
ATOM     17  C   UNL     1      -2.466  13.987  20.832  0.00  0.00    +0.000 C 
ATOM     18  C   UNL     1      -1.067  13.910  21.433  0.00  0.00    +0.000 C 
ENDROOT
BRANCH   1  20
ATOM     19  N   UNL     1       0.445  15.518  19.570  0.00  0.00    +0.000 N 
ATOM     20  C   UNL     1       0.197  14.187  19.255  0.00  0.00    +0.000 C 
ATOM     21  O   UNL     1       0.202  13.744  18.103  0.00  0.00    +0.000 OA
ATOM     22  H   UNL     1       0.954  15.698  20.434  0.00  0.00    +0.000 HD
BRANCH  19  28
ATOM     23  C   UNL     1       1.717  17.020  18.033  0.00  0.00    +0.000 A 
ATOM     24  C   UNL     1       1.671  18.051  17.055  0.00  0.00    +0.000 A 
ATOM     25  C   UNL     1       0.473  18.631  16.669  0.00  0.00    +0.000 A 
ATOM     26  C   UNL     1      -0.718  18.191  17.241  0.00  0.00    +0.000 A 
ATOM     27  C   UNL     1      -0.696  17.162  18.183  0.00  0.00    +0.000 A 
ATOM     28  C   UNL     1       0.502  16.551  18.582  0.00  0.00    +0.000 A 
BRANCH  23  29
ATOM     29  C   UNL     1       3.086  16.487  18.297  0.00  0.00    +0.000 C 
ATOM     30  O   UNL     1       3.968  17.112  18.862  0.00  0.00    +0.000 OA
BRANCH  29  32
ATOM     31  C   UNL     1       4.569  14.727  18.002  0.00  0.00    +0.000 C 
ATOM     32  O   UNL     1       3.240  15.221  17.821  0.00  0.00    +0.000 OA
ENDBRANCH  29  32
ENDBRANCH  23  29
ENDBRANCH  19  28
ENDBRANCH   1  20
TORSDOF 4
ENDMDL
MODEL 3
REMARK VINA RESULT:      -7.0      1.362      1.702
REMARK  Name = 
REMARK  5 active torsions:
REMARK  status: ('A' for Active; 'I' for Inactive)
REMARK    1  A    between atoms: C_1  and  O_2
REMARK    2  A    between atoms: O_2  and  C_3
REMARK    3  A    between atoms: C_3  and  C_5
REMARK    4  A    between atoms: C_10  and  N_11
REMARK    5  A    between atoms: C_12  and  C_14
REMARK                            x       y       z     vdW  Elec       q    Type
REMARK                         _______ _______ _______ _____ _____    ______ ____
ROOT
ATOM      1  C   UNL     1      -1.453  12.102  18.124  0.00  0.00    +0.000 C 
ATOM      2  C   UNL     1      -0.636  13.202  18.829  0.00  0.00    +0.000 C 
ATOM      3  C   UNL     1      -0.879  13.297  20.356  0.00  0.00    +0.000 C 
ATOM      4  N   UNL     1      -2.302  13.225  20.798  0.00  0.00    +0.000 N 
ATOM      5  C   UNL     1      -2.450  13.185  22.222  0.00  0.00    +0.000 C 
ATOM      6  O   UNL     1      -1.543  12.683  22.900  0.00  0.00    +0.000 OA
ATOM      7  N   UNL     1      -3.370  14.094  22.812  0.00  0.00    +0.000 N 
ATOM      8  C   UNL     1      -2.748  14.815  23.940  0.00  0.00    +0.000 C 
ATOM      9  C   UNL     1      -3.651  15.656  24.831  0.00  0.00    +0.000 C 
ATOM     10  O   UNL     1      -4.796  16.140  24.149  0.00  0.00    +0.000 OA
ATOM     11  C   UNL     1      -5.479  15.048  23.666  0.00  0.00    +0.000 A 
ATOM     12  C   UNL     1      -6.849  15.041  23.975  0.00  0.00    +0.000 A 
ATOM     13  C   UNL     1      -7.639  13.993  23.539  0.00  0.00    +0.000 A 
ATOM     14  C   UNL     1      -7.044  12.985  22.774  0.00  0.00    +0.000 A 
ATOM     15  C   UNL     1      -5.654  12.994  22.478  0.00  0.00    +0.000 A 
ATOM     16  C   UNL     1      -4.823  14.021  22.931  0.00  0.00    +0.000 A 
ATOM     17  C   UNL     1      -2.959  12.109  20.144  0.00  0.00    +0.000 C 
ATOM     18  C   UNL     1      -2.896  12.198  18.624  0.00  0.00    +0.000 C 
ENDROOT
BRANCH   1  20
ATOM     19  N   UNL     1       0.383  10.642  18.907  0.00  0.00    +0.000 N 
ATOM     20  C   UNL     1      -0.881  10.690  18.331  0.00  0.00    +0.000 C 
ATOM     21  O   UNL     1      -1.524   9.688  18.008  0.00  0.00    +0.000 OA
ATOM     22  H   UNL     1       0.595  11.349  19.609  0.00  0.00    +0.000 HD
BRANCH  19  28
ATOM     23  C   UNL     1       1.135   8.572  20.086  0.00  0.00    +0.000 A 
ATOM     24  C   UNL     1       1.943   7.403  20.057  0.00  0.00    +0.000 A 
ATOM     25  C   UNL     1       2.782   7.128  18.988  0.00  0.00    +0.000 A 
ATOM     26  C   UNL     1       2.831   8.008  17.910  0.00  0.00    +0.000 A 
ATOM     27  C   UNL     1       2.026   9.148  17.908  0.00  0.00    +0.000 A 
ATOM     28  C   UNL     1       1.161   9.442  18.972  0.00  0.00    +0.000 A 
BRANCH  23  29
ATOM     29  C   UNL     1       0.267   8.687  21.295  0.00  0.00    +0.000 C 
ATOM     30  O   UNL     1      -0.666   7.942  21.543  0.00  0.00    +0.000 OA
BRANCH  29  32
ATOM     31  C   UNL     1       0.068   9.650  23.396  0.00  0.00    +0.000 C 
ATOM     32  O   UNL     1       0.633   9.732  22.086  0.00  0.00    +0.000 OA
ENDBRANCH  29  32
ENDBRANCH  23  29
ENDBRANCH  19  28
ENDBRANCH   1  20
TORSDOF 4
ENDMDL
MODEL 4
REMARK VINA RESULT:      -6.9      1.294      1.466
REMARK  Name = 
REMARK  5 active torsions:
REMARK  status: ('A' for Active; 'I' for Inactive)
REMARK    1  A    between atoms: C_1  and  O_2
REMARK    2  A    between atoms: O_2  and  C_3
REMARK    3  A    between atoms: C_3  and  C_5
REMARK    4  A    between atoms: C_10  and  N_11
REMARK    5  A    between atoms: C_12  and  C_14
REMARK                            x       y       z     vdW  Elec       q    Type
REMARK                         _______ _______ _______ _____ _____    ______ ____
ROOT
ATOM      1  C   UNL     1      -0.902  12.256  18.561  0.00  0.00    +0.000 C 
ATOM      2  C   UNL     1       0.062  13.264  19.218  0.00  0.00    +0.000 C 
ATOM      3  C   UNL     1      -0.162  13.466  20.737  0.00  0.00    +0.000 C 
ATOM      4  N   UNL     1      -1.581  13.614  21.175  0.00  0.00    +0.000 N 
ATOM      5  C   UNL     1      -1.730  13.664  22.598  0.00  0.00    +0.000 C 
ATOM      6  O   UNL     1      -0.901  13.074  23.304  0.00  0.00    +0.000 OA
ATOM      7  N   UNL     1      -2.513  14.721  23.140  0.00  0.00    +0.000 N 
ATOM      8  C   UNL     1      -1.794  15.401  24.234  0.00  0.00    +0.000 C 
ATOM      9  C   UNL     1      -2.568  16.402  25.080  0.00  0.00    +0.000 C 
ATOM     10  O   UNL     1      -3.635  17.008  24.369  0.00  0.00    +0.000 OA
ATOM     11  C   UNL     1      -4.466  16.000  23.937  0.00  0.00    +0.000 A 
ATOM     12  C   UNL     1      -5.822  16.201  24.238  0.00  0.00    +0.000 A 
ATOM     13  C   UNL     1      -6.752  15.254  23.849  0.00  0.00    +0.000 A 
ATOM     14  C   UNL     1      -6.305  14.137  23.136  0.00  0.00    +0.000 A 
ATOM     15  C   UNL     1      -4.929  13.936  22.847  0.00  0.00    +0.000 A 
ATOM     16  C   UNL     1      -3.961  14.858  23.255  0.00  0.00    +0.000 A 
ATOM     17  C   UNL     1      -2.388  12.571  20.572  0.00  0.00    +0.000 C 
ATOM     18  C   UNL     1      -2.316  12.578  19.049  0.00  0.00    +0.000 C 
ENDROOT
BRANCH   1  20
ATOM     19  N   UNL     1       0.812  10.558  19.106  0.00  0.00    +0.000 N 
ATOM     20  C   UNL     1      -0.533  10.790  18.839  0.00  0.00    +0.000 C 
ATOM     21  O   UNL     1      -1.392   9.904  18.829  0.00  0.00    +0.000 OA
ATOM     22  H   UNL     1       1.308  11.280  19.625  0.00  0.00    +0.000 HD
BRANCH  19  28
ATOM     23  C   UNL     1       1.537   8.536  20.380  0.00  0.00    +0.000 A 
ATOM     24  C   UNL     1       2.106   7.234  20.339  0.00  0.00    +0.000 A 
ATOM     25  C   UNL     1       2.542   6.671  19.149  0.00  0.00    +0.000 A 
ATOM     26  C   UNL     1       2.414   7.388  17.963  0.00  0.00    +0.000 A 
ATOM     27  C   UNL     1       1.833   8.657  17.979  0.00  0.00    +0.000 A 
ATOM     28  C   UNL     1       1.374   9.243  19.167  0.00  0.00    +0.000 A 
BRANCH  23  29
ATOM     29  C   UNL     1       1.089   8.965  21.738  0.00  0.00    +0.000 C 
ATOM     30  O   UNL     1       1.844   9.277  22.643  0.00  0.00    +0.000 OA
BRANCH  29  32
ATOM     31  C   UNL     1      -0.731   9.781  22.923  0.00  0.00    +0.000 C 
ATOM     32  O   UNL     1      -0.268   8.958  21.852  0.00  0.00    +0.000 OA
ENDBRANCH  29  32
ENDBRANCH  23  29
ENDBRANCH  19  28
ENDBRANCH   1  20
TORSDOF 4
ENDMDL
MODEL 5
REMARK VINA RESULT:      -6.9      3.030      8.409
REMARK  Name = 
REMARK  5 active torsions:
REMARK  status: ('A' for Active; 'I' for Inactive)
REMARK    1  A    between atoms: C_1  and  O_2
REMARK    2  A    between atoms: O_2  and  C_3
REMARK    3  A    between atoms: C_3  and  C_5
REMARK    4  A    between atoms: C_10  and  N_11
REMARK    5  A    between atoms: C_12  and  C_14
REMARK                            x       y       z     vdW  Elec       q    Type
REMARK                         _______ _______ _______ _____ _____    ______ ____
ROOT
ATOM      1  C   UNL     1       0.388  12.182  20.298  0.00  0.00    +0.000 C 
ATOM      2  C   UNL     1       1.708  12.325  19.515  0.00  0.00    +0.000 C 
ATOM      3  C   UNL     1       2.028  11.134  18.579  0.00  0.00    +0.000 C 
ATOM      4  N   UNL     1       1.812   9.774  19.155  0.00  0.00    +0.000 N 
ATOM      5  C   UNL     1       1.998   8.721  18.202  0.00  0.00    +0.000 C 
ATOM      6  O   UNL     1       1.769   8.954  17.007  0.00  0.00    +0.000 OA
ATOM      7  N   UNL     1       2.840   7.639  18.575  0.00  0.00    +0.000 N 
ATOM      8  C   UNL     1       3.835   7.358  17.521  0.00  0.00    +0.000 C 
ATOM      9  C   UNL     1       4.667   6.089  17.648  0.00  0.00    +0.000 C 
ATOM     10  O   UNL     1       4.839   5.681  18.994  0.00  0.00    +0.000 OA
ATOM     11  C   UNL     1       3.587   5.490  19.530  0.00  0.00    +0.000 A 
ATOM     12  C   UNL     1       3.420   4.258  20.184  0.00  0.00    +0.000 A 
ATOM     13  C   UNL     1       2.202   3.957  20.765  0.00  0.00    +0.000 A 
ATOM     14  C   UNL     1       1.182   4.912  20.705  0.00  0.00    +0.000 A 
ATOM     15  C   UNL     1       1.356   6.149  20.030  0.00  0.00    +0.000 A 
ATOM     16  C   UNL     1       2.564   6.471  19.405  0.00  0.00    +0.000 A 
ATOM     17  C   UNL     1       0.511   9.716  19.793  0.00  0.00    +0.000 C 
ATOM     18  C   UNL     1       0.343  10.769  20.883  0.00  0.00    +0.000 C 
ENDROOT
BRANCH   1  20
ATOM     19  N   UNL     1      -2.009  11.792  19.824  0.00  0.00    +0.000 N 
ATOM     20  C   UNL     1      -0.859  12.477  19.448  0.00  0.00    +0.000 C 
ATOM     21  O   UNL     1      -0.815  13.278  18.510  0.00  0.00    +0.000 OA
ATOM     22  H   UNL     1      -2.140  11.629  20.821  0.00  0.00    +0.000 HD
BRANCH  19  28
ATOM     23  C   UNL     1      -4.424  12.316  19.460  0.00  0.00    +0.000 A 
ATOM     24  C   UNL     1      -5.547  12.246  18.591  0.00  0.00    +0.000 A 
ATOM     25  C   UNL     1      -5.472  11.617  17.358  0.00  0.00    +0.000 A 
ATOM     26  C   UNL     1      -4.269  11.048  16.950  0.00  0.00    +0.000 A 
ATOM     27  C   UNL     1      -3.147  11.129  17.777  0.00  0.00    +0.000 A 
ATOM     28  C   UNL     1      -3.195  11.770  19.024  0.00  0.00    +0.000 A 
BRANCH  23  29
ATOM     29  C   UNL     1      -4.675  13.062  20.728  0.00  0.00    +0.000 C 
ATOM     30  O   UNL     1      -5.098  14.205  20.779  0.00  0.00    +0.000 OA
BRANCH  29  32
ATOM     31  C   UNL     1      -3.951  13.125  22.931  0.00  0.00    +0.000 C 
ATOM     32  O   UNL     1      -4.364  12.319  21.825  0.00  0.00    +0.000 OA
ENDBRANCH  29  32
ENDBRANCH  23  29
ENDBRANCH  19  28
ENDBRANCH   1  20
TORSDOF 4
ENDMDL
MODEL 6
REMARK VINA RESULT:      -6.8      3.202      8.469
REMARK  Name = 
REMARK  5 active torsions:
REMARK  status: ('A' for Active; 'I' for Inactive)
REMARK    1  A    between atoms: C_1  and  O_2
REMARK    2  A    between atoms: O_2  and  C_3
REMARK    3  A    between atoms: C_3  and  C_5
REMARK    4  A    between atoms: C_10  and  N_11
REMARK    5  A    between atoms: C_12  and  C_14
REMARK                            x       y       z     vdW  Elec       q    Type
REMARK                         _______ _______ _______ _____ _____    ______ ____
ROOT
ATOM      1  C   UNL     1       0.485  12.385  20.397  0.00  0.00    +0.000 C 
ATOM      2  C   UNL     1       1.725  12.509  19.490  0.00  0.00    +0.000 C 
ATOM      3  C   UNL     1       1.949  11.303  18.545  0.00  0.00    +0.000 C 
ATOM      4  N   UNL     1       1.782   9.952  19.158  0.00  0.00    +0.000 N 
ATOM      5  C   UNL     1       1.871   8.886  18.207  0.00  0.00    +0.000 C 
ATOM      6  O   UNL     1       1.531   9.103  17.036  0.00  0.00    +0.000 OA
ATOM      7  N   UNL     1       2.740   7.803  18.514  0.00  0.00    +0.000 N 
ATOM      8  C   UNL     1       3.628   7.502  17.374  0.00  0.00    +0.000 C 
ATOM      9  C   UNL     1       4.463   6.230  17.439  0.00  0.00    +0.000 C 
ATOM     10  O   UNL     1       4.761   5.839  18.769  0.00  0.00    +0.000 OA
ATOM     11  C   UNL     1       3.564   5.663  19.424  0.00  0.00    +0.000 A 
ATOM     12  C   UNL     1       3.455   4.442  20.109  0.00  0.00    +0.000 A 
ATOM     13  C   UNL     1       2.296   4.156  20.807  0.00  0.00    +0.000 A 
ATOM     14  C   UNL     1       1.280   5.116  20.830  0.00  0.00    +0.000 A 
ATOM     15  C   UNL     1       1.394   6.343  20.124  0.00  0.00    +0.000 A 
ATOM     16  C   UNL     1       2.538   6.648  19.383  0.00  0.00    +0.000 A 
ATOM     17  C   UNL     1       0.547   9.911  19.918  0.00  0.00    +0.000 C 
ATOM     18  C   UNL     1       0.489  10.980  21.004  0.00  0.00    +0.000 C 
ENDROOT
BRANCH   1  20
ATOM     19  N   UNL     1      -1.963  12.076  20.216  0.00  0.00    +0.000 N 
ATOM     20  C   UNL     1      -0.836  12.676  19.666  0.00  0.00    +0.000 C 
ATOM     21  O   UNL     1      -0.865  13.402  18.669  0.00  0.00    +0.000 OA
ATOM     22  H   UNL     1      -1.990  11.993  21.231  0.00  0.00    +0.000 HD
BRANCH  19  28
ATOM     23  C   UNL     1      -3.421  11.453  18.286  0.00  0.00    +0.000 A 
ATOM     24  C   UNL     1      -4.719  11.480  17.707  0.00  0.00    +0.000 A 
ATOM     25  C   UNL     1      -5.779  12.115  18.334  0.00  0.00    +0.000 A 
ATOM     26  C   UNL     1      -5.577  12.736  19.564  0.00  0.00    +0.000 A 
ATOM     27  C   UNL     1      -4.316  12.698  20.161  0.00  0.00    +0.000 A 
ATOM     28  C   UNL     1      -3.231  12.052  19.552  0.00  0.00    +0.000 A 
BRANCH  23  29
ATOM     29  C   UNL     1      -2.411  10.693  17.492  0.00  0.00    +0.000 C 
ATOM     30  O   UNL     1      -1.719   9.796  17.942  0.00  0.00    +0.000 OA
BRANCH  29  32
ATOM     31  C   UNL     1      -2.755  10.128  15.267  0.00  0.00    +0.000 C 
ATOM     32  O   UNL     1      -2.345  11.127  16.203  0.00  0.00    +0.000 OA
ENDBRANCH  29  32
ENDBRANCH  23  29
ENDBRANCH  19  28
ENDBRANCH   1  20
TORSDOF 4
ENDMDL
MODEL 7
REMARK VINA RESULT:      -6.8      2.567      8.773
REMARK  Name = 
REMARK  5 active torsions:
REMARK  status: ('A' for Active; 'I' for Inactive)
REMARK    1  A    between atoms: C_1  and  O_2
REMARK    2  A    between atoms: O_2  and  C_3
REMARK    3  A    between atoms: C_3  and  C_5
REMARK    4  A    between atoms: C_10  and  N_11
REMARK    5  A    between atoms: C_12  and  C_14
REMARK                            x       y       z     vdW  Elec       q    Type
REMARK                         _______ _______ _______ _____ _____    ______ ____
ROOT
ATOM      1  C   UNL     1       0.058  11.660  21.422  0.00  0.00    +0.000 C 
ATOM      2  C   UNL     1       1.183  12.039  20.438  0.00  0.00    +0.000 C 
ATOM      3  C   UNL     1       1.432  10.996  19.321  0.00  0.00    +0.000 C 
ATOM      4  N   UNL     1       1.463   9.568  19.754  0.00  0.00    +0.000 N 
ATOM      5  C   UNL     1       1.563   8.648  18.661  0.00  0.00    +0.000 C 
ATOM      6  O   UNL     1       1.089   8.974  17.564  0.00  0.00    +0.000 OA
ATOM      7  N   UNL     1       2.563   7.640  18.740  0.00  0.00    +0.000 N 
ATOM      8  C   UNL     1       3.359   7.589  17.499  0.00  0.00    +0.000 C 
ATOM      9  C   UNL     1       4.319   6.421  17.316  0.00  0.00    +0.000 C 
ATOM     10  O   UNL     1       4.785   5.900  18.549  0.00  0.00    +0.000 OA
ATOM     11  C   UNL     1       3.683   5.508  19.274  0.00  0.00    +0.000 A 
ATOM     12  C   UNL     1       3.765   4.205  19.790  0.00  0.00    +0.000 A 
ATOM     13  C   UNL     1       2.716   3.703  20.539  0.00  0.00    +0.000 A 
ATOM     14  C   UNL     1       1.616   4.532  20.780  0.00  0.00    +0.000 A 
ATOM     15  C   UNL     1       1.536   5.844  20.243  0.00  0.00    +0.000 A 
ATOM     16  C   UNL     1       2.565   6.368  19.456  0.00  0.00    +0.000 A 
ATOM     17  C   UNL     1       0.320   9.291  20.603  0.00  0.00    +0.000 C 
ATOM     18  C   UNL     1       0.263  10.199  21.826  0.00  0.00    +0.000 C 
ENDROOT
BRANCH   1  20
ATOM     19  N   UNL     1      -2.213  12.609  21.675  0.00  0.00    +0.000 N 
ATOM     20  C   UNL     1      -1.352  11.892  20.852  0.00  0.00    +0.000 C 
ATOM     21  O   UNL     1      -1.665  11.468  19.737  0.00  0.00    +0.000 OA
ATOM     22  H   UNL     1      -1.799  13.351  22.237  0.00  0.00    +0.000 HD
BRANCH  19  28
ATOM     23  C   UNL     1      -4.587  12.748  22.439  0.00  0.00    +0.000 A 
ATOM     24  C   UNL     1      -5.956  12.871  22.079  0.00  0.00    +0.000 A 
ATOM     25  C   UNL     1      -6.354  12.925  20.752  0.00  0.00    +0.000 A 
ATOM     26  C   UNL     1      -5.395  12.868  19.745  0.00  0.00    +0.000 A 
ATOM     27  C   UNL     1      -4.043  12.774  20.079  0.00  0.00    +0.000 A 
ATOM     28  C   UNL     1      -3.614  12.729  21.413  0.00  0.00    +0.000 A 
BRANCH  23  29
ATOM     29  C   UNL     1      -4.339  12.743  23.911  0.00  0.00    +0.000 C 
ATOM     30  O   UNL     1      -4.999  12.109  24.716  0.00  0.00    +0.000 OA
BRANCH  29  32
ATOM     31  C   UNL     1      -3.695  14.887  24.524  0.00  0.00    +0.000 C 
ATOM     32  O   UNL     1      -3.291  13.543  24.253  0.00  0.00    +0.000 OA
ENDBRANCH  29  32
ENDBRANCH  23  29
ENDBRANCH  19  28
ENDBRANCH   1  20
TORSDOF 4
ENDMDL
MODEL 8
REMARK VINA RESULT:      -6.8      3.415      8.490
REMARK  Name = 
REMARK  5 active torsions:
REMARK  status: ('A' for Active; 'I' for Inactive)
REMARK    1  A    between atoms: C_1  and  O_2
REMARK    2  A    between atoms: O_2  and  C_3
REMARK    3  A    between atoms: C_3  and  C_5
REMARK    4  A    between atoms: C_10  and  N_11
REMARK    5  A    between atoms: C_12  and  C_14
REMARK                            x       y       z     vdW  Elec       q    Type
REMARK                         _______ _______ _______ _____ _____    ______ ____
ROOT
ATOM      1  C   UNL     1       0.301  11.838  20.162  0.00  0.00    +0.000 C 
ATOM      2  C   UNL     1       1.704  12.004  19.545  0.00  0.00    +0.000 C 
ATOM      3  C   UNL     1       2.144  10.830  18.635  0.00  0.00    +0.000 C 
ATOM      4  N   UNL     1       1.872   9.459  19.158  0.00  0.00    +0.000 N 
ATOM      5  C   UNL     1       2.179   8.425  18.217  0.00  0.00    +0.000 C 
ATOM      6  O   UNL     1       2.092   8.677  17.007  0.00  0.00    +0.000 OA
ATOM      7  N   UNL     1       2.980   7.341  18.670  0.00  0.00    +0.000 N 
ATOM      8  C   UNL     1       4.095   7.085  17.737  0.00  0.00    +0.000 C 
ATOM      9  C   UNL     1       4.917   5.820  17.941  0.00  0.00    +0.000 C 
ATOM     10  O   UNL     1       4.931   5.389  19.292  0.00  0.00    +0.000 OA
ATOM     11  C   UNL     1       3.625   5.181  19.671  0.00  0.00    +0.000 A 
ATOM     12  C   UNL     1       3.392   3.937  20.280  0.00  0.00    +0.000 A 
ATOM     13  C   UNL     1       2.116   3.618  20.707  0.00  0.00    +0.000 A 
ATOM     14  C   UNL     1       1.103   4.567  20.541  0.00  0.00    +0.000 A 
ATOM     15  C   UNL     1       1.345   5.817  19.912  0.00  0.00    +0.000 A 
ATOM     16  C   UNL     1       2.616   6.157  19.441  0.00  0.00    +0.000 A 
ATOM     17  C   UNL     1       0.504   9.382  19.635  0.00  0.00    +0.000 C 
ATOM     18  C   UNL     1       0.199  10.415  20.714  0.00  0.00    +0.000 C 
ENDROOT
BRANCH   1  20
ATOM     19  N   UNL     1      -1.740  11.101  18.975  0.00  0.00    +0.000 N 
ATOM     20  C   UNL     1      -0.838  12.140  19.175  0.00  0.00    +0.000 C 
ATOM     21  O   UNL     1      -0.926  13.239  18.621  0.00  0.00    +0.000 OA
ATOM     22  H   UNL     1      -1.952  10.515  19.781  0.00  0.00    +0.000 HD
BRANCH  19  28
ATOM     23  C   UNL     1      -4.043  11.589  18.140  0.00  0.00    +0.000 A 
ATOM     24  C   UNL     1      -4.950  11.567  17.045  0.00  0.00    +0.000 A 
ATOM     25  C   UNL     1      -4.584  11.056  15.810  0.00  0.00    +0.000 A 
ATOM     26  C   UNL     1      -3.296  10.560  15.627  0.00  0.00    +0.000 A 
ATOM     27  C   UNL     1      -2.382  10.596  16.682  0.00  0.00    +0.000 A 
ATOM     28  C   UNL     1      -2.725  11.119  17.937  0.00  0.00    +0.000 A 
BRANCH  23  29
ATOM     29  C   UNL     1      -4.594  12.210  19.380  0.00  0.00    +0.000 C 
ATOM     30  O   UNL     1      -3.916  12.754  20.235  0.00  0.00    +0.000 OA
BRANCH  29  32
ATOM     31  C   UNL     1      -6.411  11.919  20.795  0.00  0.00    +0.000 C 
ATOM     32  O   UNL     1      -5.948  12.085  19.453  0.00  0.00    +0.000 OA
ENDBRANCH  29  32
ENDBRANCH  23  29
ENDBRANCH  19  28
ENDBRANCH   1  20
TORSDOF 4
ENDMDL
MODEL 9
REMARK VINA RESULT:      -6.8      1.519      1.927
REMARK  Name = 
REMARK  5 active torsions:
REMARK  status: ('A' for Active; 'I' for Inactive)
REMARK    1  A    between atoms: C_1  and  O_2
REMARK    2  A    between atoms: O_2  and  C_3
REMARK    3  A    between atoms: C_3  and  C_5
REMARK    4  A    between atoms: C_10  and  N_11
REMARK    5  A    between atoms: C_12  and  C_14
REMARK                            x       y       z     vdW  Elec       q    Type
REMARK                         _______ _______ _______ _____ _____    ______ ____
ROOT
ATOM      1  C   UNL     1       0.552  13.453  18.534  0.00  0.00    +0.000 C 
ATOM      2  C   UNL     1       0.513  14.273  19.839  0.00  0.00    +0.000 C 
ATOM      3  C   UNL     1      -0.454  13.717  20.913  0.00  0.00    +0.000 C 
ATOM      4  N   UNL     1      -1.800  13.293  20.426  0.00  0.00    +0.000 N 
ATOM      5  C   UNL     1      -2.597  12.669  21.438  0.00  0.00    +0.000 C 
ATOM      6  O   UNL     1      -2.025  12.057  22.350  0.00  0.00    +0.000 OA
ATOM      7  N   UNL     1      -3.926  13.141  21.612  0.00  0.00    +0.000 N 
ATOM      8  C   UNL     1      -4.204  13.422  23.034  0.00  0.00    +0.000 C 
ATOM      9  C   UNL     1      -5.643  13.715  23.434  0.00  0.00    +0.000 C 
ATOM     10  O   UNL     1      -6.399  14.282  22.378  0.00  0.00    +0.000 OA
ATOM     11  C   UNL     1      -6.363  13.397  21.324  0.00  0.00    +0.000 A 
ATOM     12  C   UNL     1      -7.622  13.094  20.781  0.00  0.00    +0.000 A 
ATOM     13  C   UNL     1      -7.709  12.218  19.715  0.00  0.00    +0.000 A 
ATOM     14  C   UNL     1      -6.526  11.685  19.194  0.00  0.00    +0.000 A 
ATOM     15  C   UNL     1      -5.258  11.987  19.759  0.00  0.00    +0.000 A 
ATOM     16  C   UNL     1      -5.139  12.843  20.856  0.00  0.00    +0.000 A 
ATOM     17  C   UNL     1      -1.651  12.459  19.248  0.00  0.00    +0.000 C 
ATOM     18  C   UNL     1      -0.893  13.157  18.125  0.00  0.00    +0.000 C 
ENDROOT
BRANCH   1  20
ATOM     19  N   UNL     1       0.655  10.981  18.514  0.00  0.00    +0.000 N 
ATOM     20  C   UNL     1       1.377  12.161  18.650  0.00  0.00    +0.000 C 
ATOM     21  O   UNL     1       2.596  12.199  18.842  0.00  0.00    +0.000 OA
ATOM     22  H   UNL     1      -0.122  10.992  17.855  0.00  0.00    +0.000 HD
BRANCH  19  28
ATOM     23  C   UNL     1       1.272   9.173  20.123  0.00  0.00    +0.000 A 
ATOM     24  C   UNL     1       1.840   7.884  20.316  0.00  0.00    +0.000 A 
ATOM     25  C   UNL     1       2.367   7.158  19.260  0.00  0.00    +0.000 A 
ATOM     26  C   UNL     1       2.335   7.694  17.975  0.00  0.00    +0.000 A 
ATOM     27  C   UNL     1       1.759   8.947  17.760  0.00  0.00    +0.000 A 
ATOM     28  C   UNL     1       1.208   9.695  18.811  0.00  0.00    +0.000 A 
BRANCH  23  29
ATOM     29  C   UNL     1       0.718   9.791  21.363  0.00  0.00    +0.000 C 
ATOM     30  O   UNL     1       1.047  10.885  21.790  0.00  0.00    +0.000 OA
BRANCH  29  32
ATOM     31  C   UNL     1      -0.372   9.304  23.353  0.00  0.00    +0.000 C 
ATOM     32  O   UNL     1      -0.192   8.982  21.973  0.00  0.00    +0.000 OA
ENDBRANCH  29  32
ENDBRANCH  23  29
ENDBRANCH  19  28
ENDBRANCH   1  20
TORSDOF 4
ENDMDL
