MODEL 1
REMARK VINA RESULT:      -8.3      0.000      0.000
REMARK  Name = 
REMARK  9 active torsions:
REMARK  status: ('A' for Active; 'I' for Inactive)
REMARK    1  A    between atoms: C_1  and  O_2
REMARK    2  A    between atoms: O_2  and  C_3
REMARK    3  A    between atoms: C_7  and  N_8
REMARK    4  A    between atoms: N_8  and  C_9
REMARK    5  A    between atoms: C_9  and  C_10
REMARK    6  A    between atoms: N_12  and  C_13
REMARK    7  A    between atoms: C_18  and  C_20
REMARK    8  A    between atoms: C_20  and  C_21
REMARK    9  A    between atoms: C_21  and  C_22
REMARK                            x       y       z     vdW  Elec       q    Type
REMARK                         _______ _______ _______ _____ _____    ______ ____
ROOT
ATOM      1  N   UNL     1       5.680   5.156  15.964  0.00  0.00    +0.000 N 
ATOM      2  C   UNL     1       4.972   6.339  16.182  0.00  0.00    +0.000 C 
ATOM      3  O   UNL     1       4.859   7.229  15.329  0.00  0.00    +0.000 OA
ENDROOT
BRANCH   1   8
ATOM      4  C   UNL     1       5.879   3.578  12.597  0.00  0.00    +0.000 A 
ATOM      5  C   UNL     1       7.128   4.014  12.160  0.00  0.00    +0.000 A 
ATOM      6  C   UNL     1       7.859   4.918  12.927  0.00  0.00    +0.000 A 
ATOM      7  C   UNL     1       7.365   5.335  14.163  0.00  0.00    +0.000 A 
ATOM      8  C   UNL     1       6.136   4.857  14.638  0.00  0.00    +0.000 A 
ATOM      9  C   UNL     1       5.377   4.008  13.829  0.00  0.00    +0.000 A 
BRANCH   4  11
ATOM     10  C   UNL     1       4.042   3.112  11.200  0.00  0.00    +0.000 C 
ATOM     11  O   UNL     1       5.258   2.663  11.789  0.00  0.00    +0.000 OA
ENDBRANCH   4  11
ENDBRANCH   1   8
BRANCH   1  12
ATOM     12  C   UNL     1       5.662   4.021  16.911  0.00  0.00    +0.000 C 
BRANCH  12  13
ATOM     13  C   UNL     1       4.272   3.555  17.364  0.00  0.00    +0.000 C 
ATOM     14  O   UNL     1       3.369   3.361  16.554  0.00  0.00    +0.000 OA
ATOM     15  N   UNL     1       4.158   3.244  18.700  0.00  0.00    +0.000 N 
ATOM     16  H   UNL     1       4.895   3.560  19.320  0.00  0.00    +0.000 HD
BRANCH  15  17
ATOM     17  C   UNL     1       2.905   2.804  19.286  0.00  0.00    +0.000 C 
ATOM     18  C   UNL     1       2.992   2.727  20.804  0.00  0.00    +0.000 C 
ATOM     19  C   UNL     1       1.547   2.803  21.271  0.00  0.00    +0.000 C 
ATOM     20  C   UNL     1       0.808   3.619  20.215  0.00  0.00    +0.000 C 
ATOM     21  C   UNL     1       1.769   3.795  19.040  0.00  0.00    +0.000 C 
ENDBRANCH  15  17
ENDBRANCH  12  13
ENDBRANCH   1  12
BRANCH   2  22
ATOM     22  C   UNL     1       4.412   6.586  17.574  0.00  0.00    +0.000 C 
BRANCH  22  23
ATOM     23  C   UNL     1       3.070   7.316  17.524  0.00  0.00    +0.000 C 
BRANCH  23  24
ATOM     24  C   UNL     1       2.550   7.550  18.926  0.00  0.00    +0.000 C 
ATOM     25  O   UNL     1       2.752   6.716  19.802  0.00  0.00    +0.000 OA
ATOM     26  N   UNL     1       1.796   8.697  19.033  0.00  0.00    +0.000 N 
ATOM     27  C   UNL     1       1.158   9.045  20.190  0.00  0.00    +0.000 A 
ATOM     28  N   UNL     1       1.288   8.535  21.388  0.00  0.00    +0.000 NA
ATOM     29  C   UNL     1       0.400   9.152  22.243  0.00  0.00    +0.000 A 
ATOM     30  C   UNL     1      -0.410  10.108  21.672  0.00  0.00    +0.000 A 
ATOM     31  S   UNL     1       0.002  10.291  20.016  0.00  0.00    +0.000 S 
ATOM     32  H   UNL     1       1.522   9.201  18.193  0.00  0.00    +0.000 HD
ENDBRANCH  23  24
ENDBRANCH  22  23
ENDBRANCH   2  22
TORSDOF 8
ENDMDL
MODEL 2
REMARK VINA RESULT:      -8.1      4.176      6.931
REMARK  Name = 
REMARK  9 active torsions:
REMARK  status: ('A' for Active; 'I' for Inactive)
REMARK    1  A    between atoms: C_1  and  O_2
REMARK    2  A    between atoms: O_2  and  C_3
REMARK    3  A    between atoms: C_7  and  N_8
REMARK    4  A    between atoms: N_8  and  C_9
REMARK    5  A    between atoms: C_9  and  C_10
REMARK    6  A    between atoms: N_12  and  C_13
REMARK    7  A    between atoms: C_18  and  C_20
REMARK    8  A    between atoms: C_20  and  C_21
REMARK    9  A    between atoms: C_21  and  C_22
REMARK                            x       y       z     vdW  Elec       q    Type
REMARK                         _______ _______ _______ _____ _____    ______ ____
ROOT
ATOM      1  N   UNL     1       5.197   5.315  17.894  0.00  0.00    +0.000 N 
ATOM      2  C   UNL     1       6.590   5.256  17.970  0.00  0.00    +0.000 C 
ATOM      3  O   UNL     1       7.200   4.339  18.535  0.00  0.00    +0.000 OA
ENDROOT
BRANCH   1   8
ATOM      4  C   UNL     1       3.481   2.865  20.111  0.00  0.00    +0.000 A 
ATOM      5  C   UNL     1       3.197   1.834  19.218  0.00  0.00    +0.000 A 
ATOM      6  C   UNL     1       3.471   1.991  17.861  0.00  0.00    +0.000 A 
ATOM      7  C   UNL     1       4.090   3.157  17.411  0.00  0.00    +0.000 A 
ATOM      8  C   UNL     1       4.432   4.176  18.311  0.00  0.00    +0.000 A 
ATOM      9  C   UNL     1       4.087   4.040  19.657  0.00  0.00    +0.000 A 
BRANCH   4  11
ATOM     10  C   UNL     1       1.837   2.728  21.791  0.00  0.00    +0.000 C 
ATOM     11  O   UNL     1       3.207   2.597  21.426  0.00  0.00    +0.000 OA
ENDBRANCH   4  11
ENDBRANCH   1   8
BRANCH   1  12
ATOM     12  C   UNL     1       4.478   6.307  17.066  0.00  0.00    +0.000 C 
BRANCH  12  13
ATOM     13  C   UNL     1       3.103   6.741  17.593  0.00  0.00    +0.000 C 
ATOM     14  O   UNL     1       2.207   5.923  17.784  0.00  0.00    +0.000 OA
ATOM     15  N   UNL     1       3.000   8.065  17.957  0.00  0.00    +0.000 N 
ATOM     16  H   UNL     1       3.728   8.696  17.642  0.00  0.00    +0.000 HD
BRANCH  15  17
ATOM     17  C   UNL     1       1.762   8.633  18.458  0.00  0.00    +0.000 C 
ATOM     18  C   UNL     1       1.652   8.494  19.970  0.00  0.00    +0.000 C 
ATOM     19  C   UNL     1       0.652   9.564  20.378  0.00  0.00    +0.000 C 
ATOM     20  C   UNL     1       0.787  10.679  19.345  0.00  0.00    +0.000 C 
ATOM     21  C   UNL     1       1.679  10.140  18.227  0.00  0.00    +0.000 C 
ENDBRANCH  15  17
ENDBRANCH  12  13
ENDBRANCH   1  12
BRANCH   2  22
ATOM     22  C   UNL     1       7.382   6.435  17.428  0.00  0.00    +0.000 C 
BRANCH  22  23
ATOM     23  C   UNL     1       8.085   7.206  18.545  0.00  0.00    +0.000 C 
BRANCH  23  24
ATOM     24  C   UNL     1       8.186   8.673  18.183  0.00  0.00    +0.000 C 
ATOM     25  O   UNL     1       7.618   9.099  17.182  0.00  0.00    +0.000 OA
ATOM     26  N   UNL     1       9.021   9.375  19.022  0.00  0.00    +0.000 N 
ATOM     27  C   UNL     1       9.323  10.692  18.817  0.00  0.00    +0.000 A 
ATOM     28  N   UNL     1       8.770  11.545  17.993  0.00  0.00    +0.000 NA
ATOM     29  C   UNL     1       9.434  12.750  18.073  0.00  0.00    +0.000 A 
ATOM     30  C   UNL     1      10.501  12.785  18.943  0.00  0.00    +0.000 A 
ATOM     31  S   UNL     1      10.635  11.272  19.744  0.00  0.00    +0.000 S 
ATOM     32  H   UNL     1       9.601   8.875  19.692  0.00  0.00    +0.000 HD
ENDBRANCH  23  24
ENDBRANCH  22  23
ENDBRANCH   2  22
TORSDOF 8
ENDMDL
MODEL 3
REMARK VINA RESULT:      -8.1      3.918      7.310
REMARK  Name = 
REMARK  9 active torsions:
REMARK  status: ('A' for Active; 'I' for Inactive)
REMARK    1  A    between atoms: C_1  and  O_2
REMARK    2  A    between atoms: O_2  and  C_3
REMARK    3  A    between atoms: C_7  and  N_8
REMARK    4  A    between atoms: N_8  and  C_9
REMARK    5  A    between atoms: C_9  and  C_10
REMARK    6  A    between atoms: N_12  and  C_13
REMARK    7  A    between atoms: C_18  and  C_20
REMARK    8  A    between atoms: C_20  and  C_21
REMARK    9  A    between atoms: C_21  and  C_22
REMARK                            x       y       z     vdW  Elec       q    Type
REMARK                         _______ _______ _______ _____ _____    ______ ____
ROOT
ATOM      1  N   UNL     1       4.775   5.671  18.250  0.00  0.00    +0.000 N 
ATOM      2  C   UNL     1       6.020   5.507  18.860  0.00  0.00    +0.000 C 
ATOM      3  O   UNL     1       6.156   5.229  20.058  0.00  0.00    +0.000 OA
ENDROOT
BRANCH   1   8
ATOM      4  C   UNL     1       1.665   3.868  19.222  0.00  0.00    +0.000 A 
ATOM      5  C   UNL     1       1.132   4.732  20.178  0.00  0.00    +0.000 A 
ATOM      6  C   UNL     1       1.851   5.854  20.583  0.00  0.00    +0.000 A 
ATOM      7  C   UNL     1       3.076   6.144  19.983  0.00  0.00    +0.000 A 
ATOM      8  C   UNL     1       3.594   5.314  18.980  0.00  0.00    +0.000 A 
ATOM      9  C   UNL     1       2.900   4.152  18.633  0.00  0.00    +0.000 A 
BRANCH   4  11
ATOM     10  C   UNL     1       1.495   1.541  18.918  0.00  0.00    +0.000 C 
ATOM     11  O   UNL     1       0.864   2.816  18.867  0.00  0.00    +0.000 OA
ENDBRANCH   4  11
ENDBRANCH   1   8
BRANCH   1  12
ATOM     12  C   UNL     1       4.609   5.821  16.788  0.00  0.00    +0.000 C 
BRANCH  12  13
ATOM     13  C   UNL     1       5.134   4.658  15.936  0.00  0.00    +0.000 C 
ATOM     14  O   UNL     1       4.994   3.491  16.294  0.00  0.00    +0.000 OA
ATOM     15  N   UNL     1       5.637   5.007  14.703  0.00  0.00    +0.000 N 
ATOM     16  H   UNL     1       5.845   5.986  14.542  0.00  0.00    +0.000 HD
BRANCH  15  17
ATOM     17  C   UNL     1       6.186   4.025  13.787  0.00  0.00    +0.000 C 
ATOM     18  C   UNL     1       5.121   3.478  12.846  0.00  0.00    +0.000 C 
ATOM     19  C   UNL     1       5.904   2.932  11.663  0.00  0.00    +0.000 C 
ATOM     20  C   UNL     1       7.174   3.774  11.577  0.00  0.00    +0.000 C 
ATOM     21  C   UNL     1       7.226   4.626  12.844  0.00  0.00    +0.000 C 
ENDBRANCH  15  17
ENDBRANCH  12  13
ENDBRANCH   1  12
BRANCH   2  22
ATOM     22  C   UNL     1       7.261   5.797  18.031  0.00  0.00    +0.000 C 
BRANCH  22  23
ATOM     23  C   UNL     1       8.251   6.683  18.785  0.00  0.00    +0.000 C 
BRANCH  23  24
ATOM     24  C   UNL     1       8.184   8.103  18.263  0.00  0.00    +0.000 C 
ATOM     25  O   UNL     1       7.624   8.339  17.198  0.00  0.00    +0.000 OA
ATOM     26  N   UNL     1       8.875   8.996  19.050  0.00  0.00    +0.000 N 
ATOM     27  C   UNL     1       9.017  10.312  18.710  0.00  0.00    +0.000 A 
ATOM     28  N   UNL     1       8.406  10.990  17.771  0.00  0.00    +0.000 NA
ATOM     29  C   UNL     1       8.906  12.274  17.740  0.00  0.00    +0.000 A 
ATOM     30  C   UNL     1       9.909  12.544  18.645  0.00  0.00    +0.000 A 
ATOM     31  S   UNL     1      10.190  11.158  19.617  0.00  0.00    +0.000 S 
ATOM     32  H   UNL     1       9.475   8.653  19.796  0.00  0.00    +0.000 HD
ENDBRANCH  23  24
ENDBRANCH  22  23
ENDBRANCH   2  22
TORSDOF 8
ENDMDL
MODEL 4
REMARK VINA RESULT:      -8.0      4.174      7.247
REMARK  Name = 
REMARK  9 active torsions:
REMARK  status: ('A' for Active; 'I' for Inactive)
REMARK    1  A    between atoms: C_1  and  O_2
REMARK    2  A    between atoms: O_2  and  C_3
REMARK    3  A    between atoms: C_7  and  N_8
REMARK    4  A    between atoms: N_8  and  C_9
REMARK    5  A    between atoms: C_9  and  C_10
REMARK    6  A    between atoms: N_12  and  C_13
REMARK    7  A    between atoms: C_18  and  C_20
REMARK    8  A    between atoms: C_20  and  C_21
REMARK    9  A    between atoms: C_21  and  C_22
REMARK                            x       y       z     vdW  Elec       q    Type
REMARK                         _______ _______ _______ _____ _____    ______ ____
ROOT
ATOM      1  N   UNL     1       4.951   5.959  18.412  0.00  0.00    +0.000 N 
ATOM      2  C   UNL     1       6.292   5.758  18.742  0.00  0.00    +0.000 C 
ATOM      3  O   UNL     1       6.656   5.110  19.732  0.00  0.00    +0.000 OA
ENDROOT
BRANCH   1   8
ATOM      4  C   UNL     1       2.766   3.145  19.496  0.00  0.00    +0.000 A 
ATOM      5  C   UNL     1       1.818   3.813  20.268  0.00  0.00    +0.000 A 
ATOM      6  C   UNL     1       1.960   5.175  20.525  0.00  0.00    +0.000 A 
ATOM      7  C   UNL     1       3.018   5.880  19.952  0.00  0.00    +0.000 A 
ATOM      8  C   UNL     1       3.945   5.229  19.125  0.00  0.00    +0.000 A 
ATOM      9  C   UNL     1       3.835   3.849  18.934  0.00  0.00    +0.000 A 
BRANCH   4  11
ATOM     10  C   UNL     1       3.500   1.146  18.494  0.00  0.00    +0.000 C 
ATOM     11  O   UNL     1       2.516   1.817  19.273  0.00  0.00    +0.000 OA
ENDBRANCH   4  11
ENDBRANCH   1   8
BRANCH   1  12
ATOM     12  C   UNL     1       4.519   6.573  17.137  0.00  0.00    +0.000 C 
BRANCH  12  13
ATOM     13  C   UNL     1       5.156   5.990  15.869  0.00  0.00    +0.000 C 
ATOM     14  O   UNL     1       5.460   6.709  14.920  0.00  0.00    +0.000 OA
ATOM     15  N   UNL     1       5.480   4.653  15.929  0.00  0.00    +0.000 N 
ATOM     16  H   UNL     1       5.075   4.106  16.681  0.00  0.00    +0.000 HD
BRANCH  15  17
ATOM     17  C   UNL     1       6.073   3.952  14.806  0.00  0.00    +0.000 C 
ATOM     18  C   UNL     1       5.064   3.727  13.688  0.00  0.00    +0.000 C 
ATOM     19  C   UNL     1       5.915   3.512  12.447  0.00  0.00    +0.000 C 
ATOM     20  C   UNL     1       7.200   4.303  12.678  0.00  0.00    +0.000 C 
ATOM     21  C   UNL     1       7.182   4.760  14.136  0.00  0.00    +0.000 C 
ENDBRANCH  15  17
ENDBRANCH  12  13
ENDBRANCH   1  12
BRANCH   2  22
ATOM     22  C   UNL     1       7.345   6.466  17.904  0.00  0.00    +0.000 C 
BRANCH  22  23
ATOM     23  C   UNL     1       8.306   7.278  18.771  0.00  0.00    +0.000 C 
BRANCH  23  24
ATOM     24  C   UNL     1       8.348   8.716  18.299  0.00  0.00    +0.000 C 
ATOM     25  O   UNL     1       7.791   9.035  17.253  0.00  0.00    +0.000 OA
ATOM     26  N   UNL     1       9.123   9.522  19.103  0.00  0.00    +0.000 N 
ATOM     27  C   UNL     1       9.367  10.832  18.804  0.00  0.00    +0.000 A 
ATOM     28  N   UNL     1       8.799  11.591  17.901  0.00  0.00    +0.000 NA
ATOM     29  C   UNL     1       9.402  12.830  17.904  0.00  0.00    +0.000 A 
ATOM     30  C   UNL     1      10.439  12.985  18.797  0.00  0.00    +0.000 A 
ATOM     31  S   UNL     1      10.621  11.547  19.716  0.00  0.00    +0.000 S 
ATOM     32  H   UNL     1       9.705   9.104  19.825  0.00  0.00    +0.000 HD
ENDBRANCH  23  24
ENDBRANCH  22  23
ENDBRANCH   2  22
TORSDOF 8
ENDMDL
MODEL 5
REMARK VINA RESULT:      -8.0      1.061      1.226
REMARK  Name = 
REMARK  9 active torsions:
REMARK  status: ('A' for Active; 'I' for Inactive)
REMARK    1  A    between atoms: C_1  and  O_2
REMARK    2  A    between atoms: O_2  and  C_3
REMARK    3  A    between atoms: C_7  and  N_8
REMARK    4  A    between atoms: N_8  and  C_9
REMARK    5  A    between atoms: C_9  and  C_10
REMARK    6  A    between atoms: N_12  and  C_13
REMARK    7  A    between atoms: C_18  and  C_20
REMARK    8  A    between atoms: C_20  and  C_21
REMARK    9  A    between atoms: C_21  and  C_22
REMARK                            x       y       z     vdW  Elec       q    Type
REMARK                         _______ _______ _______ _____ _____    ______ ____
ROOT
ATOM      1  N   UNL     1       5.902   5.307  16.021  0.00  0.00    +0.000 N 
ATOM      2  C   UNL     1       5.107   6.432  16.241  0.00  0.00    +0.000 C 
ATOM      3  O   UNL     1       4.834   7.254  15.357  0.00  0.00    +0.000 OA
ENDROOT
BRANCH   1   8
ATOM      4  C   UNL     1       5.867   3.631  12.696  0.00  0.00    +0.000 A 
ATOM      5  C   UNL     1       7.083   4.052  12.161  0.00  0.00    +0.000 A 
ATOM      6  C   UNL     1       7.865   4.976  12.848  0.00  0.00    +0.000 A 
ATOM      7  C   UNL     1       7.459   5.430  14.103  0.00  0.00    +0.000 A 
ATOM      8  C   UNL     1       6.265   4.968  14.676  0.00  0.00    +0.000 A 
ATOM      9  C   UNL     1       5.452   4.098  13.947  0.00  0.00    +0.000 A 
BRANCH   4  11
ATOM     10  C   UNL     1       4.084   3.199  11.221  0.00  0.00    +0.000 C 
ATOM     11  O   UNL     1       5.191   2.694  11.960  0.00  0.00    +0.000 OA
ENDBRANCH   4  11
ENDBRANCH   1   8
BRANCH   1  12
ATOM     12  C   UNL     1       6.076   4.235  17.025  0.00  0.00    +0.000 C 
BRANCH  12  13
ATOM     13  C   UNL     1       4.782   3.629  17.582  0.00  0.00    +0.000 C 
ATOM     14  O   UNL     1       3.834   3.363  16.847  0.00  0.00    +0.000 OA
ATOM     15  N   UNL     1       4.814   3.287  18.915  0.00  0.00    +0.000 N 
ATOM     16  H   UNL     1       5.569   3.662  19.478  0.00  0.00    +0.000 HD
BRANCH  15  17
ATOM     17  C   UNL     1       3.664   2.718  19.594  0.00  0.00    +0.000 C 
ATOM     18  C   UNL     1       2.809   3.795  20.248  0.00  0.00    +0.000 C 
ATOM     19  C   UNL     1       1.443   3.147  20.412  0.00  0.00    +0.000 C 
ATOM     20  C   UNL     1       1.323   2.131  19.280  0.00  0.00    +0.000 C 
ATOM     21  C   UNL     1       2.702   2.029  18.629  0.00  0.00    +0.000 C 
ENDBRANCH  15  17
ENDBRANCH  12  13
ENDBRANCH   1  12
BRANCH   2  22
ATOM     22  C   UNL     1       4.652   6.714  17.665  0.00  0.00    +0.000 C 
BRANCH  22  23
ATOM     23  C   UNL     1       3.143   6.526  17.824  0.00  0.00    +0.000 C 
BRANCH  23  24
ATOM     24  C   UNL     1       2.485   7.848  18.159  0.00  0.00    +0.000 C 
ATOM     25  O   UNL     1       2.583   8.795  17.385  0.00  0.00    +0.000 OA
ATOM     26  N   UNL     1       1.896   7.854  19.403  0.00  0.00    +0.000 N 
ATOM     27  C   UNL     1       1.326   8.976  19.935  0.00  0.00    +0.000 A 
ATOM     28  N   UNL     1       1.049  10.115  19.353  0.00  0.00    +0.000 NA
ATOM     29  C   UNL     1       0.538  10.990  20.287  0.00  0.00    +0.000 A 
ATOM     30  C   UNL     1       0.457  10.506  21.575  0.00  0.00    +0.000 A 
ATOM     31  S   UNL     1       0.977   8.870  21.604  0.00  0.00    +0.000 S 
ATOM     32  H   UNL     1       2.058   7.079  20.042  0.00  0.00    +0.000 HD
ENDBRANCH  23  24
ENDBRANCH  22  23
ENDBRANCH   2  22
TORSDOF 8
ENDMDL
MODEL 6
REMARK VINA RESULT:      -7.8      4.125      7.459
REMARK  Name = 
REMARK  9 active torsions:
REMARK  status: ('A' for Active; 'I' for Inactive)
REMARK    1  A    between atoms: C_1  and  O_2
REMARK    2  A    between atoms: O_2  and  C_3
REMARK    3  A    between atoms: C_7  and  N_8
REMARK    4  A    between atoms: N_8  and  C_9
REMARK    5  A    between atoms: C_9  and  C_10
REMARK    6  A    between atoms: N_12  and  C_13
REMARK    7  A    between atoms: C_18  and  C_20
REMARK    8  A    between atoms: C_20  and  C_21
REMARK    9  A    between atoms: C_21  and  C_22
REMARK                            x       y       z     vdW  Elec       q    Type
REMARK                         _______ _______ _______ _____ _____    ______ ____
ROOT
ATOM      1  N   UNL     1       5.082   5.389  17.945  0.00  0.00    +0.000 N 
ATOM      2  C   UNL     1       6.420   5.394  18.344  0.00  0.00    +0.000 C 
ATOM      3  O   UNL     1       6.855   4.693  19.266  0.00  0.00    +0.000 OA
ENDROOT
BRANCH   1   8
ATOM      4  C   UNL     1       2.742   3.670  20.275  0.00  0.00    +0.000 A 
ATOM      5  C   UNL     1       2.704   2.386  19.733  0.00  0.00    +0.000 A 
ATOM      6  C   UNL     1       3.361   2.115  18.535  0.00  0.00    +0.000 A 
ATOM      7  C   UNL     1       4.111   3.115  17.916  0.00  0.00    +0.000 A 
ATOM      8  C   UNL     1       4.203   4.394  18.484  0.00  0.00    +0.000 A 
ATOM      9  C   UNL     1       3.480   4.676  19.646  0.00  0.00    +0.000 A 
BRANCH   4  11
ATOM     10  C   UNL     1       1.480   2.641  21.976  0.00  0.00    +0.000 C 
ATOM     11  O   UNL     1       2.094   3.823  21.472  0.00  0.00    +0.000 OA
ENDBRANCH   4  11
ENDBRANCH   1   8
BRANCH   1  12
ATOM     12  C   UNL     1       4.602   6.085  16.732  0.00  0.00    +0.000 C 
BRANCH  12  13
ATOM     13  C   UNL     1       5.284   5.681  15.418  0.00  0.00    +0.000 C 
ATOM     14  O   UNL     1       5.524   6.509  14.543  0.00  0.00    +0.000 OA
ATOM     15  N   UNL     1       5.722   4.377  15.355  0.00  0.00    +0.000 N 
ATOM     16  H   UNL     1       5.367   3.729  16.049  0.00  0.00    +0.000 HD
BRANCH  15  17
ATOM     17  C   UNL     1       6.372   3.838  14.175  0.00  0.00    +0.000 C 
ATOM     18  C   UNL     1       5.368   3.527  13.074  0.00  0.00    +0.000 C 
ATOM     19  C   UNL     1       6.195   3.513  11.798  0.00  0.00    +0.000 C 
ATOM     20  C   UNL     1       7.355   4.475  12.042  0.00  0.00    +0.000 C 
ATOM     21  C   UNL     1       7.322   4.842  13.525  0.00  0.00    +0.000 C 
ENDBRANCH  15  17
ENDBRANCH  12  13
ENDBRANCH   1  12
BRANCH   2  22
ATOM     22  C   UNL     1       7.355   6.395  17.683  0.00  0.00    +0.000 C 
BRANCH  22  23
ATOM     23  C   UNL     1       8.169   7.176  18.713  0.00  0.00    +0.000 C 
BRANCH  23  24
ATOM     24  C   UNL     1       8.280   8.628  18.299  0.00  0.00    +0.000 C 
ATOM     25  O   UNL     1       7.761   9.009  17.254  0.00  0.00    +0.000 OA
ATOM     26  N   UNL     1       9.068   9.369  19.150  0.00  0.00    +0.000 N 
ATOM     27  C   UNL     1       9.372  10.679  18.908  0.00  0.00    +0.000 A 
ATOM     28  N   UNL     1       8.857  11.494  18.024  0.00  0.00    +0.000 NA
ATOM     29  C   UNL     1       9.510  12.707  18.089  0.00  0.00    +0.000 A 
ATOM     30  C   UNL     1      10.531  12.784  19.010  0.00  0.00    +0.000 A 
ATOM     31  S   UNL     1      10.633  11.305  19.876  0.00  0.00    +0.000 S 
ATOM     32  H   UNL     1       9.616   8.900  19.868  0.00  0.00    +0.000 HD
ENDBRANCH  23  24
ENDBRANCH  22  23
ENDBRANCH   2  22
TORSDOF 8
ENDMDL
MODEL 7
REMARK VINA RESULT:      -7.8      0.952      1.009
REMARK  Name = 
REMARK  9 active torsions:
REMARK  status: ('A' for Active; 'I' for Inactive)
REMARK    1  A    between atoms: C_1  and  O_2
REMARK    2  A    between atoms: O_2  and  C_3
REMARK    3  A    between atoms: C_7  and  N_8
REMARK    4  A    between atoms: N_8  and  C_9
REMARK    5  A    between atoms: C_9  and  C_10
REMARK    6  A    between atoms: N_12  and  C_13
REMARK    7  A    between atoms: C_18  and  C_20
REMARK    8  A    between atoms: C_20  and  C_21
REMARK    9  A    between atoms: C_21  and  C_22
REMARK                            x       y       z     vdW  Elec       q    Type
REMARK                         _______ _______ _______ _____ _____    ______ ____
ROOT
ATOM      1  N   UNL     1       5.888   5.451  15.907  0.00  0.00    +0.000 N 
ATOM      2  C   UNL     1       5.021   6.537  16.039  0.00  0.00    +0.000 C 
ATOM      3  O   UNL     1       4.705   7.271  15.094  0.00  0.00    +0.000 OA
ENDROOT
BRANCH   1   8
ATOM      4  C   UNL     1       5.936   3.586  12.685  0.00  0.00    +0.000 A 
ATOM      5  C   UNL     1       7.163   3.980  12.155  0.00  0.00    +0.000 A 
ATOM      6  C   UNL     1       7.926   4.947  12.806  0.00  0.00    +0.000 A 
ATOM      7  C   UNL     1       7.489   5.470  14.022  0.00  0.00    +0.000 A 
ATOM      8  C   UNL     1       6.284   5.037  14.593  0.00  0.00    +0.000 A 
ATOM      9  C   UNL     1       5.490   4.122  13.896  0.00  0.00    +0.000 A 
BRANCH   4  11
ATOM     10  C   UNL     1       4.163   3.056  11.230  0.00  0.00    +0.000 C 
ATOM     11  O   UNL     1       5.281   2.606  11.988  0.00  0.00    +0.000 OA
ENDBRANCH   4  11
ENDBRANCH   1   8
BRANCH   1  12
ATOM     12  C   UNL     1       6.121   4.471  16.989  0.00  0.00    +0.000 C 
BRANCH  12  13
ATOM     13  C   UNL     1       4.862   3.934  17.683  0.00  0.00    +0.000 C 
ATOM     14  O   UNL     1       4.703   4.051  18.895  0.00  0.00    +0.000 OA
ATOM     15  N   UNL     1       3.886   3.446  16.843  0.00  0.00    +0.000 N 
ATOM     16  H   UNL     1       4.146   3.256  15.882  0.00  0.00    +0.000 HD
BRANCH  15  17
ATOM     17  C   UNL     1       2.644   2.889  17.346  0.00  0.00    +0.000 C 
ATOM     18  C   UNL     1       2.885   1.949  18.520  0.00  0.00    +0.000 C 
ATOM     19  C   UNL     1       1.550   1.900  19.247  0.00  0.00    +0.000 C 
ATOM     20  C   UNL     1       0.882   3.247  18.987  0.00  0.00    +0.000 C 
ATOM     21  C   UNL     1       1.719   3.958  17.924  0.00  0.00    +0.000 C 
ENDBRANCH  15  17
ENDBRANCH  12  13
ENDBRANCH   1  12
BRANCH   2  22
ATOM     22  C   UNL     1       4.536   6.894  17.436  0.00  0.00    +0.000 C 
BRANCH  22  23
ATOM     23  C   UNL     1       3.076   7.342  17.431  0.00  0.00    +0.000 C 
BRANCH  23  24
ATOM     24  C   UNL     1       2.588   7.549  18.849  0.00  0.00    +0.000 C 
ATOM     25  O   UNL     1       2.821   6.703  19.707  0.00  0.00    +0.000 OA
ATOM     26  N   UNL     1       1.824   8.684  18.993  0.00  0.00    +0.000 N 
ATOM     27  C   UNL     1       1.211   9.008  20.171  0.00  0.00    +0.000 A 
ATOM     28  N   UNL     1       1.377   8.481  21.357  0.00  0.00    +0.000 NA
ATOM     29  C   UNL     1       0.504   9.074  22.244  0.00  0.00    +0.000 A 
ATOM     30  C   UNL     1      -0.331  10.029  21.708  0.00  0.00    +0.000 A 
ATOM     31  S   UNL     1       0.037  10.242  20.045  0.00  0.00    +0.000 S 
ATOM     32  H   UNL     1       1.523   9.198  18.168  0.00  0.00    +0.000 HD
ENDBRANCH  23  24
ENDBRANCH  22  23
ENDBRANCH   2  22
TORSDOF 8
ENDMDL
MODEL 8
REMARK VINA RESULT:      -7.7      3.817      7.534
REMARK  Name = 
REMARK  9 active torsions:
REMARK  status: ('A' for Active; 'I' for Inactive)
REMARK    1  A    between atoms: C_1  and  O_2
REMARK    2  A    between atoms: O_2  and  C_3
REMARK    3  A    between atoms: C_7  and  N_8
REMARK    4  A    between atoms: N_8  and  C_9
REMARK    5  A    between atoms: C_9  and  C_10
REMARK    6  A    between atoms: N_12  and  C_13
REMARK    7  A    between atoms: C_18  and  C_20
REMARK    8  A    between atoms: C_20  and  C_21
REMARK    9  A    between atoms: C_21  and  C_22
REMARK                            x       y       z     vdW  Elec       q    Type
REMARK                         _______ _______ _______ _____ _____    ______ ____
ROOT
ATOM      1  N   UNL     1       3.436   6.412  17.966  0.00  0.00    +0.000 N 
ATOM      2  C   UNL     1       4.770   6.104  17.690  0.00  0.00    +0.000 C 
ATOM      3  O   UNL     1       5.311   5.051  18.050  0.00  0.00    +0.000 OA
ENDROOT
BRANCH   1   8
ATOM      4  C   UNL     1       1.914   4.078  20.436  0.00  0.00    +0.000 A 
ATOM      5  C   UNL     1       1.182   3.234  19.603  0.00  0.00    +0.000 A 
ATOM      6  C   UNL     1       1.099   3.499  18.239  0.00  0.00    +0.000 A 
ATOM      7  C   UNL     1       1.804   4.574  17.699  0.00  0.00    +0.000 A 
ATOM      8  C   UNL     1       2.591   5.395  18.519  0.00  0.00    +0.000 A 
ATOM      9  C   UNL     1       2.608   5.165  19.896  0.00  0.00    +0.000 A 
BRANCH   4  11
ATOM     10  C   UNL     1       1.602   2.357  22.011  0.00  0.00    +0.000 C 
ATOM     11  O   UNL     1       1.962   3.710  21.754  0.00  0.00    +0.000 OA
ENDBRANCH   4  11
ENDBRANCH   1   8
BRANCH   1  12
ATOM     12  C   UNL     1       2.743   7.580  17.381  0.00  0.00    +0.000 C 
BRANCH  12  13
ATOM     13  C   UNL     1       2.120   8.557  18.387  0.00  0.00    +0.000 C 
ATOM     14  O   UNL     1       1.967   8.246  19.566  0.00  0.00    +0.000 OA
ATOM     15  N   UNL     1       1.879   9.825  17.910  0.00  0.00    +0.000 N 
ATOM     16  H   UNL     1       1.899   9.960  16.905  0.00  0.00    +0.000 HD
BRANCH  15  17
ATOM     17  C   UNL     1       1.278  10.858  18.733  0.00  0.00    +0.000 C 
ATOM     18  C   UNL     1       1.784  12.243  18.354  0.00  0.00    +0.000 C 
ATOM     19  C   UNL     1       0.717  13.193  18.874  0.00  0.00    +0.000 C 
ATOM     20  C   UNL     1      -0.593  12.411  18.836  0.00  0.00    +0.000 C 
ATOM     21  C   UNL     1      -0.232  10.958  18.531  0.00  0.00    +0.000 C 
ENDBRANCH  15  17
ENDBRANCH  12  13
ENDBRANCH   1  12
BRANCH   2  22
ATOM     22  C   UNL     1       5.619   7.167  17.011  0.00  0.00    +0.000 C 
BRANCH  22  23
ATOM     23  C   UNL     1       7.091   6.761  16.950  0.00  0.00    +0.000 C 
BRANCH  23  24
ATOM     24  C   UNL     1       7.909   7.617  17.894  0.00  0.00    +0.000 C 
ATOM     25  O   UNL     1       8.347   7.136  18.934  0.00  0.00    +0.000 OA
ATOM     26  N   UNL     1       7.993   8.930  17.489  0.00  0.00    +0.000 N 
ATOM     27  C   UNL     1       8.607   9.889  18.245  0.00  0.00    +0.000 A 
ATOM     28  N   UNL     1       9.363   9.744  19.303  0.00  0.00    +0.000 NA
ATOM     29  C   UNL     1       9.717  10.987  19.782  0.00  0.00    +0.000 A 
ATOM     30  C   UNL     1       9.201  12.060  19.090  0.00  0.00    +0.000 A 
ATOM     31  S   UNL     1       8.295  11.492  17.747  0.00  0.00    +0.000 S 
ATOM     32  H   UNL     1       7.415   9.259  16.719  0.00  0.00    +0.000 HD
ENDBRANCH  23  24
ENDBRANCH  22  23
ENDBRANCH   2  22
TORSDOF 8
ENDMDL
MODEL 9
REMARK VINA RESULT:      -7.5      4.444      7.529
REMARK  Name = 
REMARK  9 active torsions:
REMARK  status: ('A' for Active; 'I' for Inactive)
REMARK    1  A    between atoms: C_1  and  O_2
REMARK    2  A    between atoms: O_2  and  C_3
REMARK    3  A    between atoms: C_7  and  N_8
REMARK    4  A    between atoms: N_8  and  C_9
REMARK    5  A    between atoms: C_9  and  C_10
REMARK    6  A    between atoms: N_12  and  C_13
REMARK    7  A    between atoms: C_18  and  C_20
REMARK    8  A    between atoms: C_20  and  C_21
REMARK    9  A    between atoms: C_21  and  C_22
REMARK                            x       y       z     vdW  Elec       q    Type
REMARK                         _______ _______ _______ _____ _____    ______ ____
ROOT
ATOM      1  N   UNL     1       5.409   5.739  18.471  0.00  0.00    +0.000 N 
ATOM      2  C   UNL     1       6.719   5.980  18.891  0.00  0.00    +0.000 C 
ATOM      3  O   UNL     1       7.159   5.607  19.985  0.00  0.00    +0.000 OA
ENDROOT
BRANCH   1   8
ATOM      4  C   UNL     1       4.102   2.605  20.000  0.00  0.00    +0.000 A 
ATOM      5  C   UNL     1       2.869   3.031  20.492  0.00  0.00    +0.000 A 
ATOM      6  C   UNL     1       2.515   4.376  20.419  0.00  0.00    +0.000 A 
ATOM      7  C   UNL     1       3.370   5.283  19.793  0.00  0.00    +0.000 A 
ATOM      8  C   UNL     1       4.587   4.855  19.244  0.00  0.00    +0.000 A 
ATOM      9  C   UNL     1       4.966   3.518  19.388  0.00  0.00    +0.000 A 
BRANCH   4  11
ATOM     10  C   UNL     1       5.306   0.884  21.063  0.00  0.00    +0.000 C 
ATOM     11  O   UNL     1       4.339   1.259  20.088  0.00  0.00    +0.000 OA
ENDBRANCH   4  11
ENDBRANCH   1   8
BRANCH   1  12
ATOM     12  C   UNL     1       4.939   6.022  17.098  0.00  0.00    +0.000 C 
BRANCH  12  13
ATOM     13  C   UNL     1       5.246   4.940  16.054  0.00  0.00    +0.000 C 
ATOM     14  O   UNL     1       4.578   3.912  15.986  0.00  0.00    +0.000 OA
ATOM     15  N   UNL     1       6.216   5.265  15.132  0.00  0.00    +0.000 N 
ATOM     16  H   UNL     1       6.810   6.060  15.337  0.00  0.00    +0.000 HD
BRANCH  15  17
ATOM     17  C   UNL     1       6.631   4.343  14.091  0.00  0.00    +0.000 C 
ATOM     18  C   UNL     1       5.444   3.840  13.281  0.00  0.00    +0.000 C 
ATOM     19  C   UNL     1       6.051   3.372  11.968  0.00  0.00    +0.000 C 
ATOM     20  C   UNL     1       7.294   4.231  11.752  0.00  0.00    +0.000 C 
ATOM     21  C   UNL     1       7.525   5.009  13.047  0.00  0.00    +0.000 C 
ENDBRANCH  15  17
ENDBRANCH  12  13
ENDBRANCH   1  12
BRANCH   2  22
ATOM     22  C   UNL     1       7.603   6.840  18.001  0.00  0.00    +0.000 C 
BRANCH  22  23
ATOM     23  C   UNL     1       8.544   7.722  18.821  0.00  0.00    +0.000 C 
BRANCH  23  24
ATOM     24  C   UNL     1       8.450   9.159  18.356  0.00  0.00    +0.000 C 
ATOM     25  O   UNL     1       7.685   9.461  17.446  0.00  0.00    +0.000 OA
ATOM     26  N   UNL     1       9.350   9.987  18.988  0.00  0.00    +0.000 N 
ATOM     27  C   UNL     1       9.493  11.303  18.651  0.00  0.00    +0.000 A 
ATOM     28  N   UNL     1       8.734  12.044  17.885  0.00  0.00    +0.000 NA
ATOM     29  C   UNL     1       9.291  13.299  17.770  0.00  0.00    +0.000 A 
ATOM     30  C   UNL     1      10.484  13.484  18.435  0.00  0.00    +0.000 A 
ATOM     31  S   UNL     1      10.887  12.053  19.293  0.00  0.00    +0.000 S 
ATOM     32  H   UNL     1      10.078   9.586  19.576  0.00  0.00    +0.000 HD
ENDBRANCH  23  24
ENDBRANCH  22  23
ENDBRANCH   2  22
TORSDOF 8
ENDMDL
