MODEL 1
REMARK VINA RESULT:      -7.1      0.000      0.000
REMARK  Name = 
REMARK  8 active torsions:
REMARK  status: ('A' for Active; 'I' for Inactive)
REMARK    1  A    between atoms: C_1  and  C_2
REMARK    2  A    between atoms: C_2  and  CA_3
REMARK    3  A    between atoms: CA_3  and  C_4
REMARK    4  A    between atoms: CA_3  and  N_6
REMARK    5  A    between atoms: C_4  and  O_5
REMARK    6  A    between atoms: C_7  and  C_9
REMARK    7  A    between atoms: C_9  and  C_10
REMARK    8  A    between atoms: C_10  and  C_11
REMARK                            x       y       z     vdW  Elec       q    Type
REMARK                         _______ _______ _______ _____ _____    ______ ____
ROOT
ATOM      1  N   UNL     1       6.717   5.460  15.117  0.00  0.00    +0.000 N 
ATOM      2  C   UNL     1       7.204   5.238  16.377  0.00  0.00    +0.000 C 
ATOM      3  O   UNL     1       7.952   4.314  16.676  0.00  0.00    +0.000 OA
ATOM      4  H   UNL     1       6.092   6.242  14.948  0.00  0.00    +0.000 HD
ENDROOT
BRANCH   2   5
ATOM      5  C   UNL     1       6.768   6.250  17.405  0.00  0.00    +0.000 C 
ATOM      6  C   UNL     1       7.706   6.507  18.585  0.00  0.00    +0.000 C 
ATOM      7  C   UNL     1       7.616   7.522  17.492  0.00  0.00    +0.000 C 
BRANCH   5   8
ATOM      8  C   UNL     1       5.271   6.378  17.659  0.00  0.00    +0.000 C 
BRANCH   8   9
ATOM      9  C   UNL     1       4.634   5.044  17.979  0.00  0.00    +0.000 A 
ATOM     10  C   UNL     1       4.985   4.359  19.151  0.00  0.00    +0.000 A 
ATOM     11  C   UNL     1       4.443   3.103  19.432  0.00  0.00    +0.000 A 
ATOM     12  C   UNL     1       3.535   2.523  18.553  0.00  0.00    +0.000 A 
ATOM     13  C   UNL     1       3.156   3.204  17.397  0.00  0.00    +0.000 A 
ATOM     14  C   UNL     1       3.704   4.456  17.110  0.00  0.00    +0.000 A 
ENDBRANCH   8   9
ENDBRANCH   5   8
ENDBRANCH   2   5
BRANCH   1  15
ATOM     15  CA  UNL     1       6.917   4.518  14.022  0.00  0.00    +0.000 C 
BRANCH  15  17
ATOM     16  C   UNL     1       5.590   3.271  12.221  0.00  0.00    +0.000 C 
ATOM     17  C   UNL     1       5.558   3.933  13.590  0.00  0.00    +0.000 C 
ENDBRANCH  15  17
BRANCH  15  18
ATOM     18  C   UNL     1       7.673   5.231  12.888  0.00  0.00    +0.000 C 
BRANCH  18  19
ATOM     19  O   UNL     1       8.785   5.973  13.395  0.00  0.00    +0.000 OA
ATOM     20  H   UNL     1       8.715   5.977  14.365  0.00  0.00    +0.000 HD
ENDBRANCH  18  19
ENDBRANCH  15  18
ENDBRANCH   1  15
TORSDOF 7
ENDMDL
MODEL 2
REMARK VINA RESULT:      -7.0      1.035      1.376
REMARK  Name = 
REMARK  8 active torsions:
REMARK  status: ('A' for Active; 'I' for Inactive)
REMARK    1  A    between atoms: C_1  and  C_2
REMARK    2  A    between atoms: C_2  and  CA_3
REMARK    3  A    between atoms: CA_3  and  C_4
REMARK    4  A    between atoms: CA_3  and  N_6
REMARK    5  A    between atoms: C_4  and  O_5
REMARK    6  A    between atoms: C_7  and  C_9
REMARK    7  A    between atoms: C_9  and  C_10
REMARK    8  A    between atoms: C_10  and  C_11
REMARK                            x       y       z     vdW  Elec       q    Type
REMARK                         _______ _______ _______ _____ _____    ______ ____
ROOT
ATOM      1  N   UNL     1       6.832   5.394  15.016  0.00  0.00    +0.000 N 
ATOM      2  C   UNL     1       7.207   5.161  16.311  0.00  0.00    +0.000 C 
ATOM      3  O   UNL     1       7.914   4.225  16.669  0.00  0.00    +0.000 OA
ATOM      4  H   UNL     1       6.235   6.186  14.798  0.00  0.00    +0.000 HD
ENDROOT
BRANCH   2   5
ATOM      5  C   UNL     1       6.701   6.177  17.303  0.00  0.00    +0.000 C 
ATOM      6  C   UNL     1       7.137   6.021  18.760  0.00  0.00    +0.000 C 
ATOM      7  C   UNL     1       7.760   7.092  17.923  0.00  0.00    +0.000 C 
BRANCH   5   8
ATOM      8  C   UNL     1       5.319   6.766  17.045  0.00  0.00    +0.000 C 
BRANCH   8   9
ATOM      9  C   UNL     1       4.214   5.853  17.527  0.00  0.00    +0.000 A 
ATOM     10  C   UNL     1       4.024   4.600  16.927  0.00  0.00    +0.000 A 
ATOM     11  C   UNL     1       2.976   3.769  17.328  0.00  0.00    +0.000 A 
ATOM     12  C   UNL     1       2.114   4.174  18.342  0.00  0.00    +0.000 A 
ATOM     13  C   UNL     1       2.307   5.406  18.967  0.00  0.00    +0.000 A 
ATOM     14  C   UNL     1       3.349   6.241  18.560  0.00  0.00    +0.000 A 
ENDBRANCH   8   9
ENDBRANCH   5   8
ENDBRANCH   2   5
BRANCH   1  15
ATOM     15  CA  UNL     1       7.110   4.452  13.938  0.00  0.00    +0.000 C 
BRANCH  15  17
ATOM     16  C   UNL     1       5.843   3.212  12.089  0.00  0.00    +0.000 C 
ATOM     17  C   UNL     1       5.802   3.759  13.508  0.00  0.00    +0.000 C 
ENDBRANCH  15  17
BRANCH  15  18
ATOM     18  C   UNL     1       7.818   5.201  12.796  0.00  0.00    +0.000 C 
BRANCH  18  19
ATOM     19  O   UNL     1       8.844   6.059  13.301  0.00  0.00    +0.000 OA
ATOM     20  H   UNL     1       9.327   5.566  13.985  0.00  0.00    +0.000 HD
ENDBRANCH  18  19
ENDBRANCH  15  18
ENDBRANCH   1  15
TORSDOF 7
ENDMDL
MODEL 3
REMARK VINA RESULT:      -6.5      0.920      1.298
REMARK  Name = 
REMARK  8 active torsions:
REMARK  status: ('A' for Active; 'I' for Inactive)
REMARK    1  A    between atoms: C_1  and  C_2
REMARK    2  A    between atoms: C_2  and  CA_3
REMARK    3  A    between atoms: CA_3  and  C_4
REMARK    4  A    between atoms: CA_3  and  N_6
REMARK    5  A    between atoms: C_4  and  O_5
REMARK    6  A    between atoms: C_7  and  C_9
REMARK    7  A    between atoms: C_9  and  C_10
REMARK    8  A    between atoms: C_10  and  C_11
REMARK                            x       y       z     vdW  Elec       q    Type
REMARK                         _______ _______ _______ _____ _____    ______ ____
ROOT
ATOM      1  N   UNL     1       6.985   5.476  15.468  0.00  0.00    +0.000 N 
ATOM      2  C   UNL     1       7.400   5.126  16.724  0.00  0.00    +0.000 C 
ATOM      3  O   UNL     1       8.072   4.133  16.978  0.00  0.00    +0.000 OA
ATOM      4  H   UNL     1       6.420   6.310  15.336  0.00  0.00    +0.000 HD
ENDROOT
BRANCH   2   5
ATOM      5  C   UNL     1       6.984   6.083  17.811  0.00  0.00    +0.000 C 
ATOM      6  C   UNL     1       7.960   7.201  18.179  0.00  0.00    +0.000 C 
ATOM      7  C   UNL     1       6.746   7.530  17.372  0.00  0.00    +0.000 C 
BRANCH   5   8
ATOM      8  C   UNL     1       6.104   5.527  18.925  0.00  0.00    +0.000 C 
BRANCH   8   9
ATOM      9  C   UNL     1       4.754   5.080  18.411  0.00  0.00    +0.000 A 
ATOM     10  C   UNL     1       3.649   5.939  18.491  0.00  0.00    +0.000 A 
ATOM     11  C   UNL     1       2.387   5.520  18.067  0.00  0.00    +0.000 A 
ATOM     12  C   UNL     1       2.215   4.242  17.546  0.00  0.00    +0.000 A 
ATOM     13  C   UNL     1       3.310   3.384  17.435  0.00  0.00    +0.000 A 
ATOM     14  C   UNL     1       4.572   3.800  17.867  0.00  0.00    +0.000 A 
ENDBRANCH   8   9
ENDBRANCH   5   8
ENDBRANCH   2   5
BRANCH   1  15
ATOM     15  CA  UNL     1       7.174   4.610  14.309  0.00  0.00    +0.000 C 
BRANCH  15  17
ATOM     16  C   UNL     1       5.742   3.434  12.540  0.00  0.00    +0.000 C 
ATOM     17  C   UNL     1       5.853   3.882  13.990  0.00  0.00    +0.000 C 
ENDBRANCH  15  17
BRANCH  15  18
ATOM     18  C   UNL     1       7.713   5.454  13.142  0.00  0.00    +0.000 C 
BRANCH  18  19
ATOM     19  O   UNL     1       8.990   6.015  13.458  0.00  0.00    +0.000 OA
ATOM     20  H   UNL     1       8.926   6.405  14.346  0.00  0.00    +0.000 HD
ENDBRANCH  18  19
ENDBRANCH  15  18
ENDBRANCH   1  15
TORSDOF 7
ENDMDL
MODEL 4
REMARK VINA RESULT:      -6.5      3.011      4.485
REMARK  Name = 
REMARK  8 active torsions:
REMARK  status: ('A' for Active; 'I' for Inactive)
REMARK    1  A    between atoms: C_1  and  C_2
REMARK    2  A    between atoms: C_2  and  CA_3
REMARK    3  A    between atoms: CA_3  and  C_4
REMARK    4  A    between atoms: CA_3  and  N_6
REMARK    5  A    between atoms: C_4  and  O_5
REMARK    6  A    between atoms: C_7  and  C_9
REMARK    7  A    between atoms: C_9  and  C_10
REMARK    8  A    between atoms: C_10  and  C_11
REMARK                            x       y       z     vdW  Elec       q    Type
REMARK                         _______ _______ _______ _____ _____    ______ ____
ROOT
ATOM      1  N   UNL     1       5.574   6.029  18.186  0.00  0.00    +0.000 N 
ATOM      2  C   UNL     1       4.530   6.102  17.304  0.00  0.00    +0.000 C 
ATOM      3  O   UNL     1       4.654   6.118  16.085  0.00  0.00    +0.000 OA
ATOM      4  H   UNL     1       5.393   6.030  19.185  0.00  0.00    +0.000 HD
ENDROOT
BRANCH   2   5
ATOM      5  C   UNL     1       3.167   6.136  17.949  0.00  0.00    +0.000 C 
ATOM      6  C   UNL     1       3.006   6.978  19.216  0.00  0.00    +0.000 C 
ATOM      7  C   UNL     1       2.450   7.488  17.925  0.00  0.00    +0.000 C 
BRANCH   5   8
ATOM      8  C   UNL     1       2.313   4.879  17.830  0.00  0.00    +0.000 C 
BRANCH   8   9
ATOM      9  C   UNL     1       2.302   4.078  19.113  0.00  0.00    +0.000 A 
ATOM     10  C   UNL     1       3.456   3.401  19.531  0.00  0.00    +0.000 A 
ATOM     11  C   UNL     1       3.444   2.616  20.685  0.00  0.00    +0.000 A 
ATOM     12  C   UNL     1       2.283   2.509  21.444  0.00  0.00    +0.000 A 
ATOM     13  C   UNL     1       1.134   3.199  21.056  0.00  0.00    +0.000 A 
ATOM     14  C   UNL     1       1.143   3.977  19.895  0.00  0.00    +0.000 A 
ENDBRANCH   8   9
ENDBRANCH   5   8
ENDBRANCH   2   5
BRANCH   1  15
ATOM     15  CA  UNL     1       6.966   6.121  17.761  0.00  0.00    +0.000 C 
BRANCH  15  17
ATOM     16  C   UNL     1       8.194   8.333  18.158  0.00  0.00    +0.000 C 
ATOM     17  C   UNL     1       7.257   7.547  17.253  0.00  0.00    +0.000 C 
ENDBRANCH  15  17
BRANCH  15  18
ATOM     18  C   UNL     1       7.869   5.681  18.926  0.00  0.00    +0.000 C 
BRANCH  18  19
ATOM     19  O   UNL     1       7.095   5.325  20.073  0.00  0.00    +0.000 OA
ATOM     20  H   UNL     1       7.603   4.664  20.574  0.00  0.00    +0.000 HD
ENDBRANCH  18  19
ENDBRANCH  15  18
ENDBRANCH   1  15
TORSDOF 7
ENDMDL
MODEL 5
REMARK VINA RESULT:      -6.3      2.650      4.241
REMARK  Name = 
REMARK  8 active torsions:
REMARK  status: ('A' for Active; 'I' for Inactive)
REMARK    1  A    between atoms: C_1  and  C_2
REMARK    2  A    between atoms: C_2  and  CA_3
REMARK    3  A    between atoms: CA_3  and  C_4
REMARK    4  A    between atoms: CA_3  and  N_6
REMARK    5  A    between atoms: C_4  and  O_5
REMARK    6  A    between atoms: C_7  and  C_9
REMARK    7  A    between atoms: C_9  and  C_10
REMARK    8  A    between atoms: C_10  and  C_11
REMARK                            x       y       z     vdW  Elec       q    Type
REMARK                         _______ _______ _______ _____ _____    ______ ____
ROOT
ATOM      1  N   UNL     1       5.474   5.975  17.876  0.00  0.00    +0.000 N 
ATOM      2  C   UNL     1       4.380   6.454  17.207  0.00  0.00    +0.000 C 
ATOM      3  O   UNL     1       4.408   6.907  16.069  0.00  0.00    +0.000 OA
ATOM      4  H   UNL     1       5.373   5.625  18.824  0.00  0.00    +0.000 HD
ENDROOT
BRANCH   2   5
ATOM      5  C   UNL     1       3.087   6.365  17.977  0.00  0.00    +0.000 C 
ATOM      6  C   UNL     1       3.019   7.076  19.329  0.00  0.00    +0.000 C 
ATOM      7  C   UNL     1       2.321   7.678  18.153  0.00  0.00    +0.000 C 
BRANCH   5   8
ATOM      8  C   UNL     1       2.273   5.086  17.817  0.00  0.00    +0.000 C 
BRANCH   8   9
ATOM      9  C   UNL     1       2.304   4.234  19.067  0.00  0.00    +0.000 A 
ATOM     10  C   UNL     1       3.437   3.464  19.366  0.00  0.00    +0.000 A 
ATOM     11  C   UNL     1       3.459   2.635  20.489  0.00  0.00    +0.000 A 
ATOM     12  C   UNL     1       2.355   2.574  21.333  0.00  0.00    +0.000 A 
ATOM     13  C   UNL     1       1.231   3.354  21.063  0.00  0.00    +0.000 A 
ATOM     14  C   UNL     1       1.205   4.178  19.935  0.00  0.00    +0.000 A 
ENDBRANCH   8   9
ENDBRANCH   5   8
ENDBRANCH   2   5
BRANCH   1  15
ATOM     15  CA  UNL     1       6.829   6.099  17.351  0.00  0.00    +0.000 C 
BRANCH  15  17
ATOM     16  C   UNL     1       8.083   8.268  17.884  0.00  0.00    +0.000 C 
ATOM     17  C   UNL     1       7.703   6.873  18.358  0.00  0.00    +0.000 C 
ENDBRANCH  15  17
BRANCH  15  18
ATOM     18  C   UNL     1       7.361   4.694  17.019  0.00  0.00    +0.000 C 
BRANCH  18  19
ATOM     19  O   UNL     1       6.322   3.716  17.101  0.00  0.00    +0.000 OA
ATOM     20  H   UNL     1       5.561   4.134  17.538  0.00  0.00    +0.000 HD
ENDBRANCH  18  19
ENDBRANCH  15  18
ENDBRANCH   1  15
TORSDOF 7
ENDMDL
MODEL 6
REMARK VINA RESULT:      -6.2      2.331      3.460
REMARK  Name = 
REMARK  8 active torsions:
REMARK  status: ('A' for Active; 'I' for Inactive)
REMARK    1  A    between atoms: C_1  and  C_2
REMARK    2  A    between atoms: C_2  and  CA_3
REMARK    3  A    between atoms: CA_3  and  C_4
REMARK    4  A    between atoms: CA_3  and  N_6
REMARK    5  A    between atoms: C_4  and  O_5
REMARK    6  A    between atoms: C_7  and  C_9
REMARK    7  A    between atoms: C_9  and  C_10
REMARK    8  A    between atoms: C_10  and  C_11
REMARK                            x       y       z     vdW  Elec       q    Type
REMARK                         _______ _______ _______ _____ _____    ______ ____
ROOT
ATOM      1  N   UNL     1       4.575   4.477  16.668  0.00  0.00    +0.000 N 
ATOM      2  C   UNL     1       4.225   5.745  17.047  0.00  0.00    +0.000 C 
ATOM      3  O   UNL     1       4.825   6.758  16.709  0.00  0.00    +0.000 OA
ATOM      4  H   UNL     1       4.034   3.684  16.998  0.00  0.00    +0.000 HD
ENDROOT
BRANCH   2   5
ATOM      5  C   UNL     1       2.997   5.822  17.918  0.00  0.00    +0.000 C 
ATOM      6  C   UNL     1       3.102   6.617  19.220  0.00  0.00    +0.000 C 
ATOM      7  C   UNL     1       2.364   7.208  18.061  0.00  0.00    +0.000 C 
BRANCH   5   8
ATOM      8  C   UNL     1       2.065   4.615  17.909  0.00  0.00    +0.000 C 
BRANCH   8   9
ATOM      9  C   UNL     1       2.145   3.827  19.197  0.00  0.00    +0.000 A 
ATOM     10  C   UNL     1       1.027   3.734  20.037  0.00  0.00    +0.000 A 
ATOM     11  C   UNL     1       1.103   3.053  21.254  0.00  0.00    +0.000 A 
ATOM     12  C   UNL     1       2.294   2.445  21.639  0.00  0.00    +0.000 A 
ATOM     13  C   UNL     1       3.407   2.505  20.801  0.00  0.00    +0.000 A 
ATOM     14  C   UNL     1       3.334   3.195  19.589  0.00  0.00    +0.000 A 
ENDBRANCH   8   9
ENDBRANCH   5   8
ENDBRANCH   2   5
BRANCH   1  15
ATOM     15  CA  UNL     1       5.805   4.189  15.939  0.00  0.00    +0.000 C 
BRANCH  15  17
ATOM     16  C   UNL     1       6.178   3.790  13.436  0.00  0.00    +0.000 C 
ATOM     17  C   UNL     1       5.702   4.758  14.510  0.00  0.00    +0.000 C 
ENDBRANCH  15  17
BRANCH  15  18
ATOM     18  C   UNL     1       6.996   4.739  16.741  0.00  0.00    +0.000 C 
BRANCH  18  19
ATOM     19  O   UNL     1       7.578   5.871  16.090  0.00  0.00    +0.000 OA
ATOM     20  H   UNL     1       7.092   6.012  15.260  0.00  0.00    +0.000 HD
ENDBRANCH  18  19
ENDBRANCH  15  18
ENDBRANCH   1  15
TORSDOF 7
ENDMDL
MODEL 7
REMARK VINA RESULT:      -6.2      2.532      4.281
REMARK  Name = 
REMARK  8 active torsions:
REMARK  status: ('A' for Active; 'I' for Inactive)
REMARK    1  A    between atoms: C_1  and  C_2
REMARK    2  A    between atoms: C_2  and  CA_3
REMARK    3  A    between atoms: CA_3  and  C_4
REMARK    4  A    between atoms: CA_3  and  N_6
REMARK    5  A    between atoms: C_4  and  O_5
REMARK    6  A    between atoms: C_7  and  C_9
REMARK    7  A    between atoms: C_9  and  C_10
REMARK    8  A    between atoms: C_10  and  C_11
REMARK                            x       y       z     vdW  Elec       q    Type
REMARK                         _______ _______ _______ _____ _____    ______ ____
ROOT
ATOM      1  N   UNL     1       5.380   5.673  17.717  0.00  0.00    +0.000 N 
ATOM      2  C   UNL     1       4.330   6.416  17.249  0.00  0.00    +0.000 C 
ATOM      3  O   UNL     1       4.394   7.173  16.287  0.00  0.00    +0.000 OA
ATOM      4  H   UNL     1       5.253   5.074  18.528  0.00  0.00    +0.000 HD
ENDROOT
BRANCH   2   5
ATOM      5  C   UNL     1       3.039   6.220  18.001  0.00  0.00    +0.000 C 
ATOM      6  C   UNL     1       2.912   6.882  19.374  0.00  0.00    +0.000 C 
ATOM      7  C   UNL     1       2.188   7.475  18.208  0.00  0.00    +0.000 C 
BRANCH   5   8
ATOM      8  C   UNL     1       2.311   4.897  17.793  0.00  0.00    +0.000 C 
BRANCH   8   9
ATOM      9  C   UNL     1       2.295   4.054  19.049  0.00  0.00    +0.000 A 
ATOM     10  C   UNL     1       1.142   3.996  19.844  0.00  0.00    +0.000 A 
ATOM     11  C   UNL     1       1.131   3.264  21.032  0.00  0.00    +0.000 A 
ATOM     12  C   UNL     1       2.268   2.570  21.434  0.00  0.00    +0.000 A 
ATOM     13  C   UNL     1       3.414   2.596  20.640  0.00  0.00    +0.000 A 
ATOM     14  C   UNL     1       3.429   3.337  19.456  0.00  0.00    +0.000 A 
ENDBRANCH   8   9
ENDBRANCH   5   8
ENDBRANCH   2   5
BRANCH   1  15
ATOM     15  CA  UNL     1       6.738   5.827  17.207  0.00  0.00    +0.000 C 
BRANCH  15  17
ATOM     16  C   UNL     1       7.844   5.746  19.516  0.00  0.00    +0.000 C 
ATOM     17  C   UNL     1       7.601   6.559  18.254  0.00  0.00    +0.000 C 
ENDBRANCH  15  17
BRANCH  15  18
ATOM     18  C   UNL     1       7.280   4.441  16.818  0.00  0.00    +0.000 C 
BRANCH  18  19
ATOM     19  O   UNL     1       6.224   3.573  16.399  0.00  0.00    +0.000 OA
ATOM     20  H   UNL     1       6.063   3.744  15.455  0.00  0.00    +0.000 HD
ENDBRANCH  18  19
ENDBRANCH  15  18
ENDBRANCH   1  15
TORSDOF 7
ENDMDL
MODEL 8
REMARK VINA RESULT:      -6.1      2.251      5.601
REMARK  Name = 
REMARK  8 active torsions:
REMARK  status: ('A' for Active; 'I' for Inactive)
REMARK    1  A    between atoms: C_1  and  C_2
REMARK    2  A    between atoms: C_2  and  CA_3
REMARK    3  A    between atoms: CA_3  and  C_4
REMARK    4  A    between atoms: CA_3  and  N_6
REMARK    5  A    between atoms: C_4  and  O_5
REMARK    6  A    between atoms: C_7  and  C_9
REMARK    7  A    between atoms: C_9  and  C_10
REMARK    8  A    between atoms: C_10  and  C_11
REMARK                            x       y       z     vdW  Elec       q    Type
REMARK                         _______ _______ _______ _____ _____    ______ ____
ROOT
ATOM      1  N   UNL     1       4.285   4.398  18.123  0.00  0.00    +0.000 N 
ATOM      2  C   UNL     1       5.614   4.722  18.165  0.00  0.00    +0.000 C 
ATOM      3  O   UNL     1       6.382   4.376  19.055  0.00  0.00    +0.000 OA
ATOM      4  H   UNL     1       3.708   4.730  17.356  0.00  0.00    +0.000 HD
ENDROOT
BRANCH   2   5
ATOM      5  C   UNL     1       6.097   5.537  16.993  0.00  0.00    +0.000 C 
ATOM      6  C   UNL     1       5.047   6.290  16.175  0.00  0.00    +0.000 C 
ATOM      7  C   UNL     1       5.923   7.053  17.116  0.00  0.00    +0.000 C 
BRANCH   5   8
ATOM      8  C   UNL     1       7.326   5.024  16.251  0.00  0.00    +0.000 C 
BRANCH   8   9
ATOM      9  C   UNL     1       7.015   4.679  14.811  0.00  0.00    +0.000 A 
ATOM     10  C   UNL     1       6.009   3.751  14.510  0.00  0.00    +0.000 A 
ATOM     11  C   UNL     1       5.748   3.386  13.188  0.00  0.00    +0.000 A 
ATOM     12  C   UNL     1       6.480   3.953  12.150  0.00  0.00    +0.000 A 
ATOM     13  C   UNL     1       7.466   4.899  12.432  0.00  0.00    +0.000 A 
ATOM     14  C   UNL     1       7.734   5.258  13.755  0.00  0.00    +0.000 A 
ENDBRANCH   8   9
ENDBRANCH   5   8
ENDBRANCH   2   5
BRANCH   1  15
ATOM     15  CA  UNL     1       3.606   3.730  19.228  0.00  0.00    +0.000 C 
BRANCH  15  17
ATOM     16  C   UNL     1       1.748   5.020  20.431  0.00  0.00    +0.000 C 
ATOM     17  C   UNL     1       2.120   4.144  19.244  0.00  0.00    +0.000 C 
ENDBRANCH  15  17
BRANCH  15  18
ATOM     18  C   UNL     1       3.825   2.214  19.100  0.00  0.00    +0.000 C 
BRANCH  18  19
ATOM     19  O   UNL     1       4.980   1.796  19.832  0.00  0.00    +0.000 OA
ATOM     20  H   UNL     1       4.875   2.108  20.747  0.00  0.00    +0.000 HD
ENDBRANCH  18  19
ENDBRANCH  15  18
ENDBRANCH   1  15
TORSDOF 7
ENDMDL
MODEL 9
REMARK VINA RESULT:      -6.1      2.951      4.666
REMARK  Name = 
REMARK  8 active torsions:
REMARK  status: ('A' for Active; 'I' for Inactive)
REMARK    1  A    between atoms: C_1  and  C_2
REMARK    2  A    between atoms: C_2  and  CA_3
REMARK    3  A    between atoms: CA_3  and  C_4
REMARK    4  A    between atoms: CA_3  and  N_6
REMARK    5  A    between atoms: C_4  and  O_5
REMARK    6  A    between atoms: C_7  and  C_9
REMARK    7  A    between atoms: C_9  and  C_10
REMARK    8  A    between atoms: C_10  and  C_11
REMARK                            x       y       z     vdW  Elec       q    Type
REMARK                         _______ _______ _______ _____ _____    ______ ____
ROOT
ATOM      1  N   UNL     1       4.774   4.743  17.188  0.00  0.00    +0.000 N 
ATOM      2  C   UNL     1       3.944   3.840  17.795  0.00  0.00    +0.000 C 
ATOM      3  O   UNL     1       4.108   2.626  17.773  0.00  0.00    +0.000 OA
ATOM      4  H   UNL     1       4.567   5.736  17.241  0.00  0.00    +0.000 HD
ENDROOT
BRANCH   2   5
ATOM      5  C   UNL     1       2.787   4.456  18.540  0.00  0.00    +0.000 C 
ATOM      6  C   UNL     1       1.477   4.652  17.775  0.00  0.00    +0.000 C 
ATOM      7  C   UNL     1       1.580   3.544  18.773  0.00  0.00    +0.000 C 
BRANCH   5   8
ATOM      8  C   UNL     1       3.124   5.474  19.622  0.00  0.00    +0.000 C 
BRANCH   8   9
ATOM      9  C   UNL     1       2.568   6.845  19.304  0.00  0.00    +0.000 A 
ATOM     10  C   UNL     1       1.780   7.521  20.246  0.00  0.00    +0.000 A 
ATOM     11  C   UNL     1       1.218   8.763  19.945  0.00  0.00    +0.000 A 
ATOM     12  C   UNL     1       1.448   9.351  18.705  0.00  0.00    +0.000 A 
ATOM     13  C   UNL     1       2.252   8.702  17.768  0.00  0.00    +0.000 A 
ATOM     14  C   UNL     1       2.807   7.455  18.065  0.00  0.00    +0.000 A 
ENDBRANCH   8   9
ENDBRANCH   5   8
ENDBRANCH   2   5
BRANCH   1  15
ATOM     15  CA  UNL     1       5.867   4.336  16.311  0.00  0.00    +0.000 C 
BRANCH  15  17
ATOM     16  C   UNL     1       5.980   3.903  13.789  0.00  0.00    +0.000 C 
ATOM     17  C   UNL     1       5.622   4.888  14.893  0.00  0.00    +0.000 C 
ENDBRANCH  15  17
BRANCH  15  18
ATOM     18  C   UNL     1       7.197   4.795  16.934  0.00  0.00    +0.000 C 
BRANCH  18  19
ATOM     19  O   UNL     1       7.407   4.186  18.209  0.00  0.00    +0.000 OA
ATOM     20  H   UNL     1       8.158   3.574  18.120  0.00  0.00    +0.000 HD
ENDBRANCH  18  19
ENDBRANCH  15  18
ENDBRANCH   1  15
TORSDOF 7
ENDMDL
