MODEL 1
REMARK VINA RESULT:      -7.1      0.000      0.000
REMARK  Name = 
REMARK  8 active torsions:
REMARK  status: ('A' for Active; 'I' for Inactive)
REMARK    1  A    between atoms: O_1  and  C_2
REMARK    2  A    between atoms: C_2  and  C_3
REMARK    3  A    between atoms: C_3  and  N_4
REMARK    4  A    between atoms: N_4  and  C_5
REMARK    5  A    between atoms: C_5  and  C_6
REMARK    6  A    between atoms: C_6  and  N_7
REMARK    7  A    between atoms: N_7  and  C_8
REMARK    8  A    between atoms: C_20  and  O_21
REMARK                            x       y       z     vdW  Elec       q    Type
REMARK                         _______ _______ _______ _____ _____    ______ ____
ROOT
ATOM      1  C   UNL     1       2.218   6.191  19.979  0.00  0.00    +0.000 A 
ATOM      2  C   UNL     1       1.579   5.245  20.857  0.00  0.00    +0.000 A 
ATOM      3  C   UNL     1       1.787   3.857  20.736  0.00  0.00    +0.000 A 
ATOM      4  C   UNL     1       2.628   3.432  19.733  0.00  0.00    +0.000 A 
ATOM      5  C   UNL     1       3.211   4.313  18.901  0.00  0.00    +0.000 A 
ATOM      6  C   UNL     1       3.902   3.593  18.004  0.00  0.00    +0.000 A 
ATOM      7  C   UNL     1       4.567   4.214  16.962  0.00  0.00    +0.000 A 
ATOM      8  C   UNL     1       5.207   3.461  15.973  0.00  0.00    +0.000 A 
ATOM      9  C   UNL     1       5.846   4.103  14.919  0.00  0.00    +0.000 A 
ATOM     10  C   UNL     1       5.881   5.495  14.866  0.00  0.00    +0.000 A 
ATOM     11  C   UNL     1       5.251   6.268  15.850  0.00  0.00    +0.000 A 
ATOM     12  C   UNL     1       4.549   5.648  16.915  0.00  0.00    +0.000 A 
ATOM     13  C   UNL     1       3.805   6.397  17.914  0.00  0.00    +0.000 A 
ATOM     14  C   UNL     1       3.085   5.689  18.939  0.00  0.00    +0.000 A 
ATOM     15  N   UNL     1       3.743   2.222  18.320  0.00  0.00    +0.000 NA
ATOM     16  N   UNL     1       3.004   2.127  19.329  0.00  0.00    +0.000 NA
ENDROOT
BRANCH   1  17
ATOM     17  N   UNL     1       1.939   7.588  20.136  0.00  0.00    +0.000 N 
ATOM     18  H   UNL     1       2.224   8.255  19.415  0.00  0.00    +0.000 HD
BRANCH  17  19
ATOM     19  C   UNL     1       1.231   8.122  21.291  0.00  0.00    +0.000 C 
BRANCH  19  20
ATOM     20  C   UNL     1       0.967   9.623  21.152  0.00  0.00    +0.000 C 
BRANCH  20  21
ATOM     21  N   UNL     1      -0.181   9.872  20.268  0.00  0.00    +0.000 NA
ATOM     22  H   UNL     1      -0.553   8.967  19.900  0.00  0.00    +0.000 HD
BRANCH  21  23
ATOM     23  C   UNL     1       0.221  10.697  19.127  0.00  0.00    +0.000 C 
BRANCH  23  24
ATOM     24  C   UNL     1       0.369   9.829  17.882  0.00  0.00    +0.000 C 
BRANCH  24  25
ATOM     25  O   UNL     1       1.725   9.718  17.555  0.00  0.00    +0.000 OA
ATOM     26  H   UNL     1       1.779   9.024  16.848  0.00  0.00    +0.000 HD
ENDBRANCH  24  25
ENDBRANCH  23  24
ENDBRANCH  21  23
ENDBRANCH  20  21
ENDBRANCH  19  20
ENDBRANCH  17  19
ENDBRANCH   1  17
BRANCH  13  27
ATOM     27  O   UNL     1       3.746   7.745  17.862  0.00  0.00    +0.000 OA
ATOM     28  H   UNL     1       3.609   8.277  17.065  0.00  0.00    +0.000 HD
ENDBRANCH  13  27
TORSDOF 8
ENDMDL
MODEL 2
REMARK VINA RESULT:      -7.1      3.396      7.622
REMARK  Name = 
REMARK  8 active torsions:
REMARK  status: ('A' for Active; 'I' for Inactive)
REMARK    1  A    between atoms: O_1  and  C_2
REMARK    2  A    between atoms: C_2  and  C_3
REMARK    3  A    between atoms: C_3  and  N_4
REMARK    4  A    between atoms: N_4  and  C_5
REMARK    5  A    between atoms: C_5  and  C_6
REMARK    6  A    between atoms: C_6  and  N_7
REMARK    7  A    between atoms: N_7  and  C_8
REMARK    8  A    between atoms: C_20  and  O_21
REMARK                            x       y       z     vdW  Elec       q    Type
REMARK                         _______ _______ _______ _____ _____    ______ ____
ROOT
ATOM      1  C   UNL     1       5.190   4.922  16.073  0.00  0.00    +0.000 A 
ATOM      2  C   UNL     1       5.343   6.280  15.619  0.00  0.00    +0.000 A 
ATOM      3  C   UNL     1       4.693   7.357  16.254  0.00  0.00    +0.000 A 
ATOM      4  C   UNL     1       3.893   7.059  17.334  0.00  0.00    +0.000 A 
ATOM      5  C   UNL     1       3.735   5.789  17.748  0.00  0.00    +0.000 A 
ATOM      6  C   UNL     1       2.853   5.824  18.759  0.00  0.00    +0.000 A 
ATOM      7  C   UNL     1       2.426   4.654  19.362  0.00  0.00    +0.000 A 
ATOM      8  C   UNL     1       1.437   4.679  20.350  0.00  0.00    +0.000 A 
ATOM      9  C   UNL     1       1.002   3.491  20.924  0.00  0.00    +0.000 A 
ATOM     10  C   UNL     1       1.575   2.279  20.544  0.00  0.00    +0.000 A 
ATOM     11  C   UNL     1       2.571   2.233  19.560  0.00  0.00    +0.000 A 
ATOM     12  C   UNL     1       3.007   3.419  18.918  0.00  0.00    +0.000 A 
ATOM     13  C   UNL     1       3.973   3.422  17.832  0.00  0.00    +0.000 A 
ATOM     14  C   UNL     1       4.332   4.667  17.206  0.00  0.00    +0.000 A 
ATOM     15  N   UNL     1       2.478   7.171  18.974  0.00  0.00    +0.000 NA
ATOM     16  N   UNL     1       3.086   7.892  18.147  0.00  0.00    +0.000 NA
ENDROOT
BRANCH   1  17
ATOM     17  N   UNL     1       5.854   3.869  15.362  0.00  0.00    +0.000 N 
ATOM     18  H   UNL     1       5.748   2.898  15.662  0.00  0.00    +0.000 HD
BRANCH  17  19
ATOM     19  C   UNL     1       6.680   4.115  14.188  0.00  0.00    +0.000 C 
BRANCH  19  20
ATOM     20  C   UNL     1       5.933   3.793  12.891  0.00  0.00    +0.000 C 
BRANCH  20  21
ATOM     21  N   UNL     1       6.612   2.720  12.151  0.00  0.00    +0.000 NA
ATOM     22  H   UNL     1       7.226   3.127  11.410  0.00  0.00    +0.000 HD
BRANCH  21  23
ATOM     23  C   UNL     1       5.631   1.847  11.501  0.00  0.00    +0.000 C 
BRANCH  23  24
ATOM     24  C   UNL     1       6.340   0.683  10.817  0.00  0.00    +0.000 C 
BRANCH  24  25
ATOM     25  O   UNL     1       6.152  -0.480  11.571  0.00  0.00    +0.000 OA
ATOM     26  H   UNL     1       5.508  -1.036  11.059  0.00  0.00    +0.000 HD
ENDBRANCH  24  25
ENDBRANCH  23  24
ENDBRANCH  21  23
ENDBRANCH  20  21
ENDBRANCH  19  20
ENDBRANCH  17  19
ENDBRANCH   1  17
BRANCH  13  27
ATOM     27  O   UNL     1       4.502   2.265  17.376  0.00  0.00    +0.000 OA
ATOM     28  H   UNL     1       4.083   1.394  17.422  0.00  0.00    +0.000 HD
ENDBRANCH  13  27
TORSDOF 8
ENDMDL
MODEL 3
REMARK VINA RESULT:      -7.1      2.342      5.876
REMARK  Name = 
REMARK  8 active torsions:
REMARK  status: ('A' for Active; 'I' for Inactive)
REMARK    1  A    between atoms: O_1  and  C_2
REMARK    2  A    between atoms: C_2  and  C_3
REMARK    3  A    between atoms: C_3  and  N_4
REMARK    4  A    between atoms: N_4  and  C_5
REMARK    5  A    between atoms: C_5  and  C_6
REMARK    6  A    between atoms: C_6  and  N_7
REMARK    7  A    between atoms: N_7  and  C_8
REMARK    8  A    between atoms: C_20  and  O_21
REMARK                            x       y       z     vdW  Elec       q    Type
REMARK                         _______ _______ _______ _____ _____    ______ ____
ROOT
ATOM      1  C   UNL     1       3.901   3.625  17.176  0.00  0.00    +0.000 A 
ATOM      2  C   UNL     1       3.864   2.225  17.507  0.00  0.00    +0.000 A 
ATOM      3  C   UNL     1       3.148   1.740  18.620  0.00  0.00    +0.000 A 
ATOM      4  C   UNL     1       2.483   2.667  19.391  0.00  0.00    +0.000 A 
ATOM      5  C   UNL     1       2.532   3.977  19.093  0.00  0.00    +0.000 A 
ATOM      6  C   UNL     1       1.853   4.614  20.059  0.00  0.00    +0.000 A 
ATOM      7  C   UNL     1       1.776   5.996  20.073  0.00  0.00    +0.000 A 
ATOM      8  C   UNL     1       1.152   6.666  21.129  0.00  0.00    +0.000 A 
ATOM      9  C   UNL     1       1.110   8.055  21.139  0.00  0.00    +0.000 A 
ATOM     10  C   UNL     1       1.656   8.779  20.081  0.00  0.00    +0.000 A 
ATOM     11  C   UNL     1       2.280   8.126  19.011  0.00  0.00    +0.000 A 
ATOM     12  C   UNL     1       2.385   6.713  18.989  0.00  0.00    +0.000 A 
ATOM     13  C   UNL     1       3.096   5.988  17.950  0.00  0.00    +0.000 A 
ATOM     14  C   UNL     1       3.191   4.554  18.024  0.00  0.00    +0.000 A 
ATOM     15  N   UNL     1       1.360   3.647  20.967  0.00  0.00    +0.000 NA
ATOM     16  N   UNL     1       1.723   2.512  20.577  0.00  0.00    +0.000 NA
ENDROOT
BRANCH   1  17
ATOM     17  N   UNL     1       4.674   4.056  16.048  0.00  0.00    +0.000 N 
ATOM     18  H   UNL     1       4.238   4.603  15.302  0.00  0.00    +0.000 HD
BRANCH  17  19
ATOM     19  C   UNL     1       6.094   3.764  15.913  0.00  0.00    +0.000 C 
BRANCH  19  20
ATOM     20  C   UNL     1       6.956   4.763  16.690  0.00  0.00    +0.000 C 
BRANCH  20  21
ATOM     21  N   UNL     1       7.198   4.288  18.060  0.00  0.00    +0.000 NA
ATOM     22  H   UNL     1       6.627   3.434  18.250  0.00  0.00    +0.000 HD
BRANCH  21  23
ATOM     23  C   UNL     1       6.818   5.315  19.032  0.00  0.00    +0.000 C 
BRANCH  23  24
ATOM     24  C   UNL     1       8.064   5.889  19.699  0.00  0.00    +0.000 C 
BRANCH  24  25
ATOM     25  O   UNL     1       8.238   5.286  20.949  0.00  0.00    +0.000 OA
ATOM     26  H   UNL     1       8.437   6.023  21.583  0.00  0.00    +0.000 HD
ENDBRANCH  24  25
ENDBRANCH  23  24
ENDBRANCH  21  23
ENDBRANCH  20  21
ENDBRANCH  19  20
ENDBRANCH  17  19
ENDBRANCH   1  17
BRANCH  13  27
ATOM     27  O   UNL     1       3.708   6.649  16.943  0.00  0.00    +0.000 OA
ATOM     28  H   UNL     1       3.281   6.976  16.138  0.00  0.00    +0.000 HD
ENDBRANCH  13  27
TORSDOF 8
ENDMDL
MODEL 4
REMARK VINA RESULT:      -7.0      4.396      6.965
REMARK  Name = 
REMARK  8 active torsions:
REMARK  status: ('A' for Active; 'I' for Inactive)
REMARK    1  A    between atoms: O_1  and  C_2
REMARK    2  A    between atoms: C_2  and  C_3
REMARK    3  A    between atoms: C_3  and  N_4
REMARK    4  A    between atoms: N_4  and  C_5
REMARK    5  A    between atoms: C_5  and  C_6
REMARK    6  A    between atoms: C_6  and  N_7
REMARK    7  A    between atoms: N_7  and  C_8
REMARK    8  A    between atoms: C_20  and  O_21
REMARK                            x       y       z     vdW  Elec       q    Type
REMARK                         _______ _______ _______ _____ _____    ______ ____
ROOT
ATOM      1  C   UNL     1      -1.976  12.266  20.810  0.00  0.00    +0.000 A 
ATOM      2  C   UNL     1      -2.348  12.385  22.196  0.00  0.00    +0.000 A 
ATOM      3  C   UNL     1      -1.733  11.613  23.202  0.00  0.00    +0.000 A 
ATOM      4  C   UNL     1      -0.756  10.728  22.806  0.00  0.00    +0.000 A 
ATOM      5  C   UNL     1      -0.420  10.604  21.511  0.00  0.00    +0.000 A 
ATOM      6  C   UNL     1       0.496   9.625  21.445  0.00  0.00    +0.000 A 
ATOM      7  C   UNL     1       0.997   9.209  20.225  0.00  0.00    +0.000 A 
ATOM      8  C   UNL     1       1.879   8.127  20.147  0.00  0.00    +0.000 A 
ATOM      9  C   UNL     1       2.349   7.706  18.908  0.00  0.00    +0.000 A 
ATOM     10  C   UNL     1       1.974   8.383  17.750  0.00  0.00    +0.000 A 
ATOM     11  C   UNL     1       1.096   9.473  17.808  0.00  0.00    +0.000 A 
ATOM     12  C   UNL     1       0.558   9.902  19.047  0.00  0.00    +0.000 A 
ATOM     13  C   UNL     1      -0.422  10.969  19.158  0.00  0.00    +0.000 A 
ATOM     14  C   UNL     1      -0.949  11.315  20.451  0.00  0.00    +0.000 A 
ATOM     15  N   UNL     1       0.734   9.153  22.758  0.00  0.00    +0.000 NA
ATOM     16  N   UNL     1       0.009   9.797  23.553  0.00  0.00    +0.000 NA
ENDROOT
BRANCH   1  17
ATOM     17  N   UNL     1      -2.663  13.058  19.832  0.00  0.00    +0.000 N 
ATOM     18  H   UNL     1      -2.145  13.716  19.246  0.00  0.00    +0.000 HD
BRANCH  17  19
ATOM     19  C   UNL     1      -4.098  12.957  19.610  0.00  0.00    +0.000 C 
BRANCH  19  20
ATOM     20  C   UNL     1      -4.451  11.777  18.700  0.00  0.00    +0.000 C 
BRANCH  20  21
ATOM     21  N   UNL     1      -3.629  11.796  17.481  0.00  0.00    +0.000 NA
ATOM     22  H   UNL     1      -3.414  12.781  17.208  0.00  0.00    +0.000 HD
BRANCH  21  23
ATOM     23  C   UNL     1      -4.347  11.163  16.371  0.00  0.00    +0.000 C 
BRANCH  23  24
ATOM     24  C   UNL     1      -3.364  10.763  15.275  0.00  0.00    +0.000 C 
BRANCH  24  25
ATOM     25  O   UNL     1      -2.089  10.615  15.830  0.00  0.00    +0.000 OA
ATOM     26  H   UNL     1      -1.804   9.689  15.615  0.00  0.00    +0.000 HD
ENDBRANCH  24  25
ENDBRANCH  23  24
ENDBRANCH  21  23
ENDBRANCH  20  21
ENDBRANCH  19  20
ENDBRANCH  17  19
ENDBRANCH   1  17
BRANCH  13  27
ATOM     27  O   UNL     1      -0.875  11.606  18.056  0.00  0.00    +0.000 OA
ATOM     28  H   UNL     1      -0.516  11.517  17.162  0.00  0.00    +0.000 HD
ENDBRANCH  13  27
TORSDOF 8
ENDMDL
MODEL 5
REMARK VINA RESULT:      -6.9      3.082      6.332
REMARK  Name = 
REMARK  8 active torsions:
REMARK  status: ('A' for Active; 'I' for Inactive)
REMARK    1  A    between atoms: O_1  and  C_2
REMARK    2  A    between atoms: C_2  and  C_3
REMARK    3  A    between atoms: C_3  and  N_4
REMARK    4  A    between atoms: N_4  and  C_5
REMARK    5  A    between atoms: C_5  and  C_6
REMARK    6  A    between atoms: C_6  and  N_7
REMARK    7  A    between atoms: N_7  and  C_8
REMARK    8  A    between atoms: C_20  and  O_21
REMARK                            x       y       z     vdW  Elec       q    Type
REMARK                         _______ _______ _______ _____ _____    ______ ____
ROOT
ATOM      1  C   UNL     1       4.847   5.378  16.388  0.00  0.00    +0.000 A 
ATOM      2  C   UNL     1       4.784   6.761  15.994  0.00  0.00    +0.000 A 
ATOM      3  C   UNL     1       4.041   7.711  16.723  0.00  0.00    +0.000 A 
ATOM      4  C   UNL     1       3.366   7.261  17.836  0.00  0.00    +0.000 A 
ATOM      5  C   UNL     1       3.411   5.966  18.194  0.00  0.00    +0.000 A 
ATOM      6  C   UNL     1       2.606   5.837  19.260  0.00  0.00    +0.000 A 
ATOM      7  C   UNL     1       2.384   4.596  19.830  0.00  0.00    +0.000 A 
ATOM      8  C   UNL     1       1.473   4.444  20.879  0.00  0.00    +0.000 A 
ATOM      9  C   UNL     1       1.243   3.185  21.420  0.00  0.00    +0.000 A 
ATOM     10  C   UNL     1       1.945   2.080  20.943  0.00  0.00    +0.000 A 
ATOM     11  C   UNL     1       2.867   2.212  19.897  0.00  0.00    +0.000 A 
ATOM     12  C   UNL     1       3.093   3.473  19.288  0.00  0.00    +0.000 A 
ATOM     13  C   UNL     1       3.971   3.653  18.144  0.00  0.00    +0.000 A 
ATOM     14  C   UNL     1       4.113   4.960  17.560  0.00  0.00    +0.000 A 
ATOM     15  N   UNL     1       2.069   7.110  19.567  0.00  0.00    +0.000 NA
ATOM     16  N   UNL     1       2.514   7.942  18.740  0.00  0.00    +0.000 NA
ENDROOT
BRANCH   1  17
ATOM     17  N   UNL     1       5.596   4.456  15.584  0.00  0.00    +0.000 N 
ATOM     18  H   UNL     1       5.124   3.890  14.875  0.00  0.00    +0.000 HD
BRANCH  17  19
ATOM     19  C   UNL     1       7.037   4.294  15.713  0.00  0.00    +0.000 C 
BRANCH  19  20
ATOM     20  C   UNL     1       7.532   4.698  17.104  0.00  0.00    +0.000 C 
BRANCH  20  21
ATOM     21  N   UNL     1       7.808   6.141  17.160  0.00  0.00    +0.000 NA
ATOM     22  H   UNL     1       8.718   6.351  16.692  0.00  0.00    +0.000 HD
BRANCH  21  23
ATOM     23  C   UNL     1       7.897   6.590  18.551  0.00  0.00    +0.000 C 
BRANCH  23  24
ATOM     24  C   UNL     1       7.255   5.560  19.475  0.00  0.00    +0.000 C 
BRANCH  24  25
ATOM     25  O   UNL     1       8.045   5.407  20.618  0.00  0.00    +0.000 OA
ATOM     26  H   UNL     1       7.670   6.029  21.294  0.00  0.00    +0.000 HD
ENDBRANCH  24  25
ENDBRANCH  23  24
ENDBRANCH  21  23
ENDBRANCH  20  21
ENDBRANCH  19  20
ENDBRANCH  17  19
ENDBRANCH   1  17
BRANCH  13  27
ATOM     27  O   UNL     1       4.617   2.600  17.598  0.00  0.00    +0.000 OA
ATOM     28  H   UNL     1       4.529   1.676  17.873  0.00  0.00    +0.000 HD
ENDBRANCH  13  27
TORSDOF 8
ENDMDL
MODEL 6
REMARK VINA RESULT:      -6.9      3.234      7.201
REMARK  Name = 
REMARK  8 active torsions:
REMARK  status: ('A' for Active; 'I' for Inactive)
REMARK    1  A    between atoms: O_1  and  C_2
REMARK    2  A    between atoms: C_2  and  C_3
REMARK    3  A    between atoms: C_3  and  N_4
REMARK    4  A    between atoms: N_4  and  C_5
REMARK    5  A    between atoms: C_5  and  C_6
REMARK    6  A    between atoms: C_6  and  N_7
REMARK    7  A    between atoms: N_7  and  C_8
REMARK    8  A    between atoms: C_20  and  O_21
REMARK                            x       y       z     vdW  Elec       q    Type
REMARK                         _______ _______ _______ _____ _____    ______ ____
ROOT
ATOM      1  C   UNL     1       5.314   4.920  16.226  0.00  0.00    +0.000 A 
ATOM      2  C   UNL     1       5.479   6.267  15.746  0.00  0.00    +0.000 A 
ATOM      3  C   UNL     1       4.792   7.354  16.322  0.00  0.00    +0.000 A 
ATOM      4  C   UNL     1       3.943   7.076  17.369  0.00  0.00    +0.000 A 
ATOM      5  C   UNL     1       3.774   5.817  17.807  0.00  0.00    +0.000 A 
ATOM      6  C   UNL     1       2.845   5.869  18.774  0.00  0.00    +0.000 A 
ATOM      7  C   UNL     1       2.398   4.711  19.385  0.00  0.00    +0.000 A 
ATOM      8  C   UNL     1       1.362   4.754  20.324  0.00  0.00    +0.000 A 
ATOM      9  C   UNL     1       0.907   3.577  20.906  0.00  0.00    +0.000 A 
ATOM     10  C   UNL     1       1.506   2.360  20.584  0.00  0.00    +0.000 A 
ATOM     11  C   UNL     1       2.549   2.297  19.651  0.00  0.00    +0.000 A 
ATOM     12  C   UNL     1       3.007   3.471  19.001  0.00  0.00    +0.000 A 
ATOM     13  C   UNL     1       4.024   3.454  17.963  0.00  0.00    +0.000 A 
ATOM     14  C   UNL     1       4.404   4.686  17.323  0.00  0.00    +0.000 A 
ATOM     15  N   UNL     1       2.451   7.219  18.937  0.00  0.00    +0.000 NA
ATOM     16  N   UNL     1       3.093   7.924  18.122  0.00  0.00    +0.000 NA
ENDROOT
BRANCH   1  17
ATOM     17  N   UNL     1       6.018   3.854  15.574  0.00  0.00    +0.000 N 
ATOM     18  H   UNL     1       6.036   2.920  15.988  0.00  0.00    +0.000 HD
BRANCH  17  19
ATOM     19  C   UNL     1       6.713   4.033  14.307  0.00  0.00    +0.000 C 
BRANCH  19  20
ATOM     20  C   UNL     1       5.784   3.802  13.113  0.00  0.00    +0.000 C 
BRANCH  20  21
ATOM     21  N   UNL     1       6.238   2.653  12.315  0.00  0.00    +0.000 NA
ATOM     22  H   UNL     1       7.123   2.893  11.813  0.00  0.00    +0.000 HD
BRANCH  21  23
ATOM     23  C   UNL     1       5.230   2.296  11.314  0.00  0.00    +0.000 C 
BRANCH  23  24
ATOM     24  C   UNL     1       4.080   3.296  11.351  0.00  0.00    +0.000 C 
BRANCH  24  25
ATOM     25  O   UNL     1       3.227   3.062  10.268  0.00  0.00    +0.000 OA
ATOM     26  H   UNL     1       3.298   3.863   9.686  0.00  0.00    +0.000 HD
ENDBRANCH  24  25
ENDBRANCH  23  24
ENDBRANCH  21  23
ENDBRANCH  20  21
ENDBRANCH  19  20
ENDBRANCH  17  19
ENDBRANCH   1  17
BRANCH  13  27
ATOM     27  O   UNL     1       4.581   2.291  17.562  0.00  0.00    +0.000 OA
ATOM     28  H   UNL     1       4.608   1.469  18.072  0.00  0.00    +0.000 HD
ENDBRANCH  13  27
TORSDOF 8
ENDMDL
MODEL 7
REMARK VINA RESULT:      -6.9      1.106      1.171
REMARK  Name = 
REMARK  8 active torsions:
REMARK  status: ('A' for Active; 'I' for Inactive)
REMARK    1  A    between atoms: O_1  and  C_2
REMARK    2  A    between atoms: C_2  and  C_3
REMARK    3  A    between atoms: C_3  and  N_4
REMARK    4  A    between atoms: N_4  and  C_5
REMARK    5  A    between atoms: C_5  and  C_6
REMARK    6  A    between atoms: C_6  and  N_7
REMARK    7  A    between atoms: N_7  and  C_8
REMARK    8  A    between atoms: C_20  and  O_21
REMARK                            x       y       z     vdW  Elec       q    Type
REMARK                         _______ _______ _______ _____ _____    ______ ____
ROOT
ATOM      1  C   UNL     1       2.217   6.616  19.823  0.00  0.00    +0.000 A 
ATOM      2  C   UNL     1       1.635   5.784  20.843  0.00  0.00    +0.000 A 
ATOM      3  C   UNL     1       1.923   4.408  20.937  0.00  0.00    +0.000 A 
ATOM      4  C   UNL     1       2.787   3.882  20.004  0.00  0.00    +0.000 A 
ATOM      5  C   UNL     1       3.317   4.654  19.040  0.00  0.00    +0.000 A 
ATOM      6  C   UNL     1       4.048   3.844  18.259  0.00  0.00    +0.000 A 
ATOM      7  C   UNL     1       4.676   4.333  17.127  0.00  0.00    +0.000 A 
ATOM      8  C   UNL     1       5.358   3.473  16.261  0.00  0.00    +0.000 A 
ATOM      9  C   UNL     1       5.957   3.979  15.114  0.00  0.00    +0.000 A 
ATOM     10  C   UNL     1       5.911   5.346  14.845  0.00  0.00    +0.000 A 
ATOM     11  C   UNL     1       5.238   6.224  15.703  0.00  0.00    +0.000 A 
ATOM     12  C   UNL     1       4.574   5.738  16.858  0.00  0.00    +0.000 A 
ATOM     13  C   UNL     1       3.788   6.589  17.735  0.00  0.00    +0.000 A 
ATOM     14  C   UNL     1       3.111   6.009  18.864  0.00  0.00    +0.000 A 
ATOM     15  N   UNL     1       3.969   2.532  18.786  0.00  0.00    +0.000 NA
ATOM     16  N   UNL     1       3.238   2.553  19.804  0.00  0.00    +0.000 NA
ENDROOT
BRANCH   1  17
ATOM     17  N   UNL     1       1.856   8.003  19.763  0.00  0.00    +0.000 N 
ATOM     18  H   UNL     1       2.082   8.558  18.935  0.00  0.00    +0.000 HD
BRANCH  17  19
ATOM     19  C   UNL     1       1.148   8.676  20.842  0.00  0.00    +0.000 C 
BRANCH  19  20
ATOM     20  C   UNL     1       0.111   9.668  20.309  0.00  0.00    +0.000 C 
BRANCH  20  21
ATOM     21  N   UNL     1       0.482  10.139  18.967  0.00  0.00    +0.000 NA
ATOM     22  H   UNL     1       1.491   9.939  18.782  0.00  0.00    +0.000 HD
BRANCH  21  23
ATOM     23  C   UNL     1       0.278  11.585  18.858  0.00  0.00    +0.000 C 
BRANCH  23  24
ATOM     24  C   UNL     1      -1.199  11.888  18.629  0.00  0.00    +0.000 C 
BRANCH  24  25
ATOM     25  O   UNL     1      -1.354  12.525  17.393  0.00  0.00    +0.000 OA
ATOM     26  H   UNL     1      -0.484  12.961  17.199  0.00  0.00    +0.000 HD
ENDBRANCH  24  25
ENDBRANCH  23  24
ENDBRANCH  21  23
ENDBRANCH  20  21
ENDBRANCH  19  20
ENDBRANCH  17  19
ENDBRANCH   1  17
BRANCH  13  27
ATOM     27  O   UNL     1       3.650   7.908  17.476  0.00  0.00    +0.000 OA
ATOM     28  H   UNL     1       2.847   8.342  17.156  0.00  0.00    +0.000 HD
ENDBRANCH  13  27
TORSDOF 8
ENDMDL
MODEL 8
REMARK VINA RESULT:      -6.9      1.520      1.858
REMARK  Name = 
REMARK  8 active torsions:
REMARK  status: ('A' for Active; 'I' for Inactive)
REMARK    1  A    between atoms: O_1  and  C_2
REMARK    2  A    between atoms: C_2  and  C_3
REMARK    3  A    between atoms: C_3  and  N_4
REMARK    4  A    between atoms: N_4  and  C_5
REMARK    5  A    between atoms: C_5  and  C_6
REMARK    6  A    between atoms: C_6  and  N_7
REMARK    7  A    between atoms: N_7  and  C_8
REMARK    8  A    between atoms: C_20  and  O_21
REMARK                            x       y       z     vdW  Elec       q    Type
REMARK                         _______ _______ _______ _____ _____    ______ ____
ROOT
ATOM      1  C   UNL     1       2.251   6.034  19.886  0.00  0.00    +0.000 A 
ATOM      2  C   UNL     1       1.551   5.072  20.696  0.00  0.00    +0.000 A 
ATOM      3  C   UNL     1       1.705   3.684  20.508  0.00  0.00    +0.000 A 
ATOM      4  C   UNL     1       2.555   3.277  19.504  0.00  0.00    +0.000 A 
ATOM      5  C   UNL     1       3.196   4.175  18.735  0.00  0.00    +0.000 A 
ATOM      6  C   UNL     1       3.881   3.473  17.819  0.00  0.00    +0.000 A 
ATOM      7  C   UNL     1       4.598   4.119  16.828  0.00  0.00    +0.000 A 
ATOM      8  C   UNL     1       5.233   3.392  15.817  0.00  0.00    +0.000 A 
ATOM      9  C   UNL     1       5.926   4.060  14.814  0.00  0.00    +0.000 A 
ATOM     10  C   UNL     1       6.019   5.451  14.835  0.00  0.00    +0.000 A 
ATOM     11  C   UNL     1       5.395   6.197  15.843  0.00  0.00    +0.000 A 
ATOM     12  C   UNL     1       4.640   5.553  16.856  0.00  0.00    +0.000 A 
ATOM     13  C   UNL     1       3.901   6.280  17.874  0.00  0.00    +0.000 A 
ATOM     14  C   UNL     1       3.125   5.551  18.842  0.00  0.00    +0.000 A 
ATOM     15  N   UNL     1       3.657   2.096  18.058  0.00  0.00    +0.000 NA
ATOM     16  N   UNL     1       2.889   1.980  19.041  0.00  0.00    +0.000 NA
ENDROOT
BRANCH   1  17
ATOM     17  N   UNL     1       2.025   7.432  20.109  0.00  0.00    +0.000 N 
ATOM     18  H   UNL     1       2.427   8.127  19.476  0.00  0.00    +0.000 HD
BRANCH  17  19
ATOM     19  C   UNL     1       1.213   7.929  21.211  0.00  0.00    +0.000 C 
BRANCH  19  20
ATOM     20  C   UNL     1       0.765   9.375  20.980  0.00  0.00    +0.000 C 
BRANCH  20  21
ATOM     21  N   UNL     1       0.698  10.109  22.252  0.00  0.00    +0.000 NA
ATOM     22  H   UNL     1       1.191   9.574  23.002  0.00  0.00    +0.000 HD
BRANCH  21  23
ATOM     23  C   UNL     1      -0.696  10.291  22.664  0.00  0.00    +0.000 C 
BRANCH  23  24
ATOM     24  C   UNL     1      -0.978  11.769  22.913  0.00  0.00    +0.000 C 
BRANCH  24  25
ATOM     25  O   UNL     1      -0.059  12.542  22.196  0.00  0.00    +0.000 OA
ATOM     26  H   UNL     1      -0.266  13.487  22.416  0.00  0.00    +0.000 HD
ENDBRANCH  24  25
ENDBRANCH  23  24
ENDBRANCH  21  23
ENDBRANCH  20  21
ENDBRANCH  19  20
ENDBRANCH  17  19
ENDBRANCH   1  17
BRANCH  13  27
ATOM     27  O   UNL     1       3.898   7.630  17.893  0.00  0.00    +0.000 OA
ATOM     28  H   UNL     1       3.298   8.203  17.394  0.00  0.00    +0.000 HD
ENDBRANCH  13  27
TORSDOF 8
ENDMDL
MODEL 9
REMARK VINA RESULT:      -6.7      1.121      1.271
REMARK  Name = 
REMARK  8 active torsions:
REMARK  status: ('A' for Active; 'I' for Inactive)
REMARK    1  A    between atoms: O_1  and  C_2
REMARK    2  A    between atoms: C_2  and  C_3
REMARK    3  A    between atoms: C_3  and  N_4
REMARK    4  A    between atoms: N_4  and  C_5
REMARK    5  A    between atoms: C_5  and  C_6
REMARK    6  A    between atoms: C_6  and  N_7
REMARK    7  A    between atoms: N_7  and  C_8
REMARK    8  A    between atoms: C_20  and  O_21
REMARK                            x       y       z     vdW  Elec       q    Type
REMARK                         _______ _______ _______ _____ _____    ______ ____
ROOT
ATOM      1  C   UNL     1       2.267   6.168  19.933  0.00  0.00    +0.000 A 
ATOM      2  C   UNL     1       1.635   5.234  20.827  0.00  0.00    +0.000 A 
ATOM      3  C   UNL     1       1.847   3.845  20.727  0.00  0.00    +0.000 A 
ATOM      4  C   UNL     1       2.688   3.408  19.727  0.00  0.00    +0.000 A 
ATOM      5  C   UNL     1       3.265   4.279  18.881  0.00  0.00    +0.000 A 
ATOM      6  C   UNL     1       3.956   3.547  17.993  0.00  0.00    +0.000 A 
ATOM      7  C   UNL     1       4.616   4.155  16.940  0.00  0.00    +0.000 A 
ATOM      8  C   UNL     1       5.256   3.389  15.961  0.00  0.00    +0.000 A 
ATOM      9  C   UNL     1       5.890   4.018  14.895  0.00  0.00    +0.000 A 
ATOM     10  C   UNL     1       5.920   5.409  14.821  0.00  0.00    +0.000 A 
ATOM     11  C   UNL     1       5.289   6.194  15.795  0.00  0.00    +0.000 A 
ATOM     12  C   UNL     1       4.593   5.588  16.871  0.00  0.00    +0.000 A 
ATOM     13  C   UNL     1       3.848   6.349  17.860  0.00  0.00    +0.000 A 
ATOM     14  C   UNL     1       3.133   5.654  18.898  0.00  0.00    +0.000 A 
ATOM     15  N   UNL     1       3.803   2.181  18.330  0.00  0.00    +0.000 NA
ATOM     16  N   UNL     1       3.068   2.099  19.342  0.00  0.00    +0.000 NA
ENDROOT
BRANCH   1  17
ATOM     17  N   UNL     1       1.983   7.567  20.069  0.00  0.00    +0.000 N 
ATOM     18  H   UNL     1       2.283   8.226  19.347  0.00  0.00    +0.000 HD
BRANCH  17  19
ATOM     19  C   UNL     1       1.252   8.112  21.204  0.00  0.00    +0.000 C 
BRANCH  19  20
ATOM     20  C   UNL     1       0.526   9.411  20.842  0.00  0.00    +0.000 C 
BRANCH  20  21
ATOM     21  N   UNL     1       0.935   9.882  19.511  0.00  0.00    +0.000 NA
ATOM     22  H   UNL     1       1.905   9.558  19.297  0.00  0.00    +0.000 HD
BRANCH  21  23
ATOM     23  C   UNL     1       0.923  11.346  19.461  0.00  0.00    +0.000 C 
BRANCH  23  24
ATOM     24  C   UNL     1       0.790  11.915  20.870  0.00  0.00    +0.000 C 
BRANCH  24  25
ATOM     25  O   UNL     1       1.891  12.733  21.144  0.00  0.00    +0.000 OA
ATOM     26  H   UNL     1       2.020  13.296  20.338  0.00  0.00    +0.000 HD
ENDBRANCH  24  25
ENDBRANCH  23  24
ENDBRANCH  21  23
ENDBRANCH  20  21
ENDBRANCH  19  20
ENDBRANCH  17  19
ENDBRANCH   1  17
BRANCH  13  27
ATOM     27  O   UNL     1       3.784   7.697  17.789  0.00  0.00    +0.000 OA
ATOM     28  H   UNL     1       3.714   8.301  18.541  0.00  0.00    +0.000 HD
ENDBRANCH  13  27
TORSDOF 8
ENDMDL
