MODEL 1
REMARK VINA RESULT:      -7.9      0.000      0.000
REMARK  Name = 
REMARK  3 active torsions:
REMARK  status: ('A' for Active; 'I' for Inactive)
REMARK    1  A    between atoms: C_1  and  O_2
REMARK    2  A    between atoms: O_2  and  C_3
REMARK    3  A    between atoms: C_17  and  C_18
REMARK                            x       y       z     vdW  Elec       q    Type
REMARK                         _______ _______ _______ _____ _____    ______ ____
ROOT
ATOM      1  C   UNL     1      -3.902  14.010  21.823  0.00  0.00    +0.000 A 
ATOM      2  C   UNL     1      -3.811  13.584  23.145  0.00  0.00    +0.000 A 
ATOM      3  C   UNL     1      -2.906  12.583  23.492  0.00  0.00    +0.000 A 
ATOM      4  C   UNL     1      -2.088  12.003  22.521  0.00  0.00    +0.000 A 
ATOM      5  C   UNL     1      -2.155  12.413  21.190  0.00  0.00    +0.000 A 
ATOM      6  C   UNL     1      -3.077  13.426  20.855  0.00  0.00    +0.000 A 
ATOM      7  C   UNL     1      -1.260  11.771  20.141  0.00  0.00    +0.000 C 
ATOM      8  C   UNL     1      -0.345  12.820  19.471  0.00  0.00    +0.000 C 
ATOM      9  O   UNL     1      -0.677  12.782  18.083  0.00  0.00    +0.000 OA
ATOM     10  C   UNL     1      -1.660  11.865  17.975  0.00  0.00    +0.000 C 
ATOM     11  N   UNL     1      -2.103  11.699  16.716  0.00  0.00    +0.000 N 
ATOM     12  N   UNL     1      -2.092  11.256  19.021  0.00  0.00    +0.000 NA
ATOM     13  C   UNL     1      -0.438  10.626  20.721  0.00  0.00    +0.000 A 
ATOM     14  C   UNL     1       0.392   9.831  19.900  0.00  0.00    +0.000 A 
ATOM     15  C   UNL     1       1.144   8.751  20.403  0.00  0.00    +0.000 A 
ATOM     16  C   UNL     1       1.040   8.482  21.776  0.00  0.00    +0.000 A 
ATOM     17  C   UNL     1       0.235   9.264  22.606  0.00  0.00    +0.000 A 
ATOM     18  C   UNL     1      -0.496  10.328  22.078  0.00  0.00    +0.000 A 
ATOM     19  O   UNL     1      -1.248  11.026  22.984  0.00  0.00    +0.000 OA
ATOM     20  H   UNL     1      -1.949  12.486  16.101  0.00  0.00    +0.000 HD
ATOM     21  H   UNL     1      -3.026  11.285  16.660  0.00  0.00    +0.000 HD
ENDROOT
BRANCH  15  22
ATOM     22  C   UNL     1       2.006   7.944  19.521  0.00  0.00    +0.000 A 
ATOM     23  C   UNL     1       2.473   8.388  18.292  0.00  0.00    +0.000 A 
ATOM     24  N   UNL     1       3.256   7.672  17.453  0.00  0.00    +0.000 NA
ATOM     25  C   UNL     1       3.580   6.444  17.874  0.00  0.00    +0.000 A 
ATOM     26  N   UNL     1       3.203   5.886  19.031  0.00  0.00    +0.000 NA
ATOM     27  C   UNL     1       2.428   6.658  19.826  0.00  0.00    +0.000 A 
ENDBRANCH  15  22
BRANCH   1  29
ATOM     28  C   UNL     1      -5.698  14.577  20.383  0.00  0.00    +0.000 C 
ATOM     29  O   UNL     1      -4.744  14.983  21.359  0.00  0.00    +0.000 OA
ENDBRANCH   1  29
TORSDOF 2
ENDMDL
MODEL 2
REMARK VINA RESULT:      -7.6      0.650      1.113
REMARK  Name = 
REMARK  3 active torsions:
REMARK  status: ('A' for Active; 'I' for Inactive)
REMARK    1  A    between atoms: C_1  and  O_2
REMARK    2  A    between atoms: O_2  and  C_3
REMARK    3  A    between atoms: C_17  and  C_18
REMARK                            x       y       z     vdW  Elec       q    Type
REMARK                         _______ _______ _______ _____ _____    ______ ____
ROOT
ATOM      1  C   UNL     1      -3.518  14.412  22.193  0.00  0.00    +0.000 A 
ATOM      2  C   UNL     1      -3.423  13.962  23.508  0.00  0.00    +0.000 A 
ATOM      3  C   UNL     1      -2.580  12.899  23.819  0.00  0.00    +0.000 A 
ATOM      4  C   UNL     1      -1.827  12.278  22.820  0.00  0.00    +0.000 A 
ATOM      5  C   UNL     1      -1.900  12.710  21.497  0.00  0.00    +0.000 A 
ATOM      6  C   UNL     1      -2.759  13.787  21.197  0.00  0.00    +0.000 A 
ATOM      7  C   UNL     1      -1.076  12.023  20.417  0.00  0.00    +0.000 C 
ATOM      8  C   UNL     1      -0.110  13.017  19.737  0.00  0.00    +0.000 C 
ATOM      9  O   UNL     1      -0.478  13.021  18.357  0.00  0.00    +0.000 OA
ATOM     10  C   UNL     1      -1.523  12.174  18.263  0.00  0.00    +0.000 C 
ATOM     11  N   UNL     1      -2.008  12.055  17.015  0.00  0.00    +0.000 N 
ATOM     12  N   UNL     1      -1.969  11.580  19.313  0.00  0.00    +0.000 NA
ATOM     13  C   UNL     1      -0.320  10.818  20.962  0.00  0.00    +0.000 A 
ATOM     14  C   UNL     1       0.434   9.980  20.111  0.00  0.00    +0.000 A 
ATOM     15  C   UNL     1       1.124   8.845  20.581  0.00  0.00    +0.000 A 
ATOM     16  C   UNL     1       1.035   8.565  21.953  0.00  0.00    +0.000 A 
ATOM     17  C   UNL     1       0.306   9.389  22.813  0.00  0.00    +0.000 A 
ATOM     18  C   UNL     1      -0.364  10.506  22.317  0.00  0.00    +0.000 A 
ATOM     19  O   UNL     1      -1.044  11.241  23.250  0.00  0.00    +0.000 OA
ATOM     20  H   UNL     1      -1.816  12.838  16.405  0.00  0.00    +0.000 HD
ATOM     21  H   UNL     1      -2.958  11.705  16.977  0.00  0.00    +0.000 HD
ENDROOT
BRANCH  15  22
ATOM     22  C   UNL     1       1.907   7.994  19.668  0.00  0.00    +0.000 A 
ATOM     23  C   UNL     1       2.347   6.720  19.996  0.00  0.00    +0.000 A 
ATOM     24  N   UNL     1       3.075   5.917  19.188  0.00  0.00    +0.000 NA
ATOM     25  C   UNL     1       3.377   6.426  17.988  0.00  0.00    +0.000 A 
ATOM     26  N   UNL     1       3.021   7.635  17.537  0.00  0.00    +0.000 NA
ATOM     27  C   UNL     1       2.289   8.385  18.392  0.00  0.00    +0.000 A 
ENDBRANCH  15  22
BRANCH   1  29
ATOM     28  C   UNL     1      -3.749  16.280  20.751  0.00  0.00    +0.000 C 
ATOM     29  O   UNL     1      -4.304  15.446  21.762  0.00  0.00    +0.000 OA
ENDBRANCH   1  29
TORSDOF 2
ENDMDL
MODEL 3
REMARK VINA RESULT:      -7.4      3.007      4.765
REMARK  Name = 
REMARK  3 active torsions:
REMARK  status: ('A' for Active; 'I' for Inactive)
REMARK    1  A    between atoms: C_1  and  O_2
REMARK    2  A    between atoms: O_2  and  C_3
REMARK    3  A    between atoms: C_17  and  C_18
REMARK                            x       y       z     vdW  Elec       q    Type
REMARK                         _______ _______ _______ _____ _____    ______ ____
ROOT
ATOM      1  C   UNL     1       0.085  13.517  20.207  0.00  0.00    +0.000 A 
ATOM      2  C   UNL     1       0.659  13.697  18.951  0.00  0.00    +0.000 A 
ATOM      3  C   UNL     1       1.233  12.616  18.288  0.00  0.00    +0.000 A 
ATOM      4  C   UNL     1       1.238  11.349  18.874  0.00  0.00    +0.000 A 
ATOM      5  C   UNL     1       0.667  11.139  20.129  0.00  0.00    +0.000 A 
ATOM      6  C   UNL     1       0.091  12.243  20.788  0.00  0.00    +0.000 A 
ATOM      7  C   UNL     1       0.682   9.753  20.758  0.00  0.00    +0.000 C 
ATOM      8  C   UNL     1      -0.753   9.248  21.025  0.00  0.00    +0.000 C 
ATOM      9  O   UNL     1      -0.824   9.033  22.435  0.00  0.00    +0.000 OA
ATOM     10  C   UNL     1       0.386   9.391  22.913  0.00  0.00    +0.000 C 
ATOM     11  N   UNL     1       0.499   9.254  24.245  0.00  0.00    +0.000 N 
ATOM     12  N   UNL     1       1.293   9.825  22.111  0.00  0.00    +0.000 NA
ATOM     13  C   UNL     1       1.460   8.754  19.911  0.00  0.00    +0.000 A 
ATOM     14  C   UNL     1       1.678   7.431  20.354  0.00  0.00    +0.000 A 
ATOM     15  C   UNL     1       2.414   6.492  19.605  0.00  0.00    +0.000 A 
ATOM     16  C   UNL     1       2.938   6.922  18.376  0.00  0.00    +0.000 A 
ATOM     17  C   UNL     1       2.723   8.222  17.915  0.00  0.00    +0.000 A 
ATOM     18  C   UNL     1       1.988   9.127  18.679  0.00  0.00    +0.000 A 
ATOM     19  O   UNL     1       1.838  10.371  18.128  0.00  0.00    +0.000 OA
ATOM     20  H   UNL     1      -0.375   9.273  24.753  0.00  0.00    +0.000 HD
ATOM     21  H   UNL     1       1.244   9.807  24.651  0.00  0.00    +0.000 HD
ENDROOT
BRANCH  15  22
ATOM     22  C   UNL     1       2.619   5.117  20.093  0.00  0.00    +0.000 A 
ATOM     23  C   UNL     1       2.026   4.616  21.243  0.00  0.00    +0.000 A 
ATOM     24  N   UNL     1       2.198   3.364  21.725  0.00  0.00    +0.000 NA
ATOM     25  C   UNL     1       3.015   2.579  21.014  0.00  0.00    +0.000 A 
ATOM     26  N   UNL     1       3.654   2.926  19.889  0.00  0.00    +0.000 NA
ATOM     27  C   UNL     1       3.432   4.189  19.458  0.00  0.00    +0.000 A 
ENDBRANCH  15  22
BRANCH   1  29
ATOM     28  C   UNL     1      -0.649  14.226  22.347  0.00  0.00    +0.000 C 
ATOM     29  O   UNL     1      -0.511  14.494  20.955  0.00  0.00    +0.000 OA
ENDBRANCH   1  29
TORSDOF 2
ENDMDL
MODEL 4
REMARK VINA RESULT:      -6.9      2.713      7.395
REMARK  Name = 
REMARK  3 active torsions:
REMARK  status: ('A' for Active; 'I' for Inactive)
REMARK    1  A    between atoms: C_1  and  O_2
REMARK    2  A    between atoms: O_2  and  C_3
REMARK    3  A    between atoms: C_17  and  C_18
REMARK                            x       y       z     vdW  Elec       q    Type
REMARK                         _______ _______ _______ _____ _____    ______ ____
ROOT
ATOM      1  C   UNL     1       3.054   7.577  17.896  0.00  0.00    +0.000 A 
ATOM      2  C   UNL     1       3.047   6.582  18.870  0.00  0.00    +0.000 A 
ATOM      3  C   UNL     1       2.305   6.755  20.035  0.00  0.00    +0.000 A 
ATOM      4  C   UNL     1       1.566   7.923  20.235  0.00  0.00    +0.000 A 
ATOM      5  C   UNL     1       1.552   8.934  19.275  0.00  0.00    +0.000 A 
ATOM      6  C   UNL     1       2.310   8.744  18.102  0.00  0.00    +0.000 A 
ATOM      7  C   UNL     1       0.745  10.203  19.506  0.00  0.00    +0.000 C 
ATOM      8  C   UNL     1      -0.324  10.391  18.408  0.00  0.00    +0.000 C 
ATOM      9  O   UNL     1      -0.011  11.636  17.783  0.00  0.00    +0.000 OA
ATOM     10  C   UNL     1       1.094  12.085  18.412  0.00  0.00    +0.000 C 
ATOM     11  N   UNL     1       1.538  13.264  17.943  0.00  0.00    +0.000 N 
ATOM     12  N   UNL     1       1.627  11.391  19.354  0.00  0.00    +0.000 NA
ATOM     13  C   UNL     1       0.110  10.226  20.891  0.00  0.00    +0.000 A 
ATOM     14  C   UNL     1      -0.607  11.353  21.349  0.00  0.00    +0.000 A 
ATOM     15  C   UNL     1      -1.185  11.414  22.633  0.00  0.00    +0.000 A 
ATOM     16  C   UNL     1      -1.020  10.294  23.462  0.00  0.00    +0.000 A 
ATOM     17  C   UNL     1      -0.327   9.165  23.023  0.00  0.00    +0.000 A 
ATOM     18  C   UNL     1       0.231   9.136  21.746  0.00  0.00    +0.000 A 
ATOM     19  O   UNL     1       0.886   7.978  21.422  0.00  0.00    +0.000 OA
ATOM     20  H   UNL     1       1.259  13.480  16.996  0.00  0.00    +0.000 HD
ATOM     21  H   UNL     1       2.510  13.450  18.158  0.00  0.00    +0.000 HD
ENDROOT
BRANCH  15  22
ATOM     22  C   UNL     1      -1.932  12.603  23.079  0.00  0.00    +0.000 A 
ATOM     23  C   UNL     1      -3.315  12.648  23.174  0.00  0.00    +0.000 A 
ATOM     24  N   UNL     1      -4.033  13.723  23.569  0.00  0.00    +0.000 NA
ATOM     25  C   UNL     1      -3.319  14.811  23.881  0.00  0.00    +0.000 A 
ATOM     26  N   UNL     1      -1.985  14.913  23.837  0.00  0.00    +0.000 NA
ATOM     27  C   UNL     1      -1.327  13.799  23.440  0.00  0.00    +0.000 A 
ENDBRANCH  15  22
BRANCH   1  29
ATOM     28  C   UNL     1       4.862   6.652  16.671  0.00  0.00    +0.000 C 
ATOM     29  O   UNL     1       3.738   7.524  16.712  0.00  0.00    +0.000 OA
ENDBRANCH   1  29
TORSDOF 2
ENDMDL
MODEL 5
REMARK VINA RESULT:      -6.8      3.611      5.475
REMARK  Name = 
REMARK  3 active torsions:
REMARK  status: ('A' for Active; 'I' for Inactive)
REMARK    1  A    between atoms: C_1  and  O_2
REMARK    2  A    between atoms: O_2  and  C_3
REMARK    3  A    between atoms: C_17  and  C_18
REMARK                            x       y       z     vdW  Elec       q    Type
REMARK                         _______ _______ _______ _____ _____    ______ ____
ROOT
ATOM      1  C   UNL     1      -1.561  15.265  25.234  0.00  0.00    +0.000 A 
ATOM      2  C   UNL     1      -2.916  15.533  25.410  0.00  0.00    +0.000 A 
ATOM      3  C   UNL     1      -3.845  15.055  24.489  0.00  0.00    +0.000 A 
ATOM      4  C   UNL     1      -3.426  14.307  23.387  0.00  0.00    +0.000 A 
ATOM      5  C   UNL     1      -2.076  14.020  23.188  0.00  0.00    +0.000 A 
ATOM      6  C   UNL     1      -1.148  14.513  24.128  0.00  0.00    +0.000 A 
ATOM      7  C   UNL     1      -1.632  13.206  21.981  0.00  0.00    +0.000 C 
ATOM      8  C   UNL     1      -0.909  11.913  22.417  0.00  0.00    +0.000 C 
ATOM      9  O   UNL     1       0.401  12.003  21.857  0.00  0.00    +0.000 OA
ATOM     10  C   UNL     1       0.436  13.190  21.216  0.00  0.00    +0.000 C 
ATOM     11  N   UNL     1       1.615  13.446  20.624  0.00  0.00    +0.000 N 
ATOM     12  N   UNL     1      -0.596  13.957  21.225  0.00  0.00    +0.000 NA
ATOM     13  C   UNL     1      -2.797  12.889  21.052  0.00  0.00    +0.000 A 
ATOM     14  C   UNL     1      -2.594  12.222  19.824  0.00  0.00    +0.000 A 
ATOM     15  C   UNL     1      -3.648  11.936  18.933  0.00  0.00    +0.000 A 
ATOM     16  C   UNL     1      -4.935  12.347  19.311  0.00  0.00    +0.000 A 
ATOM     17  C   UNL     1      -5.158  12.997  20.526  0.00  0.00    +0.000 A 
ATOM     18  C   UNL     1      -4.094  13.262  21.388  0.00  0.00    +0.000 A 
ATOM     19  O   UNL     1      -4.430  13.901  22.550  0.00  0.00    +0.000 OA
ATOM     20  H   UNL     1       2.407  12.954  21.015  0.00  0.00    +0.000 HD
ATOM     21  H   UNL     1       1.771  14.428  20.433  0.00  0.00    +0.000 HD
ENDROOT
BRANCH  15  22
ATOM     22  C   UNL     1      -3.403  11.233  17.661  0.00  0.00    +0.000 A 
ATOM     23  C   UNL     1      -2.342  10.363  17.459  0.00  0.00    +0.000 A 
ATOM     24  N   UNL     1      -2.081   9.709  16.304  0.00  0.00    +0.000 NA
ATOM     25  C   UNL     1      -2.933   9.948  15.301  0.00  0.00    +0.000 A 
ATOM     26  N   UNL     1      -3.997  10.760  15.351  0.00  0.00    +0.000 NA
ATOM     27  C   UNL     1      -4.204  11.377  16.537  0.00  0.00    +0.000 A 
ENDBRANCH  15  22
BRANCH   1  29
ATOM     28  C   UNL     1      -0.698  16.971  26.636  0.00  0.00    +0.000 C 
ATOM     29  O   UNL     1      -0.556  15.674  26.067  0.00  0.00    +0.000 OA
ENDBRANCH   1  29
TORSDOF 2
ENDMDL
MODEL 6
REMARK VINA RESULT:      -6.6      3.573      7.247
REMARK  Name = 
REMARK  3 active torsions:
REMARK  status: ('A' for Active; 'I' for Inactive)
REMARK    1  A    between atoms: C_1  and  O_2
REMARK    2  A    between atoms: O_2  and  C_3
REMARK    3  A    between atoms: C_17  and  C_18
REMARK                            x       y       z     vdW  Elec       q    Type
REMARK                         _______ _______ _______ _____ _____    ______ ____
ROOT
ATOM      1  C   UNL     1       3.534  14.271  19.232  0.00  0.00    +0.000 A 
ATOM      2  C   UNL     1       3.902  15.029  20.341  0.00  0.00    +0.000 A 
ATOM      3  C   UNL     1       3.020  15.171  21.409  0.00  0.00    +0.000 A 
ATOM      4  C   UNL     1       1.765  14.559  21.376  0.00  0.00    +0.000 A 
ATOM      5  C   UNL     1       1.372  13.792  20.280  0.00  0.00    +0.000 A 
ATOM      6  C   UNL     1       2.276  13.658  19.206  0.00  0.00    +0.000 A 
ATOM      7  C   UNL     1       0.002  13.131  20.255  0.00  0.00    +0.000 C 
ATOM      8  C   UNL     1       0.124  11.597  20.136  0.00  0.00    +0.000 C 
ATOM      9  O   UNL     1      -0.552  11.254  18.926  0.00  0.00    +0.000 OA
ATOM     10  C   UNL     1      -0.978  12.425  18.410  0.00  0.00    +0.000 C 
ATOM     11  N   UNL     1      -1.643  12.291  17.250  0.00  0.00    +0.000 N 
ATOM     12  N   UNL     1      -0.722  13.529  19.019  0.00  0.00    +0.000 NA
ATOM     13  C   UNL     1      -0.835  13.516  21.470  0.00  0.00    +0.000 A 
ATOM     14  C   UNL     1      -2.174  13.090  21.601  0.00  0.00    +0.000 A 
ATOM     15  C   UNL     1      -2.980  13.449  22.700  0.00  0.00    +0.000 A 
ATOM     16  C   UNL     1      -2.397  14.265  23.681  0.00  0.00    +0.000 A 
ATOM     17  C   UNL     1      -1.071  14.686  23.576  0.00  0.00    +0.000 A 
ATOM     18  C   UNL     1      -0.299  14.311  22.477  0.00  0.00    +0.000 A 
ATOM     19  O   UNL     1       0.987  14.780  22.480  0.00  0.00    +0.000 OA
ATOM     20  H   UNL     1      -1.433  11.450  16.731  0.00  0.00    +0.000 HD
ATOM     21  H   UNL     1      -1.677  13.139  16.697  0.00  0.00    +0.000 HD
ENDROOT
BRANCH  15  22
ATOM     22  C   UNL     1      -4.374  12.982  22.810  0.00  0.00    +0.000 A 
ATOM     23  C   UNL     1      -5.172  12.688  21.715  0.00  0.00    +0.000 A 
ATOM     24  N   UNL     1      -6.456  12.268  21.778  0.00  0.00    +0.000 NA
ATOM     25  C   UNL     1      -6.961  12.141  23.010  0.00  0.00    +0.000 A 
ATOM     26  N   UNL     1      -6.311  12.388  24.154  0.00  0.00    +0.000 NA
ATOM     27  C   UNL     1      -5.029  12.799  24.020  0.00  0.00    +0.000 A 
ENDBRANCH  15  22
BRANCH   1  29
ATOM     28  C   UNL     1       5.495  14.835  18.025  0.00  0.00    +0.000 C 
ATOM     29  O   UNL     1       4.309  14.054  18.126  0.00  0.00    +0.000 OA
ENDBRANCH   1  29
TORSDOF 2
ENDMDL
MODEL 7
REMARK VINA RESULT:      -6.5      2.556      4.298
REMARK  Name = 
REMARK  3 active torsions:
REMARK  status: ('A' for Active; 'I' for Inactive)
REMARK    1  A    between atoms: C_1  and  O_2
REMARK    2  A    between atoms: O_2  and  C_3
REMARK    3  A    between atoms: C_17  and  C_18
REMARK                            x       y       z     vdW  Elec       q    Type
REMARK                         _______ _______ _______ _____ _____    ______ ____
ROOT
ATOM      1  C   UNL     1      -1.116  13.369  20.715  0.00  0.00    +0.000 A 
ATOM      2  C   UNL     1      -0.840  13.732  19.400  0.00  0.00    +0.000 A 
ATOM      3  C   UNL     1      -0.177  12.843  18.558  0.00  0.00    +0.000 A 
ATOM      4  C   UNL     1       0.215  11.587  19.024  0.00  0.00    +0.000 A 
ATOM      5  C   UNL     1      -0.052  11.195  20.335  0.00  0.00    +0.000 A 
ATOM      6  C   UNL     1      -0.723  12.107  21.176  0.00  0.00    +0.000 A 
ATOM      7  C   UNL     1       0.382   9.824  20.832  0.00  0.00    +0.000 C 
ATOM      8  C   UNL     1      -0.832   8.990  21.297  0.00  0.00    +0.000 C 
ATOM      9  O   UNL     1      -0.590   8.702  22.674  0.00  0.00    +0.000 OA
ATOM     10  C   UNL     1       0.579   9.307  22.967  0.00  0.00    +0.000 C 
ATOM     11  N   UNL     1       0.966   9.141  24.243  0.00  0.00    +0.000 N 
ATOM     12  N   UNL     1       1.204   9.975  22.062  0.00  0.00    +0.000 NA
ATOM     13  C   UNL     1       1.188   9.070  19.782  0.00  0.00    +0.000 A 
ATOM     14  C   UNL     1       1.769   7.815  20.066  0.00  0.00    +0.000 A 
ATOM     15  C   UNL     1       2.540   7.105  19.124  0.00  0.00    +0.000 A 
ATOM     16  C   UNL     1       2.719   7.699  17.866  0.00  0.00    +0.000 A 
ATOM     17  C   UNL     1       2.143   8.933  17.561  0.00  0.00    +0.000 A 
ATOM     18  C   UNL     1       1.383   9.609  18.514  0.00  0.00    +0.000 A 
ATOM     19  O   UNL     1       0.865  10.808  18.105  0.00  0.00    +0.000 OA
ATOM     20  H   UNL     1       0.219   8.936  24.894  0.00  0.00    +0.000 HD
ATOM     21  H   UNL     1       1.634   9.833  24.561  0.00  0.00    +0.000 HD
ENDROOT
BRANCH  15  22
ATOM     22  C   UNL     1       3.128   5.794  19.451  0.00  0.00    +0.000 A 
ATOM     23  C   UNL     1       4.430   5.437  19.131  0.00  0.00    +0.000 A 
ATOM     24  N   UNL     1       4.999   4.241  19.405  0.00  0.00    +0.000 NA
ATOM     25  C   UNL     1       4.212   3.358  20.032  0.00  0.00    +0.000 A 
ATOM     26  N   UNL     1       2.942   3.563  20.401  0.00  0.00    +0.000 NA
ATOM     27  C   UNL     1       2.437   4.782  20.103  0.00  0.00    +0.000 A 
ENDBRANCH  15  22
BRANCH   1  29
ATOM     28  C   UNL     1      -1.505  13.850  23.004  0.00  0.00    +0.000 C 
ATOM     29  O   UNL     1      -1.762  14.148  21.636  0.00  0.00    +0.000 OA
ENDBRANCH   1  29
TORSDOF 2
ENDMDL
MODEL 8
REMARK VINA RESULT:      -6.5      2.762      7.422
REMARK  Name = 
REMARK  3 active torsions:
REMARK  status: ('A' for Active; 'I' for Inactive)
REMARK    1  A    between atoms: C_1  and  O_2
REMARK    2  A    between atoms: O_2  and  C_3
REMARK    3  A    between atoms: C_17  and  C_18
REMARK                            x       y       z     vdW  Elec       q    Type
REMARK                         _______ _______ _______ _____ _____    ______ ____
ROOT
ATOM      1  C   UNL     1       3.095   6.975  18.177  0.00  0.00    +0.000 A 
ATOM      2  C   UNL     1       2.956   6.051  19.210  0.00  0.00    +0.000 A 
ATOM      3  C   UNL     1       2.172   6.361  20.318  0.00  0.00    +0.000 A 
ATOM      4  C   UNL     1       1.523   7.594  20.402  0.00  0.00    +0.000 A 
ATOM      5  C   UNL     1       1.642   8.536  19.381  0.00  0.00    +0.000 A 
ATOM      6  C   UNL     1       2.440   8.208  18.267  0.00  0.00    +0.000 A 
ATOM      7  C   UNL     1       0.931   9.878  19.486  0.00  0.00    +0.000 C 
ATOM      8  C   UNL     1      -0.061  10.076  18.320  0.00  0.00    +0.000 C 
ATOM      9  O   UNL     1       0.385  11.248  17.636  0.00  0.00    +0.000 OA
ATOM     10  C   UNL     1       1.490  11.649  18.297  0.00  0.00    +0.000 C 
ATOM     11  N   UNL     1       2.053  12.755  17.781  0.00  0.00    +0.000 N 
ATOM     12  N   UNL     1       1.915  10.979  19.310  0.00  0.00    +0.000 NA
ATOM     13  C   UNL     1       0.231  10.044  20.829  0.00  0.00    +0.000 A 
ATOM     14  C   UNL     1      -0.413  11.253  21.174  0.00  0.00    +0.000 A 
ATOM     15  C   UNL     1      -1.048  11.446  22.417  0.00  0.00    +0.000 A 
ATOM     16  C   UNL     1      -1.020  10.375  23.323  0.00  0.00    +0.000 A 
ATOM     17  C   UNL     1      -0.400   9.168  22.995  0.00  0.00    +0.000 A 
ATOM     18  C   UNL     1       0.218   9.008  21.756  0.00  0.00    +0.000 A 
ATOM     19  O   UNL     1       0.791   7.783  21.543  0.00  0.00    +0.000 OA
ATOM     20  H   UNL     1       1.842  12.928  16.807  0.00  0.00    +0.000 HD
ATOM     21  H   UNL     1       3.026  12.876  18.037  0.00  0.00    +0.000 HD
ENDROOT
BRANCH  15  22
ATOM     22  C   UNL     1      -1.716  12.718  22.745  0.00  0.00    +0.000 A 
ATOM     23  C   UNL     1      -1.038  13.853  23.166  0.00  0.00    +0.000 A 
ATOM     24  N   UNL     1      -1.618  15.032  23.484  0.00  0.00    +0.000 NA
ATOM     25  C   UNL     1      -2.951  15.067  23.376  0.00  0.00    +0.000 A 
ATOM     26  N   UNL     1      -3.733  14.054  22.984  0.00  0.00    +0.000 NA
ATOM     27  C   UNL     1      -3.089  12.905  22.674  0.00  0.00    +0.000 A 
ENDBRANCH  15  22
BRANCH   1  29
ATOM     28  C   UNL     1       5.242   6.923  17.172  0.00  0.00    +0.000 C 
ATOM     29  O   UNL     1       3.831   6.789  17.039  0.00  0.00    +0.000 OA
ENDBRANCH   1  29
TORSDOF 2
ENDMDL
MODEL 9
REMARK VINA RESULT:      -6.4      2.485      7.395
REMARK  Name = 
REMARK  3 active torsions:
REMARK  status: ('A' for Active; 'I' for Inactive)
REMARK    1  A    between atoms: C_1  and  O_2
REMARK    2  A    between atoms: O_2  and  C_3
REMARK    3  A    between atoms: C_17  and  C_18
REMARK                            x       y       z     vdW  Elec       q    Type
REMARK                         _______ _______ _______ _____ _____    ______ ____
ROOT
ATOM      1  C   UNL     1       1.992   8.499  18.468  0.00  0.00    +0.000 A 
ATOM      2  C   UNL     1       2.181   7.777  19.643  0.00  0.00    +0.000 A 
ATOM      3  C   UNL     1       1.468   8.118  20.790  0.00  0.00    +0.000 A 
ATOM      4  C   UNL     1       0.564   9.181  20.771  0.00  0.00    +0.000 A 
ATOM      5  C   UNL     1       0.353   9.919  19.606  0.00  0.00    +0.000 A 
ATOM      6  C   UNL     1       1.083   9.563  18.455  0.00  0.00    +0.000 A 
ATOM      7  C   UNL     1      -0.633  11.078  19.599  0.00  0.00    +0.000 C 
ATOM      8  C   UNL     1      -1.762  10.842  18.572  0.00  0.00    +0.000 C 
ATOM      9  O   UNL     1      -1.674  11.932  17.654  0.00  0.00    +0.000 OA
ATOM     10  C   UNL     1      -0.629  12.672  18.075  0.00  0.00    +0.000 C 
ATOM     11  N   UNL     1      -0.395  13.755  17.314  0.00  0.00    +0.000 N 
ATOM     12  N   UNL     1       0.044  12.308  19.109  0.00  0.00    +0.000 NA
ATOM     13  C   UNL     1      -1.208  11.342  20.985  0.00  0.00    +0.000 A 
ATOM     14  C   UNL     1      -2.073  12.432  21.224  0.00  0.00    +0.000 A 
ATOM     15  C   UNL     1      -2.601  12.717  22.499  0.00  0.00    +0.000 A 
ATOM     16  C   UNL     1      -2.230  11.864  23.550  0.00  0.00    +0.000 A 
ATOM     17  C   UNL     1      -1.386  10.774  23.332  0.00  0.00    +0.000 A 
ATOM     18  C   UNL     1      -0.883  10.518  22.057  0.00  0.00    +0.000 A 
ATOM     19  O   UNL     1      -0.068   9.423  21.960  0.00  0.00    +0.000 OA
ATOM     20  H   UNL     1      -0.741  13.695  16.366  0.00  0.00    +0.000 HD
ATOM     21  H   UNL     1       0.545  14.123  17.405  0.00  0.00    +0.000 HD
ENDROOT
BRANCH  15  22
ATOM     22  C   UNL     1      -3.507  13.859  22.714  0.00  0.00    +0.000 A 
ATOM     23  C   UNL     1      -4.767  13.742  23.281  0.00  0.00    +0.000 A 
ATOM     24  N   UNL     1      -5.628  14.765  23.484  0.00  0.00    +0.000 NA
ATOM     25  C   UNL     1      -5.196  15.969  23.089  0.00  0.00    +0.000 A 
ATOM     26  N   UNL     1      -4.009  16.231  22.529  0.00  0.00    +0.000 NA
ATOM     27  C   UNL     1      -3.194  15.164  22.361  0.00  0.00    +0.000 A 
ENDBRANCH  15  22
BRANCH   1  29
ATOM     28  C   UNL     1       3.718   7.348  17.319  0.00  0.00    +0.000 C 
ATOM     29  O   UNL     1       2.627   8.262  17.280  0.00  0.00    +0.000 OA
ENDBRANCH   1  29
TORSDOF 2
ENDMDL
