MODEL 1
REMARK VINA RESULT:      -7.1      0.000      0.000
REMARK  Name = 
REMARK  5 active torsions:
REMARK  status: ('A' for Active; 'I' for Inactive)
REMARK    1  A    between atoms: C_1  and  C_2
REMARK    2  A    between atoms: C_2  and  C_3
REMARK    3  A    between atoms: C_2  and  C_4
REMARK    4  A    between atoms: C_9  and  S_10
REMARK    5  A    between atoms: S_10  and  N_11
REMARK                            x       y       z     vdW  Elec       q    Type
REMARK                         _______ _______ _______ _____ _____    ______ ____
ROOT
ATOM      1  C   UNL     1       5.913   4.460  15.629  0.00  0.00    +0.000 C 
ATOM      2  N   UNL     1       5.104   3.286  16.021  0.00  0.00    +0.000 N 
ATOM      3  C   UNL     1       4.365   3.393  17.209  0.00  0.00    +0.000 A 
ATOM      4  C   UNL     1       3.334   2.478  17.468  0.00  0.00    +0.000 A 
ATOM      5  C   UNL     1       2.647   2.485  18.687  0.00  0.00    +0.000 A 
ATOM      6  C   UNL     1       3.009   3.404  19.669  0.00  0.00    +0.000 A 
ATOM      7  C   UNL     1       4.037   4.311  19.440  0.00  0.00    +0.000 A 
ATOM      8  C   UNL     1       4.733   4.285  18.222  0.00  0.00    +0.000 A 
ATOM      9  C   UNL     1       5.912   5.189  18.061  0.00  0.00    +0.000 C 
ATOM     10  C   UNL     1       5.566   6.640  17.864  0.00  0.00    +0.000 C 
ATOM     11  C   UNL     1       6.492   7.230  17.100  0.00  0.00    +0.000 C 
ATOM     12  C   UNL     1       7.529   6.241  16.668  0.00  0.00    +0.000 C 
ATOM     13  C   UNL     1       6.799   4.893  16.836  0.00  0.00    +0.000 C 
ATOM     14  H   UNL     1       4.525   2.925  15.269  0.00  0.00    +0.000 HD
ENDROOT
BRANCH   1  16
ATOM     15  C   UNL     1       5.860   3.550  13.188  0.00  0.00    +0.000 C 
ATOM     16  C   UNL     1       6.713   4.121  14.325  0.00  0.00    +0.000 C 
ATOM     17  C   UNL     1       7.497   5.336  13.795  0.00  0.00    +0.000 C 
ENDBRANCH   1  16
BRANCH   6  18
ATOM     18  S   UNL     1       2.226   3.388  21.249  0.00  0.00    +0.000 S 
ATOM     19  O   UNL     1       2.781   2.322  22.053  0.00  0.00    +0.000 OA
ATOM     20  O   UNL     1       2.098   4.747  21.735  0.00  0.00    +0.000 OA
BRANCH  18  21
ATOM     21  N   UNL     1       0.682   2.895  20.820  0.00  0.00    +0.000 NA
ATOM     22  H   UNL     1       0.210   3.618  20.277  0.00  0.00    +0.000 HD
ATOM     23  H   UNL     1       0.707   1.974  20.386  0.00  0.00    +0.000 HD
ENDBRANCH  18  21
ENDBRANCH   6  18
TORSDOF 3
ENDMDL
MODEL 2
REMARK VINA RESULT:      -7.1      4.284      6.688
REMARK  Name = 
REMARK  5 active torsions:
REMARK  status: ('A' for Active; 'I' for Inactive)
REMARK    1  A    between atoms: C_1  and  C_2
REMARK    2  A    between atoms: C_2  and  C_3
REMARK    3  A    between atoms: C_2  and  C_4
REMARK    4  A    between atoms: C_9  and  S_10
REMARK    5  A    between atoms: S_10  and  N_11
REMARK                            x       y       z     vdW  Elec       q    Type
REMARK                         _______ _______ _______ _____ _____    ______ ____
ROOT
ATOM      1  C   UNL     1       1.742   7.039  19.419  0.00  0.00    +0.000 C 
ATOM      2  N   UNL     1       2.798   7.748  18.664  0.00  0.00    +0.000 N 
ATOM      3  C   UNL     1       3.648   6.962  17.871  0.00  0.00    +0.000 A 
ATOM      4  C   UNL     1       4.436   7.572  16.884  0.00  0.00    +0.000 A 
ATOM      5  C   UNL     1       5.374   6.839  16.148  0.00  0.00    +0.000 A 
ATOM      6  C   UNL     1       5.542   5.483  16.416  0.00  0.00    +0.000 A 
ATOM      7  C   UNL     1       4.781   4.859  17.398  0.00  0.00    +0.000 A 
ATOM      8  C   UNL     1       3.856   5.606  18.145  0.00  0.00    +0.000 A 
ATOM      9  C   UNL     1       3.150   4.931  19.275  0.00  0.00    +0.000 C 
ATOM     10  C   UNL     1       2.073   3.967  18.854  0.00  0.00    +0.000 C 
ATOM     11  C   UNL     1       1.104   3.935  19.776  0.00  0.00    +0.000 C 
ATOM     12  C   UNL     1       1.398   4.897  20.885  0.00  0.00    +0.000 C 
ATOM     13  C   UNL     1       2.391   5.876  20.228  0.00  0.00    +0.000 C 
ATOM     14  H   UNL     1       2.453   8.546  18.138  0.00  0.00    +0.000 HD
ENDROOT
BRANCH   1  16
ATOM     15  C   UNL     1       1.572   8.351  21.664  0.00  0.00    +0.000 C 
ATOM     16  C   UNL     1       0.952   8.074  20.291  0.00  0.00    +0.000 C 
ATOM     17  C   UNL     1       0.750   9.413  19.558  0.00  0.00    +0.000 C 
ENDBRANCH   1  16
BRANCH   6  18
ATOM     18  S   UNL     1       6.771   4.544  15.571  0.00  0.00    +0.000 S 
ATOM     19  O   UNL     1       6.200   3.292  15.125  0.00  0.00    +0.000 OA
ATOM     20  O   UNL     1       7.522   5.417  14.691  0.00  0.00    +0.000 OA
BRANCH  18  21
ATOM     21  N   UNL     1       7.795   4.164  16.843  0.00  0.00    +0.000 NA
ATOM     22  H   UNL     1       8.230   5.006  17.220  0.00  0.00    +0.000 HD
ATOM     23  H   UNL     1       7.317   3.581  17.527  0.00  0.00    +0.000 HD
ENDBRANCH  18  21
ENDBRANCH   6  18
TORSDOF 3
ENDMDL
MODEL 3
REMARK VINA RESULT:      -7.1      3.777      5.768
REMARK  Name = 
REMARK  5 active torsions:
REMARK  status: ('A' for Active; 'I' for Inactive)
REMARK    1  A    between atoms: C_1  and  C_2
REMARK    2  A    between atoms: C_2  and  C_3
REMARK    3  A    between atoms: C_2  and  C_4
REMARK    4  A    between atoms: C_9  and  S_10
REMARK    5  A    between atoms: S_10  and  N_11
REMARK                            x       y       z     vdW  Elec       q    Type
REMARK                         _______ _______ _______ _____ _____    ______ ____
ROOT
ATOM      1  C   UNL     1       2.963   4.018  18.592  0.00  0.00    +0.000 C 
ATOM      2  N   UNL     1       2.757   5.382  18.059  0.00  0.00    +0.000 N 
ATOM      3  C   UNL     1       2.338   6.363  18.969  0.00  0.00    +0.000 A 
ATOM      4  C   UNL     1       2.445   7.719  18.626  0.00  0.00    +0.000 A 
ATOM      5  C   UNL     1       1.939   8.721  19.461  0.00  0.00    +0.000 A 
ATOM      6  C   UNL     1       1.298   8.364  20.645  0.00  0.00    +0.000 A 
ATOM      7  C   UNL     1       1.168   7.026  20.999  0.00  0.00    +0.000 A 
ATOM      8  C   UNL     1       1.661   6.027  20.147  0.00  0.00    +0.000 A 
ATOM      9  C   UNL     1       1.391   4.600  20.499  0.00  0.00    +0.000 C 
ATOM     10  C   UNL     1       2.215   4.071  21.642  0.00  0.00    +0.000 C 
ATOM     11  C   UNL     1       2.438   2.762  21.476  0.00  0.00    +0.000 C 
ATOM     12  C   UNL     1       1.832   2.282  20.194  0.00  0.00    +0.000 C 
ATOM     13  C   UNL     1       1.690   3.583  19.380  0.00  0.00    +0.000 C 
ATOM     14  H   UNL     1       3.535   5.720  17.500  0.00  0.00    +0.000 HD
ENDROOT
BRANCH   1  16
ATOM     15  C   UNL     1       4.482   3.587  16.518  0.00  0.00    +0.000 C 
ATOM     16  C   UNL     1       3.357   3.060  17.416  0.00  0.00    +0.000 C 
ATOM     17  C   UNL     1       3.740   1.655  17.917  0.00  0.00    +0.000 C 
ENDBRANCH   1  16
BRANCH   6  18
ATOM     18  S   UNL     1       0.573   9.592  21.681  0.00  0.00    +0.000 S 
ATOM     19  O   UNL     1       0.781  10.900  21.099  0.00  0.00    +0.000 OA
ATOM     20  O   UNL     1      -0.726   9.135  22.131  0.00  0.00    +0.000 OA
BRANCH  18  21
ATOM     21  N   UNL     1       1.588   9.507  23.013  0.00  0.00    +0.000 NA
ATOM     22  H   UNL     1       1.263  10.128  23.754  0.00  0.00    +0.000 HD
ATOM     23  H   UNL     1       1.734   8.539  23.292  0.00  0.00    +0.000 HD
ENDBRANCH  18  21
ENDBRANCH   6  18
TORSDOF 3
ENDMDL
MODEL 4
REMARK VINA RESULT:      -7.0      3.825      5.739
REMARK  Name = 
REMARK  5 active torsions:
REMARK  status: ('A' for Active; 'I' for Inactive)
REMARK    1  A    between atoms: C_1  and  C_2
REMARK    2  A    between atoms: C_2  and  C_3
REMARK    3  A    between atoms: C_2  and  C_4
REMARK    4  A    between atoms: C_9  and  S_10
REMARK    5  A    between atoms: S_10  and  N_11
REMARK                            x       y       z     vdW  Elec       q    Type
REMARK                         _______ _______ _______ _____ _____    ______ ____
ROOT
ATOM      1  C   UNL     1       3.025   4.117  18.579  0.00  0.00    +0.000 C 
ATOM      2  N   UNL     1       2.802   5.465  18.015  0.00  0.00    +0.000 N 
ATOM      3  C   UNL     1       2.336   6.453  18.895  0.00  0.00    +0.000 A 
ATOM      4  C   UNL     1       2.421   7.804  18.529  0.00  0.00    +0.000 A 
ATOM      5  C   UNL     1       1.870   8.810  19.332  0.00  0.00    +0.000 A 
ATOM      6  C   UNL     1       1.205   8.459  20.504  0.00  0.00    +0.000 A 
ATOM      7  C   UNL     1       1.096   7.126  20.880  0.00  0.00    +0.000 A 
ATOM      8  C   UNL     1       1.635   6.122  20.061  0.00  0.00    +0.000 A 
ATOM      9  C   UNL     1       1.388   4.696  20.433  0.00  0.00    +0.000 C 
ATOM     10  C   UNL     1       2.192   4.207  21.607  0.00  0.00    +0.000 C 
ATOM     11  C   UNL     1       2.450   2.902  21.472  0.00  0.00    +0.000 C 
ATOM     12  C   UNL     1       1.891   2.384  20.183  0.00  0.00    +0.000 C 
ATOM     13  C   UNL     1       1.741   3.666  19.341  0.00  0.00    +0.000 C 
ATOM     14  H   UNL     1       3.588   5.811  17.472  0.00  0.00    +0.000 HD
ENDROOT
BRANCH   1  16
ATOM     15  C   UNL     1       4.671   3.641  16.616  0.00  0.00    +0.000 C 
ATOM     16  C   UNL     1       3.473   3.147  17.433  0.00  0.00    +0.000 C 
ATOM     17  C   UNL     1       3.781   1.733  17.959  0.00  0.00    +0.000 C 
ENDBRANCH   1  16
BRANCH   6  18
ATOM     18  S   UNL     1       0.423   9.688  21.497  0.00  0.00    +0.000 S 
ATOM     19  O   UNL     1      -0.426   9.049  22.477  0.00  0.00    +0.000 OA
ATOM     20  O   UNL     1       1.390  10.709  21.848  0.00  0.00    +0.000 OA
BRANCH  18  21
ATOM     21  N   UNL     1      -0.605  10.384  20.370  0.00  0.00    +0.000 NA
ATOM     22  H   UNL     1      -1.531   9.958  20.416  0.00  0.00    +0.000 HD
ATOM     23  H   UNL     1      -0.591  11.399  20.449  0.00  0.00    +0.000 HD
ENDBRANCH  18  21
ENDBRANCH   6  18
TORSDOF 3
ENDMDL
MODEL 5
REMARK VINA RESULT:      -6.9      4.165      6.814
REMARK  Name = 
REMARK  5 active torsions:
REMARK  status: ('A' for Active; 'I' for Inactive)
REMARK    1  A    between atoms: C_1  and  C_2
REMARK    2  A    between atoms: C_2  and  C_3
REMARK    3  A    between atoms: C_2  and  C_4
REMARK    4  A    between atoms: C_9  and  S_10
REMARK    5  A    between atoms: S_10  and  N_11
REMARK                            x       y       z     vdW  Elec       q    Type
REMARK                         _______ _______ _______ _____ _____    ______ ____
ROOT
ATOM      1  C   UNL     1       1.686   6.446  20.027  0.00  0.00    +0.000 C 
ATOM      2  N   UNL     1       2.697   7.250  19.308  0.00  0.00    +0.000 N 
ATOM      3  C   UNL     1       3.381   6.620  18.257  0.00  0.00    +0.000 A 
ATOM      4  C   UNL     1       4.093   7.394  17.329  0.00  0.00    +0.000 A 
ATOM      5  C   UNL     1       4.873   6.797  16.333  0.00  0.00    +0.000 A 
ATOM      6  C   UNL     1       4.962   5.409  16.276  0.00  0.00    +0.000 A 
ATOM      7  C   UNL     1       4.276   4.621  17.193  0.00  0.00    +0.000 A 
ATOM      8  C   UNL     1       3.510   5.228  18.201  0.00  0.00    +0.000 A 
ATOM      9  C   UNL     1       2.892   4.354  19.243  0.00  0.00    +0.000 C 
ATOM     10  C   UNL     1       1.698   3.567  18.772  0.00  0.00    +0.000 C 
ATOM     11  C   UNL     1       0.847   3.379  19.786  0.00  0.00    +0.000 C 
ATOM     12  C   UNL     1       1.347   4.050  21.027  0.00  0.00    +0.000 C 
ATOM     13  C   UNL     1       2.331   5.098  20.471  0.00  0.00    +0.000 C 
ATOM     14  H   UNL     1       2.358   8.163  19.018  0.00  0.00    +0.000 HD
ENDROOT
BRANCH   1  16
ATOM     15  C   UNL     1       1.874   8.576  21.516  0.00  0.00    +0.000 C 
ATOM     16  C   UNL     1       1.091   7.298  21.200  0.00  0.00    +0.000 C 
ATOM     17  C   UNL     1      -0.384   7.668  20.956  0.00  0.00    +0.000 C 
ENDBRANCH   1  16
BRANCH   6  18
ATOM     18  S   UNL     1       6.002   4.621  15.090  0.00  0.00    +0.000 S 
ATOM     19  O   UNL     1       5.247   4.360  13.884  0.00  0.00    +0.000 OA
ATOM     20  O   UNL     1       7.295   5.274  15.077  0.00  0.00    +0.000 OA
BRANCH  18  21
ATOM     21  N   UNL     1       6.234   3.133  15.827  0.00  0.00    +0.000 NA
ATOM     22  H   UNL     1       7.228   2.948  15.960  0.00  0.00    +0.000 HD
ATOM     23  H   UNL     1       5.662   3.054  16.666  0.00  0.00    +0.000 HD
ENDBRANCH  18  21
ENDBRANCH   6  18
TORSDOF 3
ENDMDL
MODEL 6
REMARK VINA RESULT:      -6.8      6.231      8.065
REMARK  Name = 
REMARK  5 active torsions:
REMARK  status: ('A' for Active; 'I' for Inactive)
REMARK    1  A    between atoms: C_1  and  C_2
REMARK    2  A    between atoms: C_2  and  C_3
REMARK    3  A    between atoms: C_2  and  C_4
REMARK    4  A    between atoms: C_9  and  S_10
REMARK    5  A    between atoms: S_10  and  N_11
REMARK                            x       y       z     vdW  Elec       q    Type
REMARK                         _______ _______ _______ _____ _____    ______ ____
ROOT
ATOM      1  C   UNL     1      -0.173  10.980  19.947  0.00  0.00    +0.000 C 
ATOM      2  N   UNL     1       0.709  10.534  18.847  0.00  0.00    +0.000 N 
ATOM      3  C   UNL     1       1.264   9.250  18.958  0.00  0.00    +0.000 A 
ATOM      4  C   UNL     1       1.822   8.635  17.827  0.00  0.00    +0.000 A 
ATOM      5  C   UNL     1       2.480   7.404  17.922  0.00  0.00    +0.000 A 
ATOM      6  C   UNL     1       2.602   6.789  19.165  0.00  0.00    +0.000 A 
ATOM      7  C   UNL     1       2.069   7.386  20.301  0.00  0.00    +0.000 A 
ATOM      8  C   UNL     1       1.427   8.630  20.202  0.00  0.00    +0.000 A 
ATOM      9  C   UNL     1       0.981   9.298  21.461  0.00  0.00    +0.000 C 
ATOM     10  C   UNL     1      -0.241   8.688  22.094  0.00  0.00    +0.000 C 
ATOM     11  C   UNL     1      -0.943   9.631  22.733  0.00  0.00    +0.000 C 
ATOM     12  C   UNL     1      -0.301  10.973  22.563  0.00  0.00    +0.000 C 
ATOM     13  C   UNL     1       0.567  10.775  21.304  0.00  0.00    +0.000 C 
ATOM     14  H   UNL     1       0.305  10.671  17.924  0.00  0.00    +0.000 HD
ENDROOT
BRANCH   1  16
ATOM     15  C   UNL     1      -0.136  13.035  18.346  0.00  0.00    +0.000 C 
ATOM     16  C   UNL     1      -0.631  12.453  19.673  0.00  0.00    +0.000 C 
ATOM     17  C   UNL     1      -2.162  12.604  19.740  0.00  0.00    +0.000 C 
ENDBRANCH   1  16
BRANCH   6  18
ATOM     18  S   UNL     1       3.497   5.280  19.338  0.00  0.00    +0.000 S 
ATOM     19  O   UNL     1       4.914   5.565  19.416  0.00  0.00    +0.000 OA
ATOM     20  O   UNL     1       2.820   4.426  20.292  0.00  0.00    +0.000 OA
BRANCH  18  21
ATOM     21  N   UNL     1       3.241   4.596  17.829  0.00  0.00    +0.000 NA
ATOM     22  H   UNL     1       3.900   3.836  17.660  0.00  0.00    +0.000 HD
ATOM     23  H   UNL     1       2.259   4.353  17.707  0.00  0.00    +0.000 HD
ENDBRANCH  18  21
ENDBRANCH   6  18
TORSDOF 3
ENDMDL
MODEL 7
REMARK VINA RESULT:      -6.7      5.771      7.630
REMARK  Name = 
REMARK  5 active torsions:
REMARK  status: ('A' for Active; 'I' for Inactive)
REMARK    1  A    between atoms: C_1  and  C_2
REMARK    2  A    between atoms: C_2  and  C_3
REMARK    3  A    between atoms: C_2  and  C_4
REMARK    4  A    between atoms: C_9  and  S_10
REMARK    5  A    between atoms: S_10  and  N_11
REMARK                            x       y       z     vdW  Elec       q    Type
REMARK                         _______ _______ _______ _____ _____    ______ ____
ROOT
ATOM      1  C   UNL     1       0.340  10.646  19.765  0.00  0.00    +0.000 C 
ATOM      2  N   UNL     1       1.308  10.226  18.729  0.00  0.00    +0.000 N 
ATOM      3  C   UNL     1       1.768   8.902  18.790  0.00  0.00    +0.000 A 
ATOM      4  C   UNL     1       2.408   8.338  17.676  0.00  0.00    +0.000 A 
ATOM      5  C   UNL     1       2.976   7.061  17.735  0.00  0.00    +0.000 A 
ATOM      6  C   UNL     1       2.923   6.345  18.929  0.00  0.00    +0.000 A 
ATOM      7  C   UNL     1       2.307   6.889  20.049  0.00  0.00    +0.000 A 
ATOM      8  C   UNL     1       1.756   8.178  19.987  0.00  0.00    +0.000 A 
ATOM      9  C   UNL     1       1.216   8.778  21.245  0.00  0.00    +0.000 C 
ATOM     10  C   UNL     1      -0.103   8.207  21.694  0.00  0.00    +0.000 C 
ATOM     11  C   UNL     1      -0.812   9.145  22.332  0.00  0.00    +0.000 C 
ATOM     12  C   UNL     1      -0.075  10.448  22.343  0.00  0.00    +0.000 C 
ATOM     13  C   UNL     1       0.912  10.288  21.170  0.00  0.00    +0.000 C 
ATOM     14  H   UNL     1       1.017  10.461  17.784  0.00  0.00    +0.000 HD
ENDROOT
BRANCH   1  16
ATOM     15  C   UNL     1       1.113  12.976  18.890  0.00  0.00    +0.000 C 
ATOM     16  C   UNL     1       0.005  12.164  19.569  0.00  0.00    +0.000 C 
ATOM     17  C   UNL     1      -1.309  12.371  18.792  0.00  0.00    +0.000 C 
ENDBRANCH   1  16
BRANCH   6  18
ATOM     18  S   UNL     1       3.701   4.769  19.068  0.00  0.00    +0.000 S 
ATOM     19  O   UNL     1       3.238   4.106  20.267  0.00  0.00    +0.000 OA
ATOM     20  O   UNL     1       3.711   4.122  17.771  0.00  0.00    +0.000 OA
BRANCH  18  21
ATOM     21  N   UNL     1       5.283   5.234  19.373  0.00  0.00    +0.000 NA
ATOM     22  H   UNL     1       5.378   5.586  20.325  0.00  0.00    +0.000 HD
ATOM     23  H   UNL     1       5.931   4.491  19.119  0.00  0.00    +0.000 HD
ENDBRANCH  18  21
ENDBRANCH   6  18
TORSDOF 3
ENDMDL
MODEL 8
REMARK VINA RESULT:      -6.7      3.875      5.705
REMARK  Name = 
REMARK  5 active torsions:
REMARK  status: ('A' for Active; 'I' for Inactive)
REMARK    1  A    between atoms: C_1  and  C_2
REMARK    2  A    between atoms: C_2  and  C_3
REMARK    3  A    between atoms: C_2  and  C_4
REMARK    4  A    between atoms: C_9  and  S_10
REMARK    5  A    between atoms: S_10  and  N_11
REMARK                            x       y       z     vdW  Elec       q    Type
REMARK                         _______ _______ _______ _____ _____    ______ ____
ROOT
ATOM      1  C   UNL     1       3.293   4.185  18.720  0.00  0.00    +0.000 C 
ATOM      2  N   UNL     1       3.020   5.503  18.107  0.00  0.00    +0.000 N 
ATOM      3  C   UNL     1       2.425   6.473  18.927  0.00  0.00    +0.000 A 
ATOM      4  C   UNL     1       2.444   7.820  18.535  0.00  0.00    +0.000 A 
ATOM      5  C   UNL     1       1.768   8.800  19.270  0.00  0.00    +0.000 A 
ATOM      6  C   UNL     1       1.045   8.427  20.400  0.00  0.00    +0.000 A 
ATOM      7  C   UNL     1       1.000   7.097  20.801  0.00  0.00    +0.000 A 
ATOM      8  C   UNL     1       1.665   6.117  20.047  0.00  0.00    +0.000 A 
ATOM      9  C   UNL     1       1.490   4.686  20.436  0.00  0.00    +0.000 C 
ATOM     10  C   UNL     1       2.238   4.278  21.677  0.00  0.00    +0.000 C 
ATOM     11  C   UNL     1       2.593   2.991  21.593  0.00  0.00    +0.000 C 
ATOM     12  C   UNL     1       2.166   2.409  20.281  0.00  0.00    +0.000 C 
ATOM     13  C   UNL     1       1.991   3.661  19.398  0.00  0.00    +0.000 C 
ATOM     14  H   UNL     1       3.818   5.892  17.613  0.00  0.00    +0.000 HD
ENDROOT
BRANCH   1  16
ATOM     15  C   UNL     1       2.844   2.398  16.877  0.00  0.00    +0.000 C 
ATOM     16  C   UNL     1       3.889   3.227  17.633  0.00  0.00    +0.000 C 
ATOM     17  C   UNL     1       4.758   3.981  16.610  0.00  0.00    +0.000 C 
ENDBRANCH   1  16
BRANCH   6  18
ATOM     18  S   UNL     1       0.111   9.618  21.304  0.00  0.00    +0.000 S 
ATOM     19  O   UNL     1      -0.729  10.365  20.394  0.00  0.00    +0.000 OA
ATOM     20  O   UNL     1      -0.399   9.010  22.517  0.00  0.00    +0.000 OA
BRANCH  18  21
ATOM     21  N   UNL     1       1.330  10.666  21.780  0.00  0.00    +0.000 NA
ATOM     22  H   UNL     1       2.205  10.440  21.308  0.00  0.00    +0.000 HD
ATOM     23  H   UNL     1       1.027  11.634  21.690  0.00  0.00    +0.000 HD
ENDBRANCH  18  21
ENDBRANCH   6  18
TORSDOF 3
ENDMDL
MODEL 9
REMARK VINA RESULT:      -6.7      5.086      6.956
REMARK  Name = 
REMARK  5 active torsions:
REMARK  status: ('A' for Active; 'I' for Inactive)
REMARK    1  A    between atoms: C_1  and  C_2
REMARK    2  A    between atoms: C_2  and  C_3
REMARK    3  A    between atoms: C_2  and  C_4
REMARK    4  A    between atoms: C_9  and  S_10
REMARK    5  A    between atoms: S_10  and  N_11
REMARK                            x       y       z     vdW  Elec       q    Type
REMARK                         _______ _______ _______ _____ _____    ______ ____
ROOT
ATOM      1  C   UNL     1       0.736   9.798  19.125  0.00  0.00    +0.000 C 
ATOM      2  N   UNL     1       1.809   9.361  18.206  0.00  0.00    +0.000 N 
ATOM      3  C   UNL     1       2.333   8.076  18.408  0.00  0.00    +0.000 A 
ATOM      4  C   UNL     1       3.094   7.471  17.396  0.00  0.00    +0.000 A 
ATOM      5  C   UNL     1       3.723   6.238  17.601  0.00  0.00    +0.000 A 
ATOM      6  C   UNL     1       3.610   5.611  18.839  0.00  0.00    +0.000 A 
ATOM      7  C   UNL     1       2.872   6.198  19.861  0.00  0.00    +0.000 A 
ATOM      8  C   UNL     1       2.260   7.444  19.654  0.00  0.00    +0.000 A 
ATOM      9  C   UNL     1       1.584   8.101  20.813  0.00  0.00    +0.000 C 
ATOM     10  C   UNL     1       0.265   7.487  21.199  0.00  0.00    +0.000 C 
ATOM     11  C   UNL     1      -0.545   8.424  21.703  0.00  0.00    +0.000 C 
ATOM     12  C   UNL     1       0.117   9.767  21.670  0.00  0.00    +0.000 C 
ATOM     13  C   UNL     1       1.206   9.580  20.595  0.00  0.00    +0.000 C 
ATOM     14  H   UNL     1       1.586   9.508  17.226  0.00  0.00    +0.000 HD
ENDROOT
BRANCH   1  16
ATOM     15  C   UNL     1      -1.141  11.603  19.020  0.00  0.00    +0.000 C 
ATOM     16  C   UNL     1       0.337  11.274  18.784  0.00  0.00    +0.000 C 
ATOM     17  C   UNL     1       1.199  12.298  19.547  0.00  0.00    +0.000 C 
ENDBRANCH   1  16
BRANCH   6  18
ATOM     18  S   UNL     1       4.457   4.099  19.163  0.00  0.00    +0.000 S 
ATOM     19  O   UNL     1       5.849   4.376  19.442  0.00  0.00    +0.000 OA
ATOM     20  O   UNL     1       3.639   3.264  20.020  0.00  0.00    +0.000 OA
BRANCH  18  21
ATOM     21  N   UNL     1       4.417   3.393  17.643  0.00  0.00    +0.000 NA
ATOM     22  H   UNL     1       3.734   3.861  17.046  0.00  0.00    +0.000 HD
ATOM     23  H   UNL     1       5.356   3.323  17.255  0.00  0.00    +0.000 HD
ENDBRANCH  18  21
ENDBRANCH   6  18
TORSDOF 3
ENDMDL
