MODEL 1
REMARK VINA RESULT:      -8.3      0.000      0.000
REMARK  Name = 
REMARK  11 active torsions:
REMARK  status: ('A' for Active; 'I' for Inactive)
REMARK    1  A    between atoms: C_1  and  C_2
REMARK    2  A    between atoms: C_2  and  C_3
REMARK    3  A    between atoms: C_2  and  C_4
REMARK    4  A    between atoms: C_4  and  C_5
REMARK    5  A    between atoms: C_5  and  C_6
REMARK    6  A    between atoms: C_5  and  C_16
REMARK    7  A    between atoms: C_5  and  C_19
REMARK    8  A    between atoms: C_6  and  C_7
REMARK    9  A    between atoms: C_7  and  N_8
REMARK   10  A    between atoms: C_9  and  C_10
REMARK   11  A    between atoms: C_14  and  C_15
REMARK                            x       y       z     vdW  Elec       q    Type
REMARK                         _______ _______ _______ _____ _____    ______ ____
ROOT
ATOM      1  C   UNL     1       5.916   5.124  16.070  0.00  0.00    +0.000 C 
ENDROOT
BRANCH   1   2
ATOM      2  C   UNL     1       6.392   4.748  14.635  0.00  0.00    +0.000 A 
ATOM      3  C   UNL     1       5.710   3.801  13.862  0.00  0.00    +0.000 A 
ATOM      4  C   UNL     1       6.132   3.540  12.558  0.00  0.00    +0.000 A 
ATOM      5  C   UNL     1       7.228   4.216  12.044  0.00  0.00    +0.000 A 
ATOM      6  C   UNL     1       7.866   5.124  12.865  0.00  0.00    +0.000 A 
ATOM      7  N   UNL     1       7.477   5.396  14.132  0.00  0.00    +0.000 NA
ENDBRANCH   1   2
BRANCH   1   8
ATOM      8  C   UNL     1       5.097   6.441  16.076  0.00  0.00    +0.000 C 
ATOM      9  N   UNL     1       5.022   7.148  14.911  0.00  0.00    +0.000 N 
ATOM     10  O   UNL     1       4.568   6.921  17.077  0.00  0.00    +0.000 OA
ATOM     11  H   UNL     1       4.905   6.555  14.088  0.00  0.00    +0.000 HD
ATOM     12  H   UNL     1       4.356   7.909  14.963  0.00  0.00    +0.000 HD
ENDBRANCH   1   8
BRANCH   1  13
ATOM     13  C   UNL     1       7.192   5.298  16.980  0.00  0.00    +0.000 C 
BRANCH  13  15
ATOM     14  C   UNL     1       7.836   5.720  19.387  0.00  0.00    +0.000 C 
ATOM     15  C   UNL     1       7.186   6.338  18.138  0.00  0.00    +0.000 C 
ATOM     16  C   UNL     1       7.917   7.641  17.818  0.00  0.00    +0.000 C 
ENDBRANCH  13  15
ENDBRANCH   1  13
BRANCH   1  17
ATOM     17  C   UNL     1       5.013   3.976  16.617  0.00  0.00    +0.000 C 
BRANCH  17  18
ATOM     18  C   UNL     1       3.790   4.444  17.454  0.00  0.00    +0.000 C 
BRANCH  18  19
ATOM     19  N   UNL     1       3.810   3.992  18.869  0.00  0.00    +0.000 NA
ATOM     20  C   UNL     1       2.655   4.496  19.660  0.00  0.00    +0.000 C 
ATOM     21  C   UNL     1       2.505   6.024  19.663  0.00  0.00    +0.000 C 
ATOM     22  C   UNL     1       1.323   3.825  19.281  0.00  0.00    +0.000 C 
ATOM     23  C   UNL     1       1.414   2.299  19.269  0.00  0.00    +0.000 C 
ATOM     24  C   UNL     1       2.656   1.801  18.543  0.00  0.00    +0.000 C 
ATOM     25  C   UNL     1       3.934   2.524  19.007  0.00  0.00    +0.000 C 
ATOM     26  C   UNL     1       4.350   2.120  20.431  0.00  0.00    +0.000 C 
ENDBRANCH  18  19
ENDBRANCH  17  18
ENDBRANCH   1  17
TORSDOF 7
ENDMDL
MODEL 2
REMARK VINA RESULT:      -8.3      0.801      1.753
REMARK  Name = 
REMARK  11 active torsions:
REMARK  status: ('A' for Active; 'I' for Inactive)
REMARK    1  A    between atoms: C_1  and  C_2
REMARK    2  A    between atoms: C_2  and  C_3
REMARK    3  A    between atoms: C_2  and  C_4
REMARK    4  A    between atoms: C_4  and  C_5
REMARK    5  A    between atoms: C_5  and  C_6
REMARK    6  A    between atoms: C_5  and  C_16
REMARK    7  A    between atoms: C_5  and  C_19
REMARK    8  A    between atoms: C_6  and  C_7
REMARK    9  A    between atoms: C_7  and  N_8
REMARK   10  A    between atoms: C_9  and  C_10
REMARK   11  A    between atoms: C_14  and  C_15
REMARK                            x       y       z     vdW  Elec       q    Type
REMARK                         _______ _______ _______ _____ _____    ______ ____
ROOT
ATOM      1  C   UNL     1       5.720   4.973  16.205  0.00  0.00    +0.000 C 
ENDROOT
BRANCH   1   2
ATOM      2  C   UNL     1       6.240   4.645  14.773  0.00  0.00    +0.000 A 
ATOM      3  C   UNL     1       5.567   3.748  13.938  0.00  0.00    +0.000 A 
ATOM      4  C   UNL     1       6.032   3.530  12.640  0.00  0.00    +0.000 A 
ATOM      5  C   UNL     1       7.160   4.201  12.195  0.00  0.00    +0.000 A 
ATOM      6  C   UNL     1       7.787   5.059  13.075  0.00  0.00    +0.000 A 
ATOM      7  N   UNL     1       7.357   5.289  14.338  0.00  0.00    +0.000 NA
ENDBRANCH   1   2
BRANCH   1   8
ATOM      8  C   UNL     1       4.944   6.315  16.241  0.00  0.00    +0.000 C 
ATOM      9  N   UNL     1       5.115   7.176  15.194  0.00  0.00    +0.000 N 
ATOM     10  O   UNL     1       4.239   6.682  17.179  0.00  0.00    +0.000 OA
ATOM     11  H   UNL     1       5.149   6.705  14.289  0.00  0.00    +0.000 HD
ATOM     12  H   UNL     1       4.468   7.954  15.225  0.00  0.00    +0.000 HD
ENDBRANCH   1   8
BRANCH   1  13
ATOM     13  C   UNL     1       6.964   5.063  17.171  0.00  0.00    +0.000 C 
BRANCH  13  15
ATOM     14  C   UNL     1       7.854   5.785  19.424  0.00  0.00    +0.000 C 
ATOM     15  C   UNL     1       7.087   6.248  18.174  0.00  0.00    +0.000 C 
ATOM     16  C   UNL     1       7.795   7.479  17.610  0.00  0.00    +0.000 C 
ENDBRANCH  13  15
ENDBRANCH   1  13
BRANCH   1  17
ATOM     17  C   UNL     1       4.759   3.833  16.663  0.00  0.00    +0.000 C 
BRANCH  17  18
ATOM     18  C   UNL     1       4.639   3.654  18.202  0.00  0.00    +0.000 C 
BRANCH  18  19
ATOM     19  N   UNL     1       3.453   2.872  18.636  0.00  0.00    +0.000 NA
ATOM     20  C   UNL     1       3.415   2.633  20.104  0.00  0.00    +0.000 C 
ATOM     21  C   UNL     1       4.662   1.937  20.668  0.00  0.00    +0.000 C 
ATOM     22  C   UNL     1       3.092   3.900  20.915  0.00  0.00    +0.000 C 
ATOM     23  C   UNL     1       1.853   4.631  20.399  0.00  0.00    +0.000 C 
ATOM     24  C   UNL     1       1.858   4.777  18.884  0.00  0.00    +0.000 C 
ATOM     25  C   UNL     1       2.174   3.450  18.169  0.00  0.00    +0.000 C 
ATOM     26  C   UNL     1       1.020   2.439  18.276  0.00  0.00    +0.000 C 
ENDBRANCH  18  19
ENDBRANCH  17  18
ENDBRANCH   1  17
TORSDOF 7
ENDMDL
MODEL 3
REMARK VINA RESULT:      -7.5      1.183      2.120
REMARK  Name = 
REMARK  11 active torsions:
REMARK  status: ('A' for Active; 'I' for Inactive)
REMARK    1  A    between atoms: C_1  and  C_2
REMARK    2  A    between atoms: C_2  and  C_3
REMARK    3  A    between atoms: C_2  and  C_4
REMARK    4  A    between atoms: C_4  and  C_5
REMARK    5  A    between atoms: C_5  and  C_6
REMARK    6  A    between atoms: C_5  and  C_16
REMARK    7  A    between atoms: C_5  and  C_19
REMARK    8  A    between atoms: C_6  and  C_7
REMARK    9  A    between atoms: C_7  and  N_8
REMARK   10  A    between atoms: C_9  and  C_10
REMARK   11  A    between atoms: C_14  and  C_15
REMARK                            x       y       z     vdW  Elec       q    Type
REMARK                         _______ _______ _______ _____ _____    ______ ____
ROOT
ATOM      1  C   UNL     1       5.599   5.025  16.165  0.00  0.00    +0.000 C 
ENDROOT
BRANCH   1   2
ATOM      2  C   UNL     1       6.069   4.678  14.721  0.00  0.00    +0.000 A 
ATOM      3  C   UNL     1       7.275   5.166  14.207  0.00  0.00    +0.000 A 
ATOM      4  C   UNL     1       7.689   4.780  12.931  0.00  0.00    +0.000 A 
ATOM      5  C   UNL     1       6.897   3.923  12.184  0.00  0.00    +0.000 A 
ATOM      6  C   UNL     1       5.711   3.493  12.742  0.00  0.00    +0.000 A 
ATOM      7  N   UNL     1       5.286   3.851  13.976  0.00  0.00    +0.000 NA
ENDBRANCH   1   2
BRANCH   1   8
ATOM      8  C   UNL     1       4.883   6.400  16.221  0.00  0.00    +0.000 C 
ATOM      9  N   UNL     1       4.064   6.647  17.285  0.00  0.00    +0.000 N 
ATOM     10  O   UNL     1       4.952   7.252  15.336  0.00  0.00    +0.000 OA
ATOM     11  H   UNL     1       4.442   6.307  18.170  0.00  0.00    +0.000 HD
ATOM     12  H   UNL     1       3.755   7.611  17.318  0.00  0.00    +0.000 HD
ENDBRANCH   1   8
BRANCH   1  13
ATOM     13  C   UNL     1       6.868   5.058  17.100  0.00  0.00    +0.000 C 
BRANCH  13  15
ATOM     14  C   UNL     1       7.855   5.716  19.332  0.00  0.00    +0.000 C 
ATOM     15  C   UNL     1       7.053   6.220  18.120  0.00  0.00    +0.000 C 
ATOM     16  C   UNL     1       7.767   7.447  17.555  0.00  0.00    +0.000 C 
ENDBRANCH  13  15
ENDBRANCH   1  13
BRANCH   1  17
ATOM     17  C   UNL     1       4.600   3.927  16.645  0.00  0.00    +0.000 C 
BRANCH  17  18
ATOM     18  C   UNL     1       4.494   3.765  18.187  0.00  0.00    +0.000 C 
BRANCH  18  19
ATOM     19  N   UNL     1       3.371   2.902  18.634  0.00  0.00    +0.000 NA
ATOM     20  C   UNL     1       3.437   2.560  20.082  0.00  0.00    +0.000 C 
ATOM     21  C   UNL     1       4.745   1.883  20.516  0.00  0.00    +0.000 C 
ATOM     22  C   UNL     1       3.116   3.753  21.000  0.00  0.00    +0.000 C 
ATOM     23  C   UNL     1       1.818   4.461  20.615  0.00  0.00    +0.000 C 
ATOM     24  C   UNL     1       1.720   4.713  19.116  0.00  0.00    +0.000 C 
ATOM     25  C   UNL     1       2.042   3.453  18.290  0.00  0.00    +0.000 C 
ATOM     26  C   UNL     1       0.939   2.387  18.394  0.00  0.00    +0.000 C 
ENDBRANCH  18  19
ENDBRANCH  17  18
ENDBRANCH   1  17
TORSDOF 7
ENDMDL
MODEL 4
REMARK VINA RESULT:      -7.4      0.885      1.176
REMARK  Name = 
REMARK  11 active torsions:
REMARK  status: ('A' for Active; 'I' for Inactive)
REMARK    1  A    between atoms: C_1  and  C_2
REMARK    2  A    between atoms: C_2  and  C_3
REMARK    3  A    between atoms: C_2  and  C_4
REMARK    4  A    between atoms: C_4  and  C_5
REMARK    5  A    between atoms: C_5  and  C_6
REMARK    6  A    between atoms: C_5  and  C_16
REMARK    7  A    between atoms: C_5  and  C_19
REMARK    8  A    between atoms: C_6  and  C_7
REMARK    9  A    between atoms: C_7  and  N_8
REMARK   10  A    between atoms: C_9  and  C_10
REMARK   11  A    between atoms: C_14  and  C_15
REMARK                            x       y       z     vdW  Elec       q    Type
REMARK                         _______ _______ _______ _____ _____    ______ ____
ROOT
ATOM      1  C   UNL     1       5.806   5.186  15.992  0.00  0.00    +0.000 C 
ENDROOT
BRANCH   1   2
ATOM      2  C   UNL     1       6.227   4.772  14.550  0.00  0.00    +0.000 A 
ATOM      3  C   UNL     1       7.420   5.226  13.977  0.00  0.00    +0.000 A 
ATOM      4  C   UNL     1       7.790   4.781  12.707  0.00  0.00    +0.000 A 
ATOM      5  C   UNL     1       6.968   3.898  12.024  0.00  0.00    +0.000 A 
ATOM      6  C   UNL     1       5.798   3.503  12.639  0.00  0.00    +0.000 A 
ATOM      7  N   UNL     1       5.416   3.918  13.869  0.00  0.00    +0.000 NA
ENDBRANCH   1   2
BRANCH   1   8
ATOM      8  C   UNL     1       5.021   6.523  15.998  0.00  0.00    +0.000 C 
ATOM      9  N   UNL     1       4.416   6.900  17.163  0.00  0.00    +0.000 N 
ATOM     10  O   UNL     1       4.852   7.231  15.007  0.00  0.00    +0.000 OA
ATOM     11  H   UNL     1       4.987   6.715  17.989  0.00  0.00    +0.000 HD
ATOM     12  H   UNL     1       4.053   7.844  17.122  0.00  0.00    +0.000 HD
ENDBRANCH   1   8
BRANCH   1  13
ATOM     13  C   UNL     1       7.114   5.343  16.860  0.00  0.00    +0.000 C 
BRANCH  13  15
ATOM     14  C   UNL     1       7.841   5.732  19.249  0.00  0.00    +0.000 C 
ATOM     15  C   UNL     1       7.152   6.369  18.030  0.00  0.00    +0.000 C 
ATOM     16  C   UNL     1       7.879   7.672  17.702  0.00  0.00    +0.000 C 
ENDBRANCH  13  15
ENDBRANCH   1  13
BRANCH   1  17
ATOM     17  C   UNL     1       4.891   4.072  16.587  0.00  0.00    +0.000 C 
BRANCH  17  18
ATOM     18  C   UNL     1       3.734   4.584  17.489  0.00  0.00    +0.000 C 
BRANCH  18  19
ATOM     19  N   UNL     1       3.766   4.064  18.879  0.00  0.00    +0.000 NA
ATOM     20  C   UNL     1       2.583   4.472  19.685  0.00  0.00    +0.000 C 
ATOM     21  C   UNL     1       2.360   5.990  19.762  0.00  0.00    +0.000 C 
ATOM     22  C   UNL     1       1.287   3.758  19.261  0.00  0.00    +0.000 C 
ATOM     23  C   UNL     1       1.451   2.241  19.174  0.00  0.00    +0.000 C 
ATOM     24  C   UNL     1       2.720   1.840  18.435  0.00  0.00    +0.000 C 
ATOM     25  C   UNL     1       3.959   2.598  18.946  0.00  0.00    +0.000 C 
ATOM     26  C   UNL     1       4.385   2.144  20.352  0.00  0.00    +0.000 C 
ENDBRANCH  18  19
ENDBRANCH  17  18
ENDBRANCH   1  17
TORSDOF 7
ENDMDL
MODEL 5
REMARK VINA RESULT:      -7.2      1.100      1.611
REMARK  Name = 
REMARK  11 active torsions:
REMARK  status: ('A' for Active; 'I' for Inactive)
REMARK    1  A    between atoms: C_1  and  C_2
REMARK    2  A    between atoms: C_2  and  C_3
REMARK    3  A    between atoms: C_2  and  C_4
REMARK    4  A    between atoms: C_4  and  C_5
REMARK    5  A    between atoms: C_5  and  C_6
REMARK    6  A    between atoms: C_5  and  C_16
REMARK    7  A    between atoms: C_5  and  C_19
REMARK    8  A    between atoms: C_6  and  C_7
REMARK    9  A    between atoms: C_7  and  N_8
REMARK   10  A    between atoms: C_9  and  C_10
REMARK   11  A    between atoms: C_14  and  C_15
REMARK                            x       y       z     vdW  Elec       q    Type
REMARK                         _______ _______ _______ _____ _____    ______ ____
ROOT
ATOM      1  C   UNL     1       5.482   4.986  16.328  0.00  0.00    +0.000 C 
ENDROOT
BRANCH   1   2
ATOM      2  C   UNL     1       6.086   4.658  14.929  0.00  0.00    +0.000 A 
ATOM      3  C   UNL     1       5.420   3.828  14.021  0.00  0.00    +0.000 A 
ATOM      4  C   UNL     1       5.965   3.611  12.755  0.00  0.00    +0.000 A 
ATOM      5  C   UNL     1       7.165   4.216  12.413  0.00  0.00    +0.000 A 
ATOM      6  C   UNL     1       7.778   5.008  13.361  0.00  0.00    +0.000 A 
ATOM      7  N   UNL     1       7.271   5.236  14.595  0.00  0.00    +0.000 NA
ENDBRANCH   1   2
BRANCH   1   8
ATOM      8  C   UNL     1       4.843   6.398  16.361  0.00  0.00    +0.000 C 
ATOM      9  N   UNL     1       4.022   6.700  17.410  0.00  0.00    +0.000 N 
ATOM     10  O   UNL     1       4.974   7.237  15.472  0.00  0.00    +0.000 OA
ATOM     11  H   UNL     1       4.367   6.347  18.304  0.00  0.00    +0.000 HD
ATOM     12  H   UNL     1       3.767   7.679  17.430  0.00  0.00    +0.000 HD
ENDBRANCH   1   8
BRANCH   1  13
ATOM     13  C   UNL     1       6.644   4.912  17.393  0.00  0.00    +0.000 C 
BRANCH  13  15
ATOM     14  C   UNL     1       7.750   5.693  19.527  0.00  0.00    +0.000 C 
ATOM     15  C   UNL     1       6.957   6.146  18.289  0.00  0.00    +0.000 C 
ATOM     16  C   UNL     1       7.754   7.246  17.590  0.00  0.00    +0.000 C 
ENDBRANCH  13  15
ENDBRANCH   1  13
BRANCH   1  17
ATOM     17  C   UNL     1       4.378   3.934  16.657  0.00  0.00    +0.000 C 
BRANCH  17  18
ATOM     18  C   UNL     1       4.214   3.604  18.166  0.00  0.00    +0.000 C 
BRANCH  18  19
ATOM     19  N   UNL     1       3.104   4.331  18.834  0.00  0.00    +0.000 NA
ATOM     20  C   UNL     1       1.757   3.852  18.418  0.00  0.00    +0.000 C 
ATOM     21  C   UNL     1       1.503   3.904  16.905  0.00  0.00    +0.000 C 
ATOM     22  C   UNL     1       1.413   2.459  18.975  0.00  0.00    +0.000 C 
ATOM     23  C   UNL     1       1.642   2.353  20.482  0.00  0.00    +0.000 C 
ATOM     24  C   UNL     1       2.982   2.941  20.905  0.00  0.00    +0.000 C 
ATOM     25  C   UNL     1       3.220   4.341  20.309  0.00  0.00    +0.000 C 
ATOM     26  C   UNL     1       2.316   5.409  20.944  0.00  0.00    +0.000 C 
ENDBRANCH  18  19
ENDBRANCH  17  18
ENDBRANCH   1  17
TORSDOF 7
ENDMDL
MODEL 6
REMARK VINA RESULT:      -7.1      1.778      2.426
REMARK  Name = 
REMARK  11 active torsions:
REMARK  status: ('A' for Active; 'I' for Inactive)
REMARK    1  A    between atoms: C_1  and  C_2
REMARK    2  A    between atoms: C_2  and  C_3
REMARK    3  A    between atoms: C_2  and  C_4
REMARK    4  A    between atoms: C_4  and  C_5
REMARK    5  A    between atoms: C_5  and  C_6
REMARK    6  A    between atoms: C_5  and  C_16
REMARK    7  A    between atoms: C_5  and  C_19
REMARK    8  A    between atoms: C_6  and  C_7
REMARK    9  A    between atoms: C_7  and  N_8
REMARK   10  A    between atoms: C_9  and  C_10
REMARK   11  A    between atoms: C_14  and  C_15
REMARK                            x       y       z     vdW  Elec       q    Type
REMARK                         _______ _______ _______ _____ _____    ______ ____
ROOT
ATOM      1  C   UNL     1       4.838   6.158  17.842  0.00  0.00    +0.000 C 
ENDROOT
BRANCH   1   2
ATOM      2  C   UNL     1       5.243   5.362  16.565  0.00  0.00    +0.000 A 
ATOM      3  C   UNL     1       5.204   5.946  15.295  0.00  0.00    +0.000 A 
ATOM      4  C   UNL     1       5.635   5.217  14.185  0.00  0.00    +0.000 A 
ATOM      5  C   UNL     1       6.091   3.919  14.353  0.00  0.00    +0.000 A 
ATOM      6  C   UNL     1       6.088   3.397  15.630  0.00  0.00    +0.000 A 
ATOM      7  N   UNL     1       5.676   4.081  16.723  0.00  0.00    +0.000 NA
ENDBRANCH   1   2
BRANCH   1   8
ATOM      8  C   UNL     1       3.381   6.682  17.752  0.00  0.00    +0.000 C 
ATOM      9  N   UNL     1       3.178   8.024  17.903  0.00  0.00    +0.000 N 
ATOM     10  O   UNL     1       2.393   5.961  17.623  0.00  0.00    +0.000 OA
ATOM     11  H   UNL     1       3.884   8.592  17.433  0.00  0.00    +0.000 HD
ATOM     12  H   UNL     1       2.227   8.297  17.688  0.00  0.00    +0.000 HD
ENDBRANCH   1   8
BRANCH   1  13
ATOM     13  C   UNL     1       5.825   7.380  17.992  0.00  0.00    +0.000 C 
BRANCH  13  15
ATOM     14  C   UNL     1       8.050   8.548  17.727  0.00  0.00    +0.000 C 
ATOM     15  C   UNL     1       7.352   7.178  17.767  0.00  0.00    +0.000 C 
ATOM     16  C   UNL     1       8.039   6.326  18.833  0.00  0.00    +0.000 C 
ENDBRANCH  13  15
ENDBRANCH   1  13
BRANCH   1  17
ATOM     17  C   UNL     1       4.950   5.215  19.079  0.00  0.00    +0.000 C 
BRANCH  17  18
ATOM     18  C   UNL     1       3.593   4.723  19.654  0.00  0.00    +0.000 C 
BRANCH  18  19
ATOM     19  N   UNL     1       3.484   3.247  19.786  0.00  0.00    +0.000 NA
ATOM     20  C   UNL     1       2.298   2.817  20.576  0.00  0.00    +0.000 C 
ATOM     21  C   UNL     1       2.224   3.416  21.988  0.00  0.00    +0.000 C 
ATOM     22  C   UNL     1       0.967   3.024  19.832  0.00  0.00    +0.000 C 
ATOM     23  C   UNL     1       0.984   2.441  18.420  0.00  0.00    +0.000 C 
ATOM     24  C   UNL     1       2.251   2.806  17.659  0.00  0.00    +0.000 C 
ATOM     25  C   UNL     1       3.525   2.544  18.485  0.00  0.00    +0.000 C 
ATOM     26  C   UNL     1       3.812   1.044  18.657  0.00  0.00    +0.000 C 
ENDBRANCH  18  19
ENDBRANCH  17  18
ENDBRANCH   1  17
TORSDOF 7
ENDMDL
MODEL 7
REMARK VINA RESULT:      -7.0      0.857      1.056
REMARK  Name = 
REMARK  11 active torsions:
REMARK  status: ('A' for Active; 'I' for Inactive)
REMARK    1  A    between atoms: C_1  and  C_2
REMARK    2  A    between atoms: C_2  and  C_3
REMARK    3  A    between atoms: C_2  and  C_4
REMARK    4  A    between atoms: C_4  and  C_5
REMARK    5  A    between atoms: C_5  and  C_6
REMARK    6  A    between atoms: C_5  and  C_16
REMARK    7  A    between atoms: C_5  and  C_19
REMARK    8  A    between atoms: C_6  and  C_7
REMARK    9  A    between atoms: C_7  and  N_8
REMARK   10  A    between atoms: C_9  and  C_10
REMARK   11  A    between atoms: C_14  and  C_15
REMARK                            x       y       z     vdW  Elec       q    Type
REMARK                         _______ _______ _______ _____ _____    ______ ____
ROOT
ATOM      1  C   UNL     1       5.889   5.184  16.290  0.00  0.00    +0.000 C 
ENDROOT
BRANCH   1   2
ATOM      2  C   UNL     1       6.281   4.732  14.851  0.00  0.00    +0.000 A 
ATOM      3  C   UNL     1       5.505   3.813  14.136  0.00  0.00    +0.000 A 
ATOM      4  C   UNL     1       5.857   3.483  12.826  0.00  0.00    +0.000 A 
ATOM      5  C   UNL     1       6.977   4.064  12.251  0.00  0.00    +0.000 A 
ATOM      6  C   UNL     1       7.708   4.948  13.017  0.00  0.00    +0.000 A 
ATOM      7  N   UNL     1       7.388   5.286  14.288  0.00  0.00    +0.000 NA
ENDBRANCH   1   2
BRANCH   1   8
ATOM      8  C   UNL     1       5.087   6.511  16.276  0.00  0.00    +0.000 C 
ATOM      9  N   UNL     1       5.046   7.216  15.107  0.00  0.00    +0.000 N 
ATOM     10  O   UNL     1       4.544   7.002  17.264  0.00  0.00    +0.000 OA
ATOM     11  H   UNL     1       4.937   6.623  14.284  0.00  0.00    +0.000 HD
ATOM     12  H   UNL     1       4.389   7.986  15.144  0.00  0.00    +0.000 HD
ENDBRANCH   1   8
BRANCH   1  13
ATOM     13  C   UNL     1       7.215   5.382  17.120  0.00  0.00    +0.000 C 
BRANCH  13  15
ATOM     14  C   UNL     1       8.013   5.912  19.459  0.00  0.00    +0.000 C 
ATOM     15  C   UNL     1       7.283   6.474  18.228  0.00  0.00    +0.000 C 
ATOM     16  C   UNL     1       7.990   7.760  17.802  0.00  0.00    +0.000 C 
ENDBRANCH  13  15
ENDBRANCH   1  13
BRANCH   1  17
ATOM     17  C   UNL     1       5.002   4.077  16.939  0.00  0.00    +0.000 C 
BRANCH  17  18
ATOM     18  C   UNL     1       5.022   4.047  18.493  0.00  0.00    +0.000 C 
BRANCH  18  19
ATOM     19  N   UNL     1       3.785   3.505  19.110  0.00  0.00    +0.000 NA
ATOM     20  C   UNL     1       2.753   4.547  19.363  0.00  0.00    +0.000 C 
ATOM     21  C   UNL     1       3.231   5.717  20.234  0.00  0.00    +0.000 C 
ATOM     22  C   UNL     1       2.091   5.068  18.075  0.00  0.00    +0.000 C 
ATOM     23  C   UNL     1       1.590   3.943  17.172  0.00  0.00    +0.000 C 
ATOM     24  C   UNL     1       2.620   2.834  17.005  0.00  0.00    +0.000 C 
ATOM     25  C   UNL     1       3.206   2.373  18.352  0.00  0.00    +0.000 C 
ATOM     26  C   UNL     1       2.189   1.585  19.194  0.00  0.00    +0.000 C 
ENDBRANCH  18  19
ENDBRANCH  17  18
ENDBRANCH   1  17
TORSDOF 7
ENDMDL
MODEL 8
REMARK VINA RESULT:      -6.9      2.812      6.596
REMARK  Name = 
REMARK  11 active torsions:
REMARK  status: ('A' for Active; 'I' for Inactive)
REMARK    1  A    between atoms: C_1  and  C_2
REMARK    2  A    between atoms: C_2  and  C_3
REMARK    3  A    between atoms: C_2  and  C_4
REMARK    4  A    between atoms: C_4  and  C_5
REMARK    5  A    between atoms: C_5  and  C_6
REMARK    6  A    between atoms: C_5  and  C_16
REMARK    7  A    between atoms: C_5  and  C_19
REMARK    8  A    between atoms: C_6  and  C_7
REMARK    9  A    between atoms: C_7  and  N_8
REMARK   10  A    between atoms: C_9  and  C_10
REMARK   11  A    between atoms: C_14  and  C_15
REMARK                            x       y       z     vdW  Elec       q    Type
REMARK                         _______ _______ _______ _____ _____    ______ ____
ROOT
ATOM      1  C   UNL     1       2.440   5.056  19.186  0.00  0.00    +0.000 C 
ENDROOT
BRANCH   1   2
ATOM      2  C   UNL     1       2.057   6.566  19.228  0.00  0.00    +0.000 A 
ATOM      3  C   UNL     1       1.675   7.191  20.420  0.00  0.00    +0.000 A 
ATOM      4  C   UNL     1       1.401   8.560  20.426  0.00  0.00    +0.000 A 
ATOM      5  C   UNL     1       1.504   9.284  19.248  0.00  0.00    +0.000 A 
ATOM      6  C   UNL     1       1.868   8.604  18.105  0.00  0.00    +0.000 A 
ATOM      7  N   UNL     1       2.140   7.278  18.072  0.00  0.00    +0.000 NA
ENDBRANCH   1   2
BRANCH   1   8
ATOM      8  C   UNL     1       2.176   4.437  17.789  0.00  0.00    +0.000 C 
ATOM      9  N   UNL     1       3.248   3.952  17.096  0.00  0.00    +0.000 N 
ATOM     10  O   UNL     1       1.076   4.415  17.239  0.00  0.00    +0.000 OA
ATOM     11  H   UNL     1       3.914   3.451  17.685  0.00  0.00    +0.000 HD
ATOM     12  H   UNL     1       2.972   3.440  16.268  0.00  0.00    +0.000 HD
ENDBRANCH   1   8
BRANCH   1  13
ATOM     13  C   UNL     1       1.574   4.300  20.266  0.00  0.00    +0.000 C 
BRANCH  13  15
ATOM     14  C   UNL     1       1.309   2.481  22.000  0.00  0.00    +0.000 C 
ATOM     15  C   UNL     1       1.891   2.817  20.617  0.00  0.00    +0.000 C 
ATOM     16  C   UNL     1       1.345   1.802  19.613  0.00  0.00    +0.000 C 
ENDBRANCH  13  15
ENDBRANCH   1  13
BRANCH   1  17
ATOM     17  C   UNL     1       3.959   4.914  19.511  0.00  0.00    +0.000 C 
BRANCH  17  18
ATOM     18  C   UNL     1       4.861   6.044  18.941  0.00  0.00    +0.000 C 
BRANCH  18  19
ATOM     19  N   UNL     1       5.856   5.583  17.938  0.00  0.00    +0.000 NA
ATOM     20  C   UNL     1       6.107   6.581  16.863  0.00  0.00    +0.000 C 
ATOM     21  C   UNL     1       4.850   7.024  16.100  0.00  0.00    +0.000 C 
ATOM     22  C   UNL     1       6.903   7.806  17.348  0.00  0.00    +0.000 C 
ATOM     23  C   UNL     1       8.171   7.421  18.110  0.00  0.00    +0.000 C 
ATOM     24  C   UNL     1       7.917   6.327  19.137  0.00  0.00    +0.000 C 
ATOM     25  C   UNL     1       7.130   5.141  18.546  0.00  0.00    +0.000 C 
ATOM     26  C   UNL     1       7.973   4.312  17.563  0.00  0.00    +0.000 C 
ENDBRANCH  18  19
ENDBRANCH  17  18
ENDBRANCH   1  17
TORSDOF 7
ENDMDL
MODEL 9
REMARK VINA RESULT:      -6.9      2.070      6.394
REMARK  Name = 
REMARK  11 active torsions:
REMARK  status: ('A' for Active; 'I' for Inactive)
REMARK    1  A    between atoms: C_1  and  C_2
REMARK    2  A    between atoms: C_2  and  C_3
REMARK    3  A    between atoms: C_2  and  C_4
REMARK    4  A    between atoms: C_4  and  C_5
REMARK    5  A    between atoms: C_5  and  C_6
REMARK    6  A    between atoms: C_5  and  C_16
REMARK    7  A    between atoms: C_5  and  C_19
REMARK    8  A    between atoms: C_6  and  C_7
REMARK    9  A    between atoms: C_7  and  N_8
REMARK   10  A    between atoms: C_9  and  C_10
REMARK   11  A    between atoms: C_14  and  C_15
REMARK                            x       y       z     vdW  Elec       q    Type
REMARK                         _______ _______ _______ _____ _____    ______ ____
ROOT
ATOM      1  C   UNL     1       2.862   5.393  18.423  0.00  0.00    +0.000 C 
ENDROOT
BRANCH   1   2
ATOM      2  C   UNL     1       2.319   6.759  18.939  0.00  0.00    +0.000 A 
ATOM      3  C   UNL     1       2.110   7.838  18.073  0.00  0.00    +0.000 A 
ATOM      4  C   UNL     1       1.563   9.024  18.565  0.00  0.00    +0.000 A 
ATOM      5  C   UNL     1       1.239   9.123  19.909  0.00  0.00    +0.000 A 
ATOM      6  C   UNL     1       1.486   8.028  20.712  0.00  0.00    +0.000 A 
ATOM      7  N   UNL     1       2.015   6.867  20.261  0.00  0.00    +0.000 NA
ENDBRANCH   1   2
BRANCH   1   8
ATOM      8  C   UNL     1       1.713   4.444  17.993  0.00  0.00    +0.000 C 
ATOM      9  N   UNL     1       0.751   4.152  18.917  0.00  0.00    +0.000 N 
ATOM     10  O   UNL     1       1.650   3.886  16.899  0.00  0.00    +0.000 OA
ATOM     11  H   UNL     1       0.475   4.959  19.478  0.00  0.00    +0.000 HD
ATOM     12  H   UNL     1      -0.030   3.649  18.514  0.00  0.00    +0.000 HD
ENDBRANCH   1   8
BRANCH   1  13
ATOM     13  C   UNL     1       3.687   4.721  19.588  0.00  0.00    +0.000 C 
BRANCH  13  15
ATOM     14  C   UNL     1       4.665   2.416  19.925  0.00  0.00    +0.000 C 
ATOM     15  C   UNL     1       3.380   3.256  20.014  0.00  0.00    +0.000 C 
ATOM     16  C   UNL     1       2.817   3.116  21.427  0.00  0.00    +0.000 C 
ENDBRANCH  13  15
ENDBRANCH   1  13
BRANCH   1  17
ATOM     17  C   UNL     1       3.779   5.651  17.188  0.00  0.00    +0.000 C 
BRANCH  17  18
ATOM     18  C   UNL     1       4.901   6.704  17.412  0.00  0.00    +0.000 C 
BRANCH  18  19
ATOM     19  N   UNL     1       6.093   6.519  16.546  0.00  0.00    +0.000 NA
ATOM     20  C   UNL     1       7.362   6.945  17.198  0.00  0.00    +0.000 C 
ATOM     21  C   UNL     1       7.366   8.400  17.691  0.00  0.00    +0.000 C 
ATOM     22  C   UNL     1       7.813   5.995  18.321  0.00  0.00    +0.000 C 
ATOM     23  C   UNL     1       7.833   4.531  17.882  0.00  0.00    +0.000 C 
ATOM     24  C   UNL     1       6.572   4.138  17.126  0.00  0.00    +0.000 C 
ATOM     25  C   UNL     1       6.218   5.144  16.015  0.00  0.00    +0.000 C 
ATOM     26  C   UNL     1       7.198   5.077  14.832  0.00  0.00    +0.000 C 
ENDBRANCH  18  19
ENDBRANCH  17  18
ENDBRANCH   1  17
TORSDOF 7
ENDMDL
