MODEL 1
REMARK VINA RESULT:      -6.7      0.000      0.000
REMARK  Name = 
REMARK  7 active torsions:
REMARK  status: ('A' for Active; 'I' for Inactive)
REMARK    1  A    between atoms: C_1  and  C_2
REMARK    2  A    between atoms: C_2  and  C_3
REMARK    3  A    between atoms: C_7  and  C_8
REMARK    4  A    between atoms: N_9  and  C_10
REMARK    5  A    between atoms: C_10  and  C_11
REMARK    6  A    between atoms: C_11  and  N_12
REMARK    7  A    between atoms: C_18  and  O_19
REMARK                            x       y       z     vdW  Elec       q    Type
REMARK                         _______ _______ _______ _____ _____    ______ ____
ROOT
ATOM      1  C   UNL     1       1.188   2.490  22.036  0.00  0.00    +0.000 C 
ATOM      2  C   UNL     1       1.711   3.175  20.759  0.00  0.00    +0.000 C 
ATOM      3  C   UNL     1       0.836   2.720  19.574  0.00  0.00    +0.000 C 
ATOM      4  C   UNL     1       3.174   2.769  20.531  0.00  0.00    +0.000 C 
ATOM      5  C   UNL     1       3.824   3.545  19.405  0.00  0.00    +0.000 C 
ATOM      6  O   UNL     1       4.718   3.047  18.722  0.00  0.00    +0.000 OA
ATOM      7  C   UNL     1       3.432   4.965  19.195  0.00  0.00    +0.000 C 
ATOM      8  C   UNL     1       2.425   5.484  19.931  0.00  0.00    +0.000 C 
ATOM      9  C   UNL     1       1.627   4.703  20.939  0.00  0.00    +0.000 C 
ENDROOT
BRANCH   7  10
ATOM     10  C   UNL     1       4.226   5.826  18.279  0.00  0.00    +0.000 C 
ATOM     11  N   UNL     1       4.198   5.675  16.995  0.00  0.00    +0.000 NA
BRANCH  11  12
ATOM     12  C   UNL     1       4.857   6.737  16.214  0.00  0.00    +0.000 C 
BRANCH  12  13
ATOM     13  C   UNL     1       5.912   7.364  17.145  0.00  0.00    +0.000 C 
BRANCH  13  14
ATOM     14  N   UNL     1       7.330   7.067  16.872  0.00  0.00    +0.000 NA
ATOM     15  C   UNL     1       8.062   6.953  18.162  0.00  0.00    +0.000 C 
ATOM     16  C   UNL     1       7.655   5.720  19.006  0.00  0.00    +0.000 C 
ATOM     17  N   UNL     1       7.753   4.449  18.272  0.00  0.00    +0.000 NA
ATOM     18  C   UNL     1       7.132   4.535  16.941  0.00  0.00    +0.000 C 
ATOM     19  C   UNL     1       7.538   5.798  16.145  0.00  0.00    +0.000 C 
ATOM     20  H   UNL     1       7.300   3.710  18.810  0.00  0.00    +0.000 HD
ENDBRANCH  13  14
ENDBRANCH  12  13
ENDBRANCH  11  12
ENDBRANCH   7  10
BRANCH   8  21
ATOM     21  O   UNL     1       2.025   6.809  19.841  0.00  0.00    +0.000 OA
ATOM     22  H   UNL     1       2.726   7.371  20.246  0.00  0.00    +0.000 HD
ENDBRANCH   8  21
TORSDOF 5
ENDMDL
MODEL 2
REMARK VINA RESULT:      -6.6      4.413      6.642
REMARK  Name = 
REMARK  7 active torsions:
REMARK  status: ('A' for Active; 'I' for Inactive)
REMARK    1  A    between atoms: C_1  and  C_2
REMARK    2  A    between atoms: C_2  and  C_3
REMARK    3  A    between atoms: C_7  and  C_8
REMARK    4  A    between atoms: N_9  and  C_10
REMARK    5  A    between atoms: C_10  and  C_11
REMARK    6  A    between atoms: C_11  and  N_12
REMARK    7  A    between atoms: C_18  and  O_19
REMARK                            x       y       z     vdW  Elec       q    Type
REMARK                         _______ _______ _______ _____ _____    ______ ____
ROOT
ATOM      1  C   UNL     1      -1.066  12.943  19.820  0.00  0.00    +0.000 C 
ATOM      2  C   UNL     1      -0.621  11.504  19.495  0.00  0.00    +0.000 C 
ATOM      3  C   UNL     1      -1.770  10.801  18.745  0.00  0.00    +0.000 C 
ATOM      4  C   UNL     1      -0.303  10.766  20.802  0.00  0.00    +0.000 C 
ATOM      5  C   UNL     1       0.323   9.408  20.566  0.00  0.00    +0.000 C 
ATOM      6  O   UNL     1       0.152   8.481  21.358  0.00  0.00    +0.000 OA
ATOM      7  C   UNL     1       1.235   9.233  19.403  0.00  0.00    +0.000 C 
ATOM      8  C   UNL     1       1.383  10.249  18.526  0.00  0.00    +0.000 C 
ATOM      9  C   UNL     1       0.645  11.557  18.618  0.00  0.00    +0.000 C 
ENDROOT
BRANCH   7  10
ATOM     10  C   UNL     1       2.063   8.003  19.289  0.00  0.00    +0.000 C 
ATOM     11  N   UNL     1       2.221   7.382  18.166  0.00  0.00    +0.000 NA
BRANCH  11  12
ATOM     12  C   UNL     1       3.241   6.317  18.165  0.00  0.00    +0.000 C 
BRANCH  12  13
ATOM     13  C   UNL     1       2.486   4.999  17.910  0.00  0.00    +0.000 C 
BRANCH  13  14
ATOM     14  N   UNL     1       2.912   3.808  18.669  0.00  0.00    +0.000 NA
ATOM     15  C   UNL     1       2.840   4.106  20.124  0.00  0.00    +0.000 C 
ATOM     16  C   UNL     1       1.398   4.297  20.654  0.00  0.00    +0.000 C 
ATOM     17  N   UNL     1       0.503   3.173  20.338  0.00  0.00    +0.000 NA
ATOM     18  C   UNL     1       0.610   2.768  18.928  0.00  0.00    +0.000 C 
ATOM     19  C   UNL     1       2.066   2.621  18.429  0.00  0.00    +0.000 C 
ATOM     20  H   UNL     1      -0.460   3.436  20.543  0.00  0.00    +0.000 HD
ENDBRANCH  13  14
ENDBRANCH  12  13
ENDBRANCH  11  12
ENDBRANCH   7  10
BRANCH   8  21
ATOM     21  O   UNL     1       2.248  10.196  17.443  0.00  0.00    +0.000 OA
ATOM     22  H   UNL     1       3.158  10.392  17.766  0.00  0.00    +0.000 HD
ENDBRANCH   8  21
TORSDOF 5
ENDMDL
MODEL 3
REMARK VINA RESULT:      -6.6      3.724      6.235
REMARK  Name = 
REMARK  7 active torsions:
REMARK  status: ('A' for Active; 'I' for Inactive)
REMARK    1  A    between atoms: C_1  and  C_2
REMARK    2  A    between atoms: C_2  and  C_3
REMARK    3  A    between atoms: C_7  and  C_8
REMARK    4  A    between atoms: N_9  and  C_10
REMARK    5  A    between atoms: C_10  and  C_11
REMARK    6  A    between atoms: C_11  and  N_12
REMARK    7  A    between atoms: C_18  and  O_19
REMARK                            x       y       z     vdW  Elec       q    Type
REMARK                         _______ _______ _______ _____ _____    ______ ____
ROOT
ATOM      1  C   UNL     1       0.235  12.181  18.948  0.00  0.00    +0.000 C 
ATOM      2  C   UNL     1       0.412  10.652  19.000  0.00  0.00    +0.000 C 
ATOM      3  C   UNL     1      -0.929   9.997  18.610  0.00  0.00    +0.000 C 
ATOM      4  C   UNL     1       0.816  10.238  20.422  0.00  0.00    +0.000 C 
ATOM      5  C   UNL     1       1.196   8.775  20.517  0.00  0.00    +0.000 C 
ATOM      6  O   UNL     1       1.017   8.137  21.554  0.00  0.00    +0.000 OA
ATOM      7  C   UNL     1       1.883   8.139  19.361  0.00  0.00    +0.000 C 
ATOM      8  C   UNL     1       2.040   8.843  18.220  0.00  0.00    +0.000 C 
ATOM      9  C   UNL     1       1.522  10.241  18.014  0.00  0.00    +0.000 C 
ENDROOT
BRANCH   7  10
ATOM     10  C   UNL     1       2.497   6.792  19.514  0.00  0.00    +0.000 C 
ATOM     11  N   UNL     1       3.639   6.493  18.988  0.00  0.00    +0.000 NA
BRANCH  11  12
ATOM     12  C   UNL     1       4.218   5.205  19.410  0.00  0.00    +0.000 C 
BRANCH  12  13
ATOM     13  C   UNL     1       3.453   4.115  18.633  0.00  0.00    +0.000 C 
BRANCH  13  14
ATOM     14  N   UNL     1       3.261   2.811  19.293  0.00  0.00    +0.000 NA
ATOM     15  C   UNL     1       2.872   3.034  20.711  0.00  0.00    +0.000 C 
ATOM     16  C   UNL     1       1.469   3.666  20.885  0.00  0.00    +0.000 C 
ATOM     17  N   UNL     1       0.403   2.924  20.194  0.00  0.00    +0.000 NA
ATOM     18  C   UNL     1       0.777   2.586  18.812  0.00  0.00    +0.000 C 
ATOM     19  C   UNL     1       2.198   1.990  18.679  0.00  0.00    +0.000 C 
ATOM     20  H   UNL     1      -0.450   3.482  20.188  0.00  0.00    +0.000 HD
ENDBRANCH  13  14
ENDBRANCH  12  13
ENDBRANCH  11  12
ENDBRANCH   7  10
BRANCH   8  21
ATOM     21  O   UNL     1       2.711   8.351  17.111  0.00  0.00    +0.000 OA
ATOM     22  H   UNL     1       2.802   9.082  16.456  0.00  0.00    +0.000 HD
ENDBRANCH   8  21
TORSDOF 5
ENDMDL
MODEL 4
REMARK VINA RESULT:      -6.6      4.600      6.293
REMARK  Name = 
REMARK  7 active torsions:
REMARK  status: ('A' for Active; 'I' for Inactive)
REMARK    1  A    between atoms: C_1  and  C_2
REMARK    2  A    between atoms: C_2  and  C_3
REMARK    3  A    between atoms: C_7  and  C_8
REMARK    4  A    between atoms: N_9  and  C_10
REMARK    5  A    between atoms: C_10  and  C_11
REMARK    6  A    between atoms: C_11  and  N_12
REMARK    7  A    between atoms: C_18  and  O_19
REMARK                            x       y       z     vdW  Elec       q    Type
REMARK                         _______ _______ _______ _____ _____    ______ ____
ROOT
ATOM      1  C   UNL     1       2.563   2.420  21.074  0.00  0.00    +0.000 C 
ATOM      2  C   UNL     1       2.226   3.637  20.192  0.00  0.00    +0.000 C 
ATOM      3  C   UNL     1       0.914   3.339  19.438  0.00  0.00    +0.000 C 
ATOM      4  C   UNL     1       3.373   3.874  19.200  0.00  0.00    +0.000 C 
ATOM      5  C   UNL     1       3.211   5.164  18.423  0.00  0.00    +0.000 C 
ATOM      6  O   UNL     1       3.650   5.277  17.278  0.00  0.00    +0.000 OA
ATOM      7  C   UNL     1       2.596   6.336  19.102  0.00  0.00    +0.000 C 
ATOM      8  C   UNL     1       2.089   6.184  20.345  0.00  0.00    +0.000 C 
ATOM      9  C   UNL     1       2.064   4.878  21.091  0.00  0.00    +0.000 C 
ENDROOT
BRANCH   7  10
ATOM     10  C   UNL     1       2.658   7.679  18.465  0.00  0.00    +0.000 C 
ATOM     11  N   UNL     1       1.593   8.335  18.136  0.00  0.00    +0.000 NA
BRANCH  11  12
ATOM     12  C   UNL     1       1.808   9.734  17.724  0.00  0.00    +0.000 C 
BRANCH  12  13
ATOM     13  C   UNL     1       1.010  10.601  18.716  0.00  0.00    +0.000 C 
BRANCH  13  14
ATOM     14  N   UNL     1      -0.322  10.121  19.129  0.00  0.00    +0.000 NA
ATOM     15  C   UNL     1      -0.761  10.876  20.333  0.00  0.00    +0.000 C 
ATOM     16  C   UNL     1      -1.055  12.372  20.062  0.00  0.00    +0.000 C 
ATOM     17  N   UNL     1      -2.012  12.592  18.968  0.00  0.00    +0.000 NA
ATOM     18  C   UNL     1      -1.683  11.789  17.781  0.00  0.00    +0.000 C 
ATOM     19  C   UNL     1      -1.363  10.309  18.099  0.00  0.00    +0.000 C 
ATOM     20  H   UNL     1      -2.020  13.580  18.717  0.00  0.00    +0.000 HD
ENDBRANCH  13  14
ENDBRANCH  12  13
ENDBRANCH  11  12
ENDBRANCH   7  10
BRANCH   8  21
ATOM     21  O   UNL     1       1.544   7.230  21.074  0.00  0.00    +0.000 OA
ATOM     22  H   UNL     1       0.859   7.669  20.518  0.00  0.00    +0.000 HD
ENDBRANCH   8  21
TORSDOF 5
ENDMDL
MODEL 5
REMARK VINA RESULT:      -6.5      3.383      4.938
REMARK  Name = 
REMARK  7 active torsions:
REMARK  status: ('A' for Active; 'I' for Inactive)
REMARK    1  A    between atoms: C_1  and  C_2
REMARK    2  A    between atoms: C_2  and  C_3
REMARK    3  A    between atoms: C_7  and  C_8
REMARK    4  A    between atoms: N_9  and  C_10
REMARK    5  A    between atoms: C_10  and  C_11
REMARK    6  A    between atoms: C_11  and  N_12
REMARK    7  A    between atoms: C_18  and  O_19
REMARK                            x       y       z     vdW  Elec       q    Type
REMARK                         _______ _______ _______ _____ _____    ______ ____
ROOT
ATOM      1  C   UNL     1       0.579  12.186  19.305  0.00  0.00    +0.000 C 
ATOM      2  C   UNL     1       0.642  10.652  19.187  0.00  0.00    +0.000 C 
ATOM      3  C   UNL     1      -0.721  10.150  18.670  0.00  0.00    +0.000 C 
ATOM      4  C   UNL     1       0.946  10.052  20.567  0.00  0.00    +0.000 C 
ATOM      5  C   UNL     1       1.214   8.562  20.507  0.00  0.00    +0.000 C 
ATOM      6  O   UNL     1       0.939   7.827  21.455  0.00  0.00    +0.000 OA
ATOM      7  C   UNL     1       1.910   8.008  19.314  0.00  0.00    +0.000 C 
ATOM      8  C   UNL     1       2.173   8.823  18.269  0.00  0.00    +0.000 C 
ATOM      9  C   UNL     1       1.767  10.270  18.206  0.00  0.00    +0.000 C 
ENDROOT
BRANCH   7  10
ATOM     10  C   UNL     1       2.417   6.610  19.334  0.00  0.00    +0.000 C 
ATOM     11  N   UNL     1       2.301   5.821  18.317  0.00  0.00    +0.000 NA
BRANCH  11  12
ATOM     12  C   UNL     1       3.045   4.551  18.407  0.00  0.00    +0.000 C 
BRANCH  12  13
ATOM     13  C   UNL     1       4.538   4.921  18.322  0.00  0.00    +0.000 C 
BRANCH  13  14
ATOM     14  N   UNL     1       4.958   5.832  17.241  0.00  0.00    +0.000 NA
ATOM     15  C   UNL     1       6.264   6.447  17.601  0.00  0.00    +0.000 C 
ATOM     16  C   UNL     1       7.444   5.444  17.620  0.00  0.00    +0.000 C 
ATOM     17  N   UNL     1       7.587   4.683  16.370  0.00  0.00    +0.000 NA
ATOM     18  C   UNL     1       6.301   4.135  15.911  0.00  0.00    +0.000 C 
ATOM     19  C   UNL     1       5.142   5.159  15.939  0.00  0.00    +0.000 C 
ATOM     20  H   UNL     1       8.249   3.921  16.510  0.00  0.00    +0.000 HD
ENDBRANCH  13  14
ENDBRANCH  12  13
ENDBRANCH  11  12
ENDBRANCH   7  10
BRANCH   8  21
ATOM     21  O   UNL     1       2.860   8.408  17.139  0.00  0.00    +0.000 OA
ATOM     22  H   UNL     1       3.124   7.467  17.266  0.00  0.00    +0.000 HD
ENDBRANCH   8  21
TORSDOF 5
ENDMDL
MODEL 6
REMARK VINA RESULT:      -6.5      3.986      6.093
REMARK  Name = 
REMARK  7 active torsions:
REMARK  status: ('A' for Active; 'I' for Inactive)
REMARK    1  A    between atoms: C_1  and  C_2
REMARK    2  A    between atoms: C_2  and  C_3
REMARK    3  A    between atoms: C_7  and  C_8
REMARK    4  A    between atoms: N_9  and  C_10
REMARK    5  A    between atoms: C_10  and  C_11
REMARK    6  A    between atoms: C_11  and  N_12
REMARK    7  A    between atoms: C_18  and  O_19
REMARK                            x       y       z     vdW  Elec       q    Type
REMARK                         _______ _______ _______ _____ _____    ______ ____
ROOT
ATOM      1  C   UNL     1       0.133  12.518  20.929  0.00  0.00    +0.000 C 
ATOM      2  C   UNL     1       0.237  11.158  20.215  0.00  0.00    +0.000 C 
ATOM      3  C   UNL     1      -1.178  10.740  19.763  0.00  0.00    +0.000 C 
ATOM      4  C   UNL     1       0.817  10.120  21.186  0.00  0.00    +0.000 C 
ATOM      5  C   UNL     1       1.131   8.802  20.509  0.00  0.00    +0.000 C 
ATOM      6  O   UNL     1       1.068   7.739  21.127  0.00  0.00    +0.000 OA
ATOM      7  C   UNL     1       1.613   8.817  19.102  0.00  0.00    +0.000 C 
ATOM      8  C   UNL     1       1.642   9.988  18.430  0.00  0.00    +0.000 C 
ATOM      9  C   UNL     1       1.173  11.299  18.999  0.00  0.00    +0.000 C 
ENDROOT
BRANCH   7  10
ATOM     10  C   UNL     1       2.172   7.579  18.497  0.00  0.00    +0.000 C 
ATOM     11  N   UNL     1       3.391   7.510  18.072  0.00  0.00    +0.000 NA
BRANCH  11  12
ATOM     12  C   UNL     1       3.865   6.163  17.707  0.00  0.00    +0.000 C 
BRANCH  12  13
ATOM     13  C   UNL     1       2.753   5.186  18.136  0.00  0.00    +0.000 C 
BRANCH  13  14
ATOM     14  N   UNL     1       3.021   4.306  19.289  0.00  0.00    +0.000 NA
ATOM     15  C   UNL     1       1.735   3.751  19.788  0.00  0.00    +0.000 C 
ATOM     16  C   UNL     1       1.057   2.761  18.809  0.00  0.00    +0.000 C 
ATOM     17  N   UNL     1       1.936   1.661  18.386  0.00  0.00    +0.000 NA
ATOM     18  C   UNL     1       3.263   2.145  17.976  0.00  0.00    +0.000 C 
ATOM     19  C   UNL     1       3.890   3.156  18.964  0.00  0.00    +0.000 C 
ATOM     20  H   UNL     1       1.504   1.159  17.611  0.00  0.00    +0.000 HD
ENDBRANCH  13  14
ENDBRANCH  12  13
ENDBRANCH  11  12
ENDBRANCH   7  10
BRANCH   8  21
ATOM     21  O   UNL     1       2.123  10.107  17.135  0.00  0.00    +0.000 OA
ATOM     22  H   UNL     1       3.005  10.546  17.173  0.00  0.00    +0.000 HD
ENDBRANCH   8  21
TORSDOF 5
ENDMDL
MODEL 7
REMARK VINA RESULT:      -6.4      4.792      6.444
REMARK  Name = 
REMARK  7 active torsions:
REMARK  status: ('A' for Active; 'I' for Inactive)
REMARK    1  A    between atoms: C_1  and  C_2
REMARK    2  A    between atoms: C_2  and  C_3
REMARK    3  A    between atoms: C_7  and  C_8
REMARK    4  A    between atoms: N_9  and  C_10
REMARK    5  A    between atoms: C_10  and  C_11
REMARK    6  A    between atoms: C_11  and  N_12
REMARK    7  A    between atoms: C_18  and  O_19
REMARK                            x       y       z     vdW  Elec       q    Type
REMARK                         _______ _______ _______ _____ _____    ______ ____
ROOT
ATOM      1  C   UNL     1       3.833   2.091  19.349  0.00  0.00    +0.000 C 
ATOM      2  C   UNL     1       3.322   3.423  18.766  0.00  0.00    +0.000 C 
ATOM      3  C   UNL     1       2.100   3.123  17.875  0.00  0.00    +0.000 C 
ATOM      4  C   UNL     1       4.440   4.074  17.941  0.00  0.00    +0.000 C 
ATOM      5  C   UNL     1       4.088   5.476  17.489  0.00  0.00    +0.000 C 
ATOM      6  O   UNL     1       4.534   5.937  16.438  0.00  0.00    +0.000 OA
ATOM      7  C   UNL     1       3.267   6.332  18.387  0.00  0.00    +0.000 C 
ATOM      8  C   UNL     1       2.758   5.799  19.519  0.00  0.00    +0.000 C 
ATOM      9  C   UNL     1       2.930   4.360  19.924  0.00  0.00    +0.000 C 
ENDROOT
BRANCH   7  10
ATOM     10  C   UNL     1       3.121   7.784  18.098  0.00  0.00    +0.000 C 
ATOM     11  N   UNL     1       1.966   8.343  17.942  0.00  0.00    +0.000 NA
BRANCH  11  12
ATOM     12  C   UNL     1       1.973   9.815  17.885  0.00  0.00    +0.000 C 
BRANCH  12  13
ATOM     13  C   UNL     1       0.605  10.273  18.428  0.00  0.00    +0.000 C 
BRANCH  13  14
ATOM     14  N   UNL     1       0.597  11.165  19.602  0.00  0.00    +0.000 NA
ATOM     15  C   UNL     1       0.820  12.565  19.152  0.00  0.00    +0.000 C 
ATOM     16  C   UNL     1      -0.350  13.151  18.325  0.00  0.00    +0.000 C 
ATOM     17  N   UNL     1      -1.653  13.054  19.001  0.00  0.00    +0.000 NA
ATOM     18  C   UNL     1      -1.883  11.712  19.557  0.00  0.00    +0.000 C 
ATOM     19  C   UNL     1      -0.678  11.149  20.347  0.00  0.00    +0.000 C 
ATOM     20  H   UNL     1      -2.396  13.279  18.341  0.00  0.00    +0.000 HD
ENDBRANCH  13  14
ENDBRANCH  12  13
ENDBRANCH  11  12
ENDBRANCH   7  10
BRANCH   8  21
ATOM     21  O   UNL     1       2.025   6.532  20.439  0.00  0.00    +0.000 OA
ATOM     22  H   UNL     1       1.749   5.926  21.166  0.00  0.00    +0.000 HD
ENDBRANCH   8  21
TORSDOF 5
ENDMDL
MODEL 8
REMARK VINA RESULT:      -6.4      4.022      5.785
REMARK  Name = 
REMARK  7 active torsions:
REMARK  status: ('A' for Active; 'I' for Inactive)
REMARK    1  A    between atoms: C_1  and  C_2
REMARK    2  A    between atoms: C_2  and  C_3
REMARK    3  A    between atoms: C_7  and  C_8
REMARK    4  A    between atoms: N_9  and  C_10
REMARK    5  A    between atoms: C_10  and  C_11
REMARK    6  A    between atoms: C_11  and  N_12
REMARK    7  A    between atoms: C_18  and  O_19
REMARK                            x       y       z     vdW  Elec       q    Type
REMARK                         _______ _______ _______ _____ _____    ______ ____
ROOT
ATOM      1  C   UNL     1       3.910   3.209  18.235  0.00  0.00    +0.000 C 
ATOM      2  C   UNL     1       4.533   4.616  18.169  0.00  0.00    +0.000 C 
ATOM      3  C   UNL     1       3.565   5.605  18.851  0.00  0.00    +0.000 C 
ATOM      4  C   UNL     1       4.748   5.005  16.699  0.00  0.00    +0.000 C 
ATOM      5  C   UNL     1       5.530   6.293  16.547  0.00  0.00    +0.000 C 
ATOM      6  O   UNL     1       5.348   7.037  15.583  0.00  0.00    +0.000 OA
ATOM      7  C   UNL     1       6.598   6.602  17.536  0.00  0.00    +0.000 C 
ATOM      8  C   UNL     1       6.759   5.793  18.604  0.00  0.00    +0.000 C 
ATOM      9  C   UNL     1       5.891   4.599  18.896  0.00  0.00    +0.000 C 
ENDROOT
BRANCH   7  10
ATOM     10  C   UNL     1       7.550   7.715  17.274  0.00  0.00    +0.000 C 
ATOM     11  N   UNL     1       7.663   8.726  18.071  0.00  0.00    +0.000 NA
BRANCH  11  12
ATOM     12  C   UNL     1       8.796   9.628  17.799  0.00  0.00    +0.000 C 
BRANCH  12  13
ATOM     13  C   UNL     1       9.171  10.267  19.151  0.00  0.00    +0.000 C 
BRANCH  13  14
ATOM     14  N   UNL     1      10.398  11.083  19.206  0.00  0.00    +0.000 NA
ATOM     15  C   UNL     1      10.436  11.988  18.027  0.00  0.00    +0.000 C 
ATOM     16  C   UNL     1       9.345  13.087  18.045  0.00  0.00    +0.000 C 
ATOM     17  N   UNL     1       9.341  13.888  19.278  0.00  0.00    +0.000 NA
ATOM     18  C   UNL     1       9.406  13.043  20.481  0.00  0.00    +0.000 C 
ATOM     19  C   UNL     1      10.485  11.937  20.408  0.00  0.00    +0.000 C 
ATOM     20  H   UNL     1       8.497  14.459  19.310  0.00  0.00    +0.000 HD
ENDBRANCH  13  14
ENDBRANCH  12  13
ENDBRANCH  11  12
ENDBRANCH   7  10
BRANCH   8  21
ATOM     21  O   UNL     1       7.758   5.973  19.548  0.00  0.00    +0.000 OA
ATOM     22  H   UNL     1       8.522   6.414  19.108  0.00  0.00    +0.000 HD
ENDBRANCH   8  21
TORSDOF 5
ENDMDL
MODEL 9
REMARK VINA RESULT:      -6.4      3.386      5.061
REMARK  Name = 
REMARK  7 active torsions:
REMARK  status: ('A' for Active; 'I' for Inactive)
REMARK    1  A    between atoms: C_1  and  C_2
REMARK    2  A    between atoms: C_2  and  C_3
REMARK    3  A    between atoms: C_7  and  C_8
REMARK    4  A    between atoms: N_9  and  C_10
REMARK    5  A    between atoms: C_10  and  C_11
REMARK    6  A    between atoms: C_11  and  N_12
REMARK    7  A    between atoms: C_18  and  O_19
REMARK                            x       y       z     vdW  Elec       q    Type
REMARK                         _______ _______ _______ _____ _____    ______ ____
ROOT
ATOM      1  C   UNL     1       0.481  12.134  19.421  0.00  0.00    +0.000 C 
ATOM      2  C   UNL     1       0.599  10.608  19.247  0.00  0.00    +0.000 C 
ATOM      3  C   UNL     1      -0.771  10.066  18.791  0.00  0.00    +0.000 C 
ATOM      4  C   UNL     1       1.006   9.977  20.586  0.00  0.00    +0.000 C 
ATOM      5  C   UNL     1       1.330   8.503  20.459  0.00  0.00    +0.000 C 
ATOM      6  O   UNL     1       1.140   7.727  21.396  0.00  0.00    +0.000 OA
ATOM      7  C   UNL     1       1.977   8.018  19.210  0.00  0.00    +0.000 C 
ATOM      8  C   UNL     1       2.146   8.876  18.181  0.00  0.00    +0.000 C 
ATOM      9  C   UNL     1       1.680  10.306  18.191  0.00  0.00    +0.000 C 
ENDROOT
BRANCH   7  10
ATOM     10  C   UNL     1       2.541   6.642  19.154  0.00  0.00    +0.000 C 
ATOM     11  N   UNL     1       2.223   5.806  18.221  0.00  0.00    +0.000 NA
BRANCH  11  12
ATOM     12  C   UNL     1       3.026   4.571  18.171  0.00  0.00    +0.000 C 
BRANCH  12  13
ATOM     13  C   UNL     1       4.202   4.860  17.219  0.00  0.00    +0.000 C 
BRANCH  13  14
ATOM     14  N   UNL     1       5.526   4.323  17.582  0.00  0.00    +0.000 NA
ATOM     15  C   UNL     1       6.288   4.024  16.341  0.00  0.00    +0.000 C 
ATOM     16  C   UNL     1       6.689   5.283  15.533  0.00  0.00    +0.000 C 
ATOM     17  N   UNL     1       7.418   6.283  16.328  0.00  0.00    +0.000 NA
ATOM     18  C   UNL     1       6.760   6.543  17.617  0.00  0.00    +0.000 C 
ATOM     19  C   UNL     1       6.346   5.261  18.376  0.00  0.00    +0.000 C 
ATOM     20  H   UNL     1       7.486   7.152  15.801  0.00  0.00    +0.000 HD
ENDBRANCH  13  14
ENDBRANCH  12  13
ENDBRANCH  11  12
ENDBRANCH   7  10
BRANCH   8  21
ATOM     21  O   UNL     1       2.783   8.527  17.000  0.00  0.00    +0.000 OA
ATOM     22  H   UNL     1       2.946   7.555  17.013  0.00  0.00    +0.000 HD
ENDBRANCH   8  21
TORSDOF 5
ENDMDL
