MODEL 1
REMARK VINA RESULT:      -7.4      0.000      0.000
REMARK  Name = 
REMARK  10 active torsions:
REMARK  status: ('A' for Active; 'I' for Inactive)
REMARK    1  A    between atoms: C_1  and  C_2
REMARK    2  A    between atoms: C_2  and  C_3
REMARK    3  A    between atoms: C_3  and  N_4
REMARK    4  A    between atoms: N_7  and  C_8
REMARK    5  A    between atoms: C_8  and  C_9
REMARK    6  A    between atoms: C_9  and  C_10
REMARK    7  A    between atoms: C_10  and  N_11
REMARK    8  A    between atoms: C_12  and  C_14
REMARK    9  A    between atoms: N_19  and  C_20
REMARK   10  A    between atoms: N_28  and  C_29
REMARK                            x       y       z     vdW  Elec       q    Type
REMARK                         _______ _______ _______ _____ _____    ______ ____
ROOT
ATOM      1  N   UNL     1       1.956   5.232  18.641  0.00  0.00    +0.000 N 
ATOM      2  C   UNL     1       2.612   5.981  19.583  0.00  0.00    +0.000 C 
ATOM      3  O   UNL     1       3.721   5.661  20.008  0.00  0.00    +0.000 OA
ATOM      4  H   UNL     1       1.128   5.607  18.200  0.00  0.00    +0.000 HD
ENDROOT
BRANCH   2   5
ATOM      5  C   UNL     1       1.915   7.193  19.989  0.00  0.00    +0.000 A 
ATOM      6  C   UNL     1       1.180   7.417  21.135  0.00  0.00    +0.000 A 
ATOM      7  C   UNL     1       0.743   8.761  21.109  0.00  0.00    +0.000 A 
ATOM      8  C   UNL     1      -0.035   9.458  22.118  0.00  0.00    +0.000 A 
ATOM      9  O   UNL     1      -0.404   8.868  23.141  0.00  0.00    +0.000 OA
ATOM     10  N   UNL     1      -0.320  10.802  21.850  0.00  0.00    +0.000 N 
ATOM     11  C   UNL     1      -1.074  11.536  22.854  0.00  0.00    +0.000 C 
ATOM     12  C   UNL     1       0.105  11.463  20.639  0.00  0.00    +0.000 A 
ATOM     13  C   UNL     1      -0.242  12.811  20.420  0.00  0.00    +0.000 A 
ATOM     14  C   UNL     1       0.149  13.480  19.261  0.00  0.00    +0.000 A 
ATOM     15  C   UNL     1       0.896  12.810  18.310  0.00  0.00    +0.000 A 
ATOM     16  C   UNL     1       1.255  11.474  18.508  0.00  0.00    +0.000 A 
ATOM     17  C   UNL     1       0.870  10.770  19.656  0.00  0.00    +0.000 A 
ATOM     18  C   UNL     1       1.190   9.357  19.939  0.00  0.00    +0.000 A 
ATOM     19  N   UNL     1       1.907   8.382  19.258  0.00  0.00    +0.000 N 
ATOM     20  C   UNL     1       2.567   8.436  17.968  0.00  0.00    +0.000 C 
ENDBRANCH   2   5
BRANCH   1  21
ATOM     21  C   UNL     1       2.572   4.053  18.074  0.00  0.00    +0.000 C 
BRANCH  21  22
ATOM     22  C   UNL     1       3.429   4.404  16.866  0.00  0.00    +0.000 C 
BRANCH  22  23
ATOM     23  C   UNL     1       4.847   3.842  17.004  0.00  0.00    +0.000 C 
BRANCH  23  27
ATOM     24  N   UNL     1       6.874   6.744  18.187  0.00  0.00    +0.000 NA
ATOM     25  C   UNL     1       5.556   6.818  17.516  0.00  0.00    +0.000 C 
ATOM     26  C   UNL     1       5.496   6.061  16.173  0.00  0.00    +0.000 C 
ATOM     27  N   UNL     1       5.859   4.631  16.280  0.00  0.00    +0.000 NA
ATOM     28  C   UNL     1       7.175   4.529  16.952  0.00  0.00    +0.000 C 
ATOM     29  C   UNL     1       7.266   5.314  18.287  0.00  0.00    +0.000 C 
BRANCH  24  30
ATOM     30  C   UNL     1       7.920   7.499  17.478  0.00  0.00    +0.000 C 
BRANCH  30  32
ATOM     31  C   UNL     1       8.865   9.464  18.721  0.00  0.00    +0.000 C 
ATOM     32  C   UNL     1       7.842   9.014  17.693  0.00  0.00    +0.000 C 
ENDBRANCH  30  32
ENDBRANCH  24  30
ENDBRANCH  23  27
ENDBRANCH  22  23
ENDBRANCH  21  22
ENDBRANCH   1  21
TORSDOF 7
ENDMDL
MODEL 2
REMARK VINA RESULT:      -7.4      2.996      4.461
REMARK  Name = 
REMARK  10 active torsions:
REMARK  status: ('A' for Active; 'I' for Inactive)
REMARK    1  A    between atoms: C_1  and  C_2
REMARK    2  A    between atoms: C_2  and  C_3
REMARK    3  A    between atoms: C_3  and  N_4
REMARK    4  A    between atoms: N_7  and  C_8
REMARK    5  A    between atoms: C_8  and  C_9
REMARK    6  A    between atoms: C_9  and  C_10
REMARK    7  A    between atoms: C_10  and  N_11
REMARK    8  A    between atoms: C_12  and  C_14
REMARK    9  A    between atoms: N_19  and  C_20
REMARK   10  A    between atoms: N_28  and  C_29
REMARK                            x       y       z     vdW  Elec       q    Type
REMARK                         _______ _______ _______ _____ _____    ______ ____
ROOT
ATOM      1  N   UNL     1       1.445   8.694  18.442  0.00  0.00    +0.000 N 
ATOM      2  C   UNL     1       1.360  10.046  18.237  0.00  0.00    +0.000 C 
ATOM      3  O   UNL     1       2.286  10.687  17.742  0.00  0.00    +0.000 OA
ATOM      4  H   UNL     1       0.614   8.179  18.698  0.00  0.00    +0.000 HD
ENDROOT
BRANCH   2   5
ATOM      5  C   UNL     1       0.082  10.637  18.606  0.00  0.00    +0.000 A 
ATOM      6  C   UNL     1      -1.098  10.649  17.890  0.00  0.00    +0.000 A 
ATOM      7  C   UNL     1      -2.076  11.294  18.681  0.00  0.00    +0.000 A 
ATOM      8  C   UNL     1      -3.474  11.512  18.355  0.00  0.00    +0.000 A 
ATOM      9  O   UNL     1      -3.931  11.127  17.272  0.00  0.00    +0.000 OA
ATOM     10  N   UNL     1      -4.234  12.167  19.331  0.00  0.00    +0.000 N 
ATOM     11  C   UNL     1      -5.644  12.377  19.048  0.00  0.00    +0.000 C 
ATOM     12  C   UNL     1      -3.672  12.625  20.580  0.00  0.00    +0.000 A 
ATOM     13  C   UNL     1      -4.488  13.304  21.506  0.00  0.00    +0.000 A 
ATOM     14  C   UNL     1      -3.979  13.763  22.721  0.00  0.00    +0.000 A 
ATOM     15  C   UNL     1      -2.648  13.542  23.025  0.00  0.00    +0.000 A 
ATOM     16  C   UNL     1      -1.821  12.867  22.123  0.00  0.00    +0.000 A 
ATOM     17  C   UNL     1      -2.299  12.403  20.891  0.00  0.00    +0.000 A 
ATOM     18  C   UNL     1      -1.494  11.697  19.873  0.00  0.00    +0.000 A 
ATOM     19  N   UNL     1      -0.167  11.290  19.815  0.00  0.00    +0.000 N 
ATOM     20  C   UNL     1       0.911  11.476  20.765  0.00  0.00    +0.000 C 
ENDBRANCH   2   5
BRANCH   1  21
ATOM     21  C   UNL     1       2.621   7.958  18.033  0.00  0.00    +0.000 C 
BRANCH  21  22
ATOM     22  C   UNL     1       2.570   6.518  18.524  0.00  0.00    +0.000 C 
BRANCH  22  23
ATOM     23  C   UNL     1       3.955   6.025  18.954  0.00  0.00    +0.000 C 
BRANCH  23  27
ATOM     24  N   UNL     1       6.613   5.864  16.340  0.00  0.00    +0.000 NA
ATOM     25  C   UNL     1       5.174   6.115  16.103  0.00  0.00    +0.000 C 
ATOM     26  C   UNL     1       4.244   5.048  16.718  0.00  0.00    +0.000 C 
ATOM     27  N   UNL     1       4.429   4.867  18.175  0.00  0.00    +0.000 NA
ATOM     28  C   UNL     1       5.864   4.617  18.439  0.00  0.00    +0.000 C 
ATOM     29  C   UNL     1       6.818   5.660  17.798  0.00  0.00    +0.000 C 
BRANCH  24  30
ATOM     30  C   UNL     1       7.120   4.697  15.598  0.00  0.00    +0.000 C 
BRANCH  30  32
ATOM     31  C   UNL     1       6.091   3.764  13.508  0.00  0.00    +0.000 C 
ATOM     32  C   UNL     1       7.006   4.834  14.077  0.00  0.00    +0.000 C 
ENDBRANCH  30  32
ENDBRANCH  24  30
ENDBRANCH  23  27
ENDBRANCH  22  23
ENDBRANCH  21  22
ENDBRANCH   1  21
TORSDOF 7
ENDMDL
MODEL 3
REMARK VINA RESULT:      -7.3      1.768      3.019
REMARK  Name = 
REMARK  10 active torsions:
REMARK  status: ('A' for Active; 'I' for Inactive)
REMARK    1  A    between atoms: C_1  and  C_2
REMARK    2  A    between atoms: C_2  and  C_3
REMARK    3  A    between atoms: C_3  and  N_4
REMARK    4  A    between atoms: N_7  and  C_8
REMARK    5  A    between atoms: C_8  and  C_9
REMARK    6  A    between atoms: C_9  and  C_10
REMARK    7  A    between atoms: C_10  and  N_11
REMARK    8  A    between atoms: C_12  and  C_14
REMARK    9  A    between atoms: N_19  and  C_20
REMARK   10  A    between atoms: N_28  and  C_29
REMARK                            x       y       z     vdW  Elec       q    Type
REMARK                         _______ _______ _______ _____ _____    ______ ____
ROOT
ATOM      1  N   UNL     1       3.647   5.765  19.931  0.00  0.00    +0.000 N 
ATOM      2  C   UNL     1       2.409   6.018  19.399  0.00  0.00    +0.000 C 
ATOM      3  O   UNL     1       1.846   5.216  18.657  0.00  0.00    +0.000 OA
ATOM      4  H   UNL     1       4.005   6.368  20.659  0.00  0.00    +0.000 HD
ENDROOT
BRANCH   2   5
ATOM      5  C   UNL     1       1.811   7.276  19.824  0.00  0.00    +0.000 A 
ATOM      6  C   UNL     1       1.065   7.533  20.957  0.00  0.00    +0.000 A 
ATOM      7  C   UNL     1       0.751   8.911  20.961  0.00  0.00    +0.000 A 
ATOM      8  C   UNL     1       0.009   9.645  21.970  0.00  0.00    +0.000 A 
ATOM      9  O   UNL     1      -0.442   9.062  22.963  0.00  0.00    +0.000 OA
ATOM     10  N   UNL     1      -0.146  11.017  21.736  0.00  0.00    +0.000 N 
ATOM     11  C   UNL     1      -0.861  11.787  22.742  0.00  0.00    +0.000 C 
ATOM     12  C   UNL     1       0.372  11.672  20.559  0.00  0.00    +0.000 A 
ATOM     13  C   UNL     1       0.153  13.051  20.373  0.00  0.00    +0.000 A 
ATOM     14  C   UNL     1       0.637  13.716  19.246  0.00  0.00    +0.000 A 
ATOM     15  C   UNL     1       1.350  13.008  18.295  0.00  0.00    +0.000 A 
ATOM     16  C   UNL     1       1.582  11.640  18.461  0.00  0.00    +0.000 A 
ATOM     17  C   UNL     1       1.101  10.941  19.576  0.00  0.00    +0.000 A 
ATOM     18  C   UNL     1       1.285   9.497  19.823  0.00  0.00    +0.000 A 
ATOM     19  N   UNL     1       1.932   8.482  19.130  0.00  0.00    +0.000 N 
ATOM     20  C   UNL     1       2.632   8.513  17.862  0.00  0.00    +0.000 C 
ENDBRANCH   2   5
BRANCH   1  21
ATOM     21  C   UNL     1       4.319   4.511  19.673  0.00  0.00    +0.000 C 
BRANCH  21  22
ATOM     22  C   UNL     1       5.687   4.736  19.046  0.00  0.00    +0.000 C 
BRANCH  22  23
ATOM     23  C   UNL     1       5.646   5.853  18.000  0.00  0.00    +0.000 C 
BRANCH  23  27
ATOM     24  N   UNL     1       6.489   4.323  14.701  0.00  0.00    +0.000 NA
ATOM     25  C   UNL     1       6.483   5.770  15.014  0.00  0.00    +0.000 C 
ATOM     26  C   UNL     1       5.158   6.271  15.628  0.00  0.00    +0.000 C 
ATOM     27  N   UNL     1       4.764   5.550  16.858  0.00  0.00    +0.000 NA
ATOM     28  C   UNL     1       4.766   4.097  16.573  0.00  0.00    +0.000 C 
ATOM     29  C   UNL     1       6.076   3.581  15.922  0.00  0.00    +0.000 C 
BRANCH  24  30
ATOM     30  C   UNL     1       5.599   3.976  13.582  0.00  0.00    +0.000 C 
BRANCH  30  32
ATOM     31  C   UNL     1       5.788   2.279  11.743  0.00  0.00    +0.000 C 
ATOM     32  C   UNL     1       6.341   3.578  12.302  0.00  0.00    +0.000 C 
ENDBRANCH  30  32
ENDBRANCH  24  30
ENDBRANCH  23  27
ENDBRANCH  22  23
ENDBRANCH  21  22
ENDBRANCH   1  21
TORSDOF 7
ENDMDL
MODEL 4
REMARK VINA RESULT:      -7.3      1.586      2.650
REMARK  Name = 
REMARK  10 active torsions:
REMARK  status: ('A' for Active; 'I' for Inactive)
REMARK    1  A    between atoms: C_1  and  C_2
REMARK    2  A    between atoms: C_2  and  C_3
REMARK    3  A    between atoms: C_3  and  N_4
REMARK    4  A    between atoms: N_7  and  C_8
REMARK    5  A    between atoms: C_8  and  C_9
REMARK    6  A    between atoms: C_9  and  C_10
REMARK    7  A    between atoms: C_10  and  N_11
REMARK    8  A    between atoms: C_12  and  C_14
REMARK    9  A    between atoms: N_19  and  C_20
REMARK   10  A    between atoms: N_28  and  C_29
REMARK                            x       y       z     vdW  Elec       q    Type
REMARK                         _______ _______ _______ _____ _____    ______ ____
ROOT
ATOM      1  N   UNL     1       2.752   5.097  17.442  0.00  0.00    +0.000 N 
ATOM      2  C   UNL     1       3.011   5.560  18.706  0.00  0.00    +0.000 C 
ATOM      3  O   UNL     1       3.663   4.903  19.516  0.00  0.00    +0.000 OA
ATOM      4  H   UNL     1       2.357   5.725  16.756  0.00  0.00    +0.000 HD
ENDROOT
BRANCH   2   5
ATOM      5  C   UNL     1       2.500   6.895  18.980  0.00  0.00    +0.000 A 
ATOM      6  C   UNL     1       2.618   8.035  18.211  0.00  0.00    +0.000 A 
ATOM      7  C   UNL     1       1.912   9.070  18.865  0.00  0.00    +0.000 A 
ATOM      8  C   UNL     1       1.732  10.439  18.416  0.00  0.00    +0.000 A 
ATOM      9  O   UNL     1       2.235  10.819  17.352  0.00  0.00    +0.000 OA
ATOM     10  N   UNL     1       0.969  11.262  19.252  0.00  0.00    +0.000 N 
ATOM     11  C   UNL     1       0.746  12.631  18.817  0.00  0.00    +0.000 C 
ATOM     12  C   UNL     1       0.408  10.800  20.500  0.00  0.00    +0.000 A 
ATOM     13  C   UNL     1      -0.326  11.691  21.308  0.00  0.00    +0.000 A 
ATOM     14  C   UNL     1      -0.879  11.280  22.521  0.00  0.00    +0.000 A 
ATOM     15  C   UNL     1      -0.709   9.972  22.936  0.00  0.00    +0.000 A 
ATOM     16  C   UNL     1       0.012   9.071  22.148  0.00  0.00    +0.000 A 
ATOM     17  C   UNL     1       0.589   9.454  20.931  0.00  0.00    +0.000 A 
ATOM     18  C   UNL     1       1.379   8.574  20.046  0.00  0.00    +0.000 A 
ATOM     19  N   UNL     1       1.749   7.237  20.106  0.00  0.00    +0.000 N 
ATOM     20  C   UNL     1       1.498   6.242  21.130  0.00  0.00    +0.000 C 
ENDBRANCH   2   5
BRANCH   1  21
ATOM     21  C   UNL     1       3.281   3.826  16.998  0.00  0.00    +0.000 C 
BRANCH  21  22
ATOM     22  C   UNL     1       4.509   4.016  16.120  0.00  0.00    +0.000 C 
BRANCH  22  23
ATOM     23  C   UNL     1       5.791   3.612  16.855  0.00  0.00    +0.000 C 
BRANCH  23  27
ATOM     24  N   UNL     1       6.984   6.798  18.390  0.00  0.00    +0.000 NA
ATOM     25  C   UNL     1       6.041   6.678  17.254  0.00  0.00    +0.000 C 
ATOM     26  C   UNL     1       6.573   5.814  16.092  0.00  0.00    +0.000 C 
ATOM     27  N   UNL     1       6.955   4.443  16.497  0.00  0.00    +0.000 NA
ATOM     28  C   UNL     1       7.896   4.535  17.636  0.00  0.00    +0.000 C 
ATOM     29  C   UNL     1       7.396   5.430  18.801  0.00  0.00    +0.000 C 
BRANCH  24  30
ATOM     30  C   UNL     1       8.174   7.600  18.064  0.00  0.00    +0.000 C 
BRANCH  30  32
ATOM     31  C   UNL     1       8.903   9.957  18.521  0.00  0.00    +0.000 C 
ATOM     32  C   UNL     1       7.874   9.083  17.825  0.00  0.00    +0.000 C 
ENDBRANCH  30  32
ENDBRANCH  24  30
ENDBRANCH  23  27
ENDBRANCH  22  23
ENDBRANCH  21  22
ENDBRANCH   1  21
TORSDOF 7
ENDMDL
MODEL 5
REMARK VINA RESULT:      -7.3      2.673      7.528
REMARK  Name = 
REMARK  10 active torsions:
REMARK  status: ('A' for Active; 'I' for Inactive)
REMARK    1  A    between atoms: C_1  and  C_2
REMARK    2  A    between atoms: C_2  and  C_3
REMARK    3  A    between atoms: C_3  and  N_4
REMARK    4  A    between atoms: N_7  and  C_8
REMARK    5  A    between atoms: C_8  and  C_9
REMARK    6  A    between atoms: C_9  and  C_10
REMARK    7  A    between atoms: C_10  and  N_11
REMARK    8  A    between atoms: C_12  and  C_14
REMARK    9  A    between atoms: N_19  and  C_20
REMARK   10  A    between atoms: N_28  and  C_29
REMARK                            x       y       z     vdW  Elec       q    Type
REMARK                         _______ _______ _______ _____ _____    ______ ____
ROOT
ATOM      1  N   UNL     1      -0.167   9.906  19.373  0.00  0.00    +0.000 N 
ATOM      2  C   UNL     1       0.743   9.532  20.327  0.00  0.00    +0.000 C 
ATOM      3  O   UNL     1       0.882  10.162  21.373  0.00  0.00    +0.000 OA
ATOM      4  H   UNL     1      -0.366   9.278  18.606  0.00  0.00    +0.000 HD
ENDROOT
BRANCH   2   5
ATOM      5  C   UNL     1       1.482   8.316  20.018  0.00  0.00    +0.000 A 
ATOM      6  C   UNL     1       1.507   7.125  20.716  0.00  0.00    +0.000 A 
ATOM      7  C   UNL     1       2.325   6.223  19.998  0.00  0.00    +0.000 A 
ATOM      8  C   UNL     1       2.621   4.841  20.332  0.00  0.00    +0.000 A 
ATOM      9  O   UNL     1       2.149   4.329  21.354  0.00  0.00    +0.000 OA
ATOM     10  N   UNL     1       3.452   4.161  19.434  0.00  0.00    +0.000 N 
ATOM     11  C   UNL     1       3.746   2.766  19.724  0.00  0.00    +0.000 C 
ATOM     12  C   UNL     1       4.008   4.786  18.257  0.00  0.00    +0.000 A 
ATOM     13  C   UNL     1       4.861   4.050  17.412  0.00  0.00    +0.000 A 
ATOM     14  C   UNL     1       5.418   4.623  16.269  0.00  0.00    +0.000 A 
ATOM     15  C   UNL     1       5.122   5.938  15.956  0.00  0.00    +0.000 A 
ATOM     16  C   UNL     1       4.275   6.685  16.778  0.00  0.00    +0.000 A 
ATOM     17  C   UNL     1       3.708   6.143  17.938  0.00  0.00    +0.000 A 
ATOM     18  C   UNL     1       2.818   6.863  18.871  0.00  0.00    +0.000 A 
ATOM     19  N   UNL     1       2.295   8.149  18.895  0.00  0.00    +0.000 N 
ATOM     20  C   UNL     1       2.501   9.260  17.988  0.00  0.00    +0.000 C 
ENDBRANCH   2   5
BRANCH   1  21
ATOM     21  C   UNL     1      -1.039  11.039  19.588  0.00  0.00    +0.000 C 
BRANCH  21  22
ATOM     22  C   UNL     1      -0.744  12.158  18.600  0.00  0.00    +0.000 C 
BRANCH  22  23
ATOM     23  C   UNL     1       0.140  13.240  19.227  0.00  0.00    +0.000 C 
BRANCH  23  27
ATOM     24  N   UNL     1       3.238  15.318  19.338  0.00  0.00    +0.000 NA
ATOM     25  C   UNL     1       2.642  14.708  18.128  0.00  0.00    +0.000 C 
ATOM     26  C   UNL     1       2.395  13.190  18.252  0.00  0.00    +0.000 C 
ATOM     27  N   UNL     1       1.541  12.818  19.401  0.00  0.00    +0.000 NA
ATOM     28  C   UNL     1       2.115  13.420  20.627  0.00  0.00    +0.000 C 
ATOM     29  C   UNL     1       2.404  14.940  20.510  0.00  0.00    +0.000 C 
BRANCH  24  30
ATOM     30  C   UNL     1       4.631  14.900  19.562  0.00  0.00    +0.000 C 
BRANCH  30  32
ATOM     31  C   UNL     1       6.329  16.652  18.976  0.00  0.00    +0.000 C 
ATOM     32  C   UNL     1       5.608  15.405  18.496  0.00  0.00    +0.000 C 
ENDBRANCH  30  32
ENDBRANCH  24  30
ENDBRANCH  23  27
ENDBRANCH  22  23
ENDBRANCH  21  22
ENDBRANCH   1  21
TORSDOF 7
ENDMDL
MODEL 6
REMARK VINA RESULT:      -7.2      2.861     10.005
REMARK  Name = 
REMARK  10 active torsions:
REMARK  status: ('A' for Active; 'I' for Inactive)
REMARK    1  A    between atoms: C_1  and  C_2
REMARK    2  A    between atoms: C_2  and  C_3
REMARK    3  A    between atoms: C_3  and  N_4
REMARK    4  A    between atoms: N_7  and  C_8
REMARK    5  A    between atoms: C_8  and  C_9
REMARK    6  A    between atoms: C_9  and  C_10
REMARK    7  A    between atoms: C_10  and  N_11
REMARK    8  A    between atoms: C_12  and  C_14
REMARK    9  A    between atoms: N_19  and  C_20
REMARK   10  A    between atoms: N_28  and  C_29
REMARK                            x       y       z     vdW  Elec       q    Type
REMARK                         _______ _______ _______ _____ _____    ______ ____
ROOT
ATOM      1  N   UNL     1       1.083  10.710  20.887  0.00  0.00    +0.000 N 
ATOM      2  C   UNL     1       0.451   9.728  20.168  0.00  0.00    +0.000 C 
ATOM      3  O   UNL     1      -0.698   9.865  19.754  0.00  0.00    +0.000 OA
ATOM      4  H   UNL     1       2.073  10.630  21.070  0.00  0.00    +0.000 HD
ENDROOT
BRANCH   2   5
ATOM      5  C   UNL     1       1.266   8.552  19.902  0.00  0.00    +0.000 A 
ATOM      6  C   UNL     1       1.349   7.381  20.630  0.00  0.00    +0.000 A 
ATOM      7  C   UNL     1       2.232   6.513  19.948  0.00  0.00    +0.000 A 
ATOM      8  C   UNL     1       2.604   5.160  20.320  0.00  0.00    +0.000 A 
ATOM      9  O   UNL     1       2.143   4.644  21.346  0.00  0.00    +0.000 OA
ATOM     10  N   UNL     1       3.490   4.509  19.454  0.00  0.00    +0.000 N 
ATOM     11  C   UNL     1       3.861   3.142  19.783  0.00  0.00    +0.000 C 
ATOM     12  C   UNL     1       4.031   5.140  18.273  0.00  0.00    +0.000 A 
ATOM     13  C   UNL     1       4.942   4.437  17.461  0.00  0.00    +0.000 A 
ATOM     14  C   UNL     1       5.486   5.015  16.314  0.00  0.00    +0.000 A 
ATOM     15  C   UNL     1       5.118   6.302  15.964  0.00  0.00    +0.000 A 
ATOM     16  C   UNL     1       4.213   7.016  16.753  0.00  0.00    +0.000 A 
ATOM     17  C   UNL     1       3.657   6.468  17.916  0.00  0.00    +0.000 A 
ATOM     18  C   UNL     1       2.708   7.155  18.815  0.00  0.00    +0.000 A 
ATOM     19  N   UNL     1       2.110   8.408  18.798  0.00  0.00    +0.000 N 
ATOM     20  C   UNL     1       2.267   9.508  17.868  0.00  0.00    +0.000 C 
ENDBRANCH   2   5
BRANCH   1  21
ATOM     21  C   UNL     1       0.428  11.974  21.143  0.00  0.00    +0.000 C 
BRANCH  21  22
ATOM     22  C   UNL     1      -0.467  11.893  22.372  0.00  0.00    +0.000 C 
BRANCH  22  23
ATOM     23  C   UNL     1      -1.054  13.262  22.727  0.00  0.00    +0.000 C 
BRANCH  23  27
ATOM     24  N   UNL     1      -4.399  13.607  24.348  0.00  0.00    +0.000 NA
ATOM     25  C   UNL     1      -3.800  12.349  23.845  0.00  0.00    +0.000 C 
ATOM     26  C   UNL     1      -3.337  12.423  22.374  0.00  0.00    +0.000 C 
ATOM     27  N   UNL     1      -2.369  13.510  22.110  0.00  0.00    +0.000 NA
ATOM     28  C   UNL     1      -2.944  14.781  22.608  0.00  0.00    +0.000 C 
ATOM     29  C   UNL     1      -3.449  14.717  24.073  0.00  0.00    +0.000 C 
BRANCH  24  30
ATOM     30  C   UNL     1      -5.703  13.904  23.734  0.00  0.00    +0.000 C 
BRANCH  30  32
ATOM     31  C   UNL     1      -7.910  12.915  23.065  0.00  0.00    +0.000 C 
ATOM     32  C   UNL     1      -6.803  12.904  24.104  0.00  0.00    +0.000 C 
ENDBRANCH  30  32
ENDBRANCH  24  30
ENDBRANCH  23  27
ENDBRANCH  22  23
ENDBRANCH  21  22
ENDBRANCH   1  21
TORSDOF 7
ENDMDL
MODEL 7
REMARK VINA RESULT:      -7.2      2.444      9.255
REMARK  Name = 
REMARK  10 active torsions:
REMARK  status: ('A' for Active; 'I' for Inactive)
REMARK    1  A    between atoms: C_1  and  C_2
REMARK    2  A    between atoms: C_2  and  C_3
REMARK    3  A    between atoms: C_3  and  N_4
REMARK    4  A    between atoms: N_7  and  C_8
REMARK    5  A    between atoms: C_8  and  C_9
REMARK    6  A    between atoms: C_9  and  C_10
REMARK    7  A    between atoms: C_10  and  N_11
REMARK    8  A    between atoms: C_12  and  C_14
REMARK    9  A    between atoms: N_19  and  C_20
REMARK   10  A    between atoms: N_28  and  C_29
REMARK                            x       y       z     vdW  Elec       q    Type
REMARK                         _______ _______ _______ _____ _____    ______ ____
ROOT
ATOM      1  N   UNL     1       2.253  11.345  18.615  0.00  0.00    +0.000 N 
ATOM      2  C   UNL     1       1.344  10.320  18.611  0.00  0.00    +0.000 C 
ATOM      3  O   UNL     1       0.132  10.528  18.614  0.00  0.00    +0.000 OA
ATOM      4  H   UNL     1       3.229  11.142  18.450  0.00  0.00    +0.000 HD
ENDROOT
BRANCH   2   5
ATOM      5  C   UNL     1       1.930   8.989  18.552  0.00  0.00    +0.000 A 
ATOM      6  C   UNL     1       2.808   8.477  17.617  0.00  0.00    +0.000 A 
ATOM      7  C   UNL     1       3.136   7.160  18.011  0.00  0.00    +0.000 A 
ATOM      8  C   UNL     1       4.048   6.241  17.353  0.00  0.00    +0.000 A 
ATOM      9  O   UNL     1       4.633   6.576  16.316  0.00  0.00    +0.000 OA
ATOM     10  N   UNL     1       4.207   4.993  17.966  0.00  0.00    +0.000 N 
ATOM     11  C   UNL     1       5.135   4.060  17.348  0.00  0.00    +0.000 C 
ATOM     12  C   UNL     1       3.497   4.618  19.166  0.00  0.00    +0.000 A 
ATOM     13  C   UNL     1       3.682   3.334  19.715  0.00  0.00    +0.000 A 
ATOM     14  C   UNL     1       3.011   2.936  20.871  0.00  0.00    +0.000 A 
ATOM     15  C   UNL     1       2.151   3.822  21.495  0.00  0.00    +0.000 A 
ATOM     16  C   UNL     1       1.956   5.102  20.970  0.00  0.00    +0.000 A 
ATOM     17  C   UNL     1       2.606   5.529  19.806  0.00  0.00    +0.000 A 
ATOM     18  C   UNL     1       2.446   6.854  19.174  0.00  0.00    +0.000 A 
ATOM     19  N   UNL     1       1.706   7.985  19.496  0.00  0.00    +0.000 N 
ATOM     20  C   UNL     1       0.780   8.218  20.585  0.00  0.00    +0.000 C 
ENDBRANCH   2   5
BRANCH   1  21
ATOM     21  C   UNL     1       1.813  12.722  18.575  0.00  0.00    +0.000 C 
BRANCH  21  22
ATOM     22  C   UNL     1       1.961  13.389  19.935  0.00  0.00    +0.000 C 
BRANCH  22  23
ATOM     23  C   UNL     1       0.600  13.783  20.516  0.00  0.00    +0.000 C 
BRANCH  23  27
ATOM     24  N   UNL     1      -2.640  12.792  22.082  0.00  0.00    +0.000 NA
ATOM     25  C   UNL     1      -1.989  14.118  22.191  0.00  0.00    +0.000 C 
ATOM     26  C   UNL     1      -0.528  14.058  22.682  0.00  0.00    +0.000 C 
ATOM     27  N   UNL     1       0.345  13.204  21.847  0.00  0.00    +0.000 NA
ATOM     28  C   UNL     1      -0.285  11.870  21.720  0.00  0.00    +0.000 C 
ATOM     29  C   UNL     1      -1.767  11.911  21.262  0.00  0.00    +0.000 C 
BRANCH  24  30
ATOM     30  C   UNL     1      -2.887  12.168  23.392  0.00  0.00    +0.000 C 
BRANCH  30  32
ATOM     31  C   UNL     1      -5.256  12.979  23.558  0.00  0.00    +0.000 C 
ATOM     32  C   UNL     1      -3.907  12.920  24.252  0.00  0.00    +0.000 C 
ENDBRANCH  30  32
ENDBRANCH  24  30
ENDBRANCH  23  27
ENDBRANCH  22  23
ENDBRANCH  21  22
ENDBRANCH   1  21
TORSDOF 7
ENDMDL
MODEL 8
REMARK VINA RESULT:      -7.2      3.092     10.085
REMARK  Name = 
REMARK  10 active torsions:
REMARK  status: ('A' for Active; 'I' for Inactive)
REMARK    1  A    between atoms: C_1  and  C_2
REMARK    2  A    between atoms: C_2  and  C_3
REMARK    3  A    between atoms: C_3  and  N_4
REMARK    4  A    between atoms: N_7  and  C_8
REMARK    5  A    between atoms: C_8  and  C_9
REMARK    6  A    between atoms: C_9  and  C_10
REMARK    7  A    between atoms: C_10  and  N_11
REMARK    8  A    between atoms: C_12  and  C_14
REMARK    9  A    between atoms: N_19  and  C_20
REMARK   10  A    between atoms: N_28  and  C_29
REMARK                            x       y       z     vdW  Elec       q    Type
REMARK                         _______ _______ _______ _____ _____    ______ ____
ROOT
ATOM      1  N   UNL     1       0.877  10.336  21.249  0.00  0.00    +0.000 N 
ATOM      2  C   UNL     1       0.477   9.587  20.174  0.00  0.00    +0.000 C 
ATOM      3  O   UNL     1      -0.475   9.919  19.469  0.00  0.00    +0.000 OA
ATOM      4  H   UNL     1       1.754  10.121  21.703  0.00  0.00    +0.000 HD
ENDROOT
BRANCH   2   5
ATOM      5  C   UNL     1       1.297   8.411  19.914  0.00  0.00    +0.000 A 
ATOM      6  C   UNL     1       1.384   7.246  20.648  0.00  0.00    +0.000 A 
ATOM      7  C   UNL     1       2.270   6.377  19.972  0.00  0.00    +0.000 A 
ATOM      8  C   UNL     1       2.646   5.027  20.351  0.00  0.00    +0.000 A 
ATOM      9  O   UNL     1       2.188   4.515  21.380  0.00  0.00    +0.000 OA
ATOM     10  N   UNL     1       3.535   4.375  19.489  0.00  0.00    +0.000 N 
ATOM     11  C   UNL     1       3.911   3.011  19.825  0.00  0.00    +0.000 C 
ATOM     12  C   UNL     1       4.073   5.000  18.304  0.00  0.00    +0.000 A 
ATOM     13  C   UNL     1       4.986   4.296  17.495  0.00  0.00    +0.000 A 
ATOM     14  C   UNL     1       5.528   4.869  16.345  0.00  0.00    +0.000 A 
ATOM     15  C   UNL     1       5.156   6.153  15.988  0.00  0.00    +0.000 A 
ATOM     16  C   UNL     1       4.248   6.868  16.773  0.00  0.00    +0.000 A 
ATOM     17  C   UNL     1       3.694   6.325  17.939  0.00  0.00    +0.000 A 
ATOM     18  C   UNL     1       2.743   7.014  18.834  0.00  0.00    +0.000 A 
ATOM     19  N   UNL     1       2.140   8.265  18.811  0.00  0.00    +0.000 N 
ATOM     20  C   UNL     1       2.293   9.360  17.874  0.00  0.00    +0.000 C 
ENDBRANCH   2   5
BRANCH   1  21
ATOM     21  C   UNL     1       0.216  11.581  21.568  0.00  0.00    +0.000 C 
BRANCH  21  22
ATOM     22  C   UNL     1      -0.902  11.371  22.580  0.00  0.00    +0.000 C 
BRANCH  22  23
ATOM     23  C   UNL     1      -2.120  12.240  22.257  0.00  0.00    +0.000 C 
BRANCH  23  27
ATOM     24  N   UNL     1      -4.009  15.389  22.925  0.00  0.00    +0.000 NA
ATOM     25  C   UNL     1      -2.589  15.138  23.262  0.00  0.00    +0.000 C 
ATOM     26  C   UNL     1      -2.362  13.857  24.092  0.00  0.00    +0.000 C 
ATOM     27  N   UNL     1      -2.889  12.632  23.452  0.00  0.00    +0.000 NA
ATOM     28  C   UNL     1      -4.310  12.859  23.102  0.00  0.00    +0.000 C 
ATOM     29  C   UNL     1      -4.564  14.161  22.297  0.00  0.00    +0.000 C 
BRANCH  24  30
ATOM     30  C   UNL     1      -4.818  15.758  24.099  0.00  0.00    +0.000 C 
BRANCH  30  32
ATOM     31  C   UNL     1      -5.193  17.958  25.245  0.00  0.00    +0.000 C 
ATOM     32  C   UNL     1      -4.189  16.855  24.963  0.00  0.00    +0.000 C 
ENDBRANCH  30  32
ENDBRANCH  24  30
ENDBRANCH  23  27
ENDBRANCH  22  23
ENDBRANCH  21  22
ENDBRANCH   1  21
TORSDOF 7
ENDMDL
MODEL 9
REMARK VINA RESULT:      -7.1      2.580      9.445
REMARK  Name = 
REMARK  10 active torsions:
REMARK  status: ('A' for Active; 'I' for Inactive)
REMARK    1  A    between atoms: C_1  and  C_2
REMARK    2  A    between atoms: C_2  and  C_3
REMARK    3  A    between atoms: C_3  and  N_4
REMARK    4  A    between atoms: N_7  and  C_8
REMARK    5  A    between atoms: C_8  and  C_9
REMARK    6  A    between atoms: C_9  and  C_10
REMARK    7  A    between atoms: C_10  and  N_11
REMARK    8  A    between atoms: C_12  and  C_14
REMARK    9  A    between atoms: N_19  and  C_20
REMARK   10  A    between atoms: N_28  and  C_29
REMARK                            x       y       z     vdW  Elec       q    Type
REMARK                         _______ _______ _______ _____ _____    ______ ____
ROOT
ATOM      1  N   UNL     1       0.354  10.786  18.252  0.00  0.00    +0.000 N 
ATOM      2  C   UNL     1       1.192  10.366  19.252  0.00  0.00    +0.000 C 
ATOM      3  O   UNL     1       1.386  11.040  20.262  0.00  0.00    +0.000 OA
ATOM      4  H   UNL     1       0.095  10.140  17.520  0.00  0.00    +0.000 HD
ENDROOT
BRANCH   2   5
ATOM      5  C   UNL     1       1.783   9.053  19.037  0.00  0.00    +0.000 A 
ATOM      6  C   UNL     1       2.617   8.642  18.017  0.00  0.00    +0.000 A 
ATOM      7  C   UNL     1       2.972   7.297  18.266  0.00  0.00    +0.000 A 
ATOM      8  C   UNL     1       3.856   6.456  17.480  0.00  0.00    +0.000 A 
ATOM      9  O   UNL     1       4.388   6.895  16.453  0.00  0.00    +0.000 OA
ATOM     10  N   UNL     1       4.052   5.156  17.962  0.00  0.00    +0.000 N 
ATOM     11  C   UNL     1       4.954   4.296  17.213  0.00  0.00    +0.000 C 
ATOM     12  C   UNL     1       3.404   4.660  19.153  0.00  0.00    +0.000 A 
ATOM     13  C   UNL     1       3.623   3.331  19.566  0.00  0.00    +0.000 A 
ATOM     14  C   UNL     1       3.011   2.817  20.709  0.00  0.00    +0.000 A 
ATOM     15  C   UNL     1       2.177   3.630  21.455  0.00  0.00    +0.000 A 
ATOM     16  C   UNL     1       1.949   4.953  21.067  0.00  0.00    +0.000 A 
ATOM     17  C   UNL     1       2.539   5.496  19.919  0.00  0.00    +0.000 A 
ATOM     18  C   UNL     1       2.341   6.873  19.426  0.00  0.00    +0.000 A 
ATOM     19  N   UNL     1       1.611   7.961  19.890  0.00  0.00    +0.000 N 
ATOM     20  C   UNL     1       0.737   8.079  21.040  0.00  0.00    +0.000 C 
ENDBRANCH   2   5
BRANCH   1  21
ATOM     21  C   UNL     1      -0.378  12.028  18.375  0.00  0.00    +0.000 C 
BRANCH  21  22
ATOM     22  C   UNL     1      -1.812  11.782  18.822  0.00  0.00    +0.000 C 
BRANCH  22  23
ATOM     23  C   UNL     1      -1.949  11.887  20.343  0.00  0.00    +0.000 C 
BRANCH  23  27
ATOM     24  N   UNL     1      -1.770  13.719  23.591  0.00  0.00    +0.000 NA
ATOM     25  C   UNL     1      -2.696  12.610  23.266  0.00  0.00    +0.000 C 
ATOM     26  C   UNL     1      -3.517  12.839  21.979  0.00  0.00    +0.000 C 
ATOM     27  N   UNL     1      -2.686  13.087  20.781  0.00  0.00    +0.000 NA
ATOM     28  C   UNL     1      -1.746  14.192  21.081  0.00  0.00    +0.000 C 
ATOM     29  C   UNL     1      -0.938  13.997  22.391  0.00  0.00    +0.000 C 
BRANCH  24  30
ATOM     30  C   UNL     1      -2.470  14.945  24.007  0.00  0.00    +0.000 C 
BRANCH  30  32
ATOM     31  C   UNL     1      -1.315  15.662  26.116  0.00  0.00    +0.000 C 
ATOM     32  C   UNL     1      -2.596  15.100  25.525  0.00  0.00    +0.000 C 
ENDBRANCH  30  32
ENDBRANCH  24  30
ENDBRANCH  23  27
ENDBRANCH  22  23
ENDBRANCH  21  22
ENDBRANCH   1  21
TORSDOF 7
ENDMDL
