MODEL 1
REMARK VINA RESULT:      -6.5      0.000      0.000
REMARK  Name = 
REMARK  3 active torsions:
REMARK  status: ('A' for Active; 'I' for Inactive)
REMARK    1  A    between atoms: C_2  and  C_11
REMARK    2  A    between atoms: N_3  and  C_4
REMARK    3  A    between atoms: C_4  and  C_5
REMARK                            x       y       z     vdW  Elec       q    Type
REMARK                         _______ _______ _______ _____ _____    ______ ____
ROOT
ATOM      1  O   UNL     1       2.202   3.146  17.020  0.00  0.00    +0.000 OA
ATOM      2  C   UNL     1       2.647   3.342  18.151  0.00  0.00    +0.000 C 
ATOM      3  N   UNL     1       3.658   4.248  18.381  0.00  0.00    +0.000 N 
ATOM      4  H   UNL     1       4.029   4.370  19.314  0.00  0.00    +0.000 HD
ENDROOT
BRANCH   2   5
ATOM      5  C   UNL     1       2.123   2.599  19.410  0.00  0.00    +0.000 C 
ATOM      6  C   UNL     1       2.920   2.828  20.724  0.00  0.00    +0.000 C 
ATOM      7  C   UNL     1       1.579   2.871  21.474  0.00  0.00    +0.000 C 
ATOM      8  C   UNL     1       0.909   3.242  20.140  0.00  0.00    +0.000 C 
ENDBRANCH   2   5
BRANCH   3   9
ATOM      9  C   UNL     1       4.239   5.008  17.297  0.00  0.00    +0.000 C 
BRANCH   9  10
ATOM     10  C   UNL     1       5.547   5.626  17.710  0.00  0.00    +0.000 A 
ATOM     11  C   UNL     1       6.261   5.107  18.801  0.00  0.00    +0.000 A 
ATOM     12  C   UNL     1       7.462   5.694  19.203  0.00  0.00    +0.000 A 
ATOM     13  C   UNL     1       7.958   6.804  18.524  0.00  0.00    +0.000 A 
ATOM     14  C   UNL     1       7.258   7.326  17.436  0.00  0.00    +0.000 A 
ATOM     15  C   UNL     1       6.057   6.741  17.032  0.00  0.00    +0.000 A 
ENDBRANCH   9  10
ENDBRANCH   3   9
TORSDOF 3
ENDMDL
MODEL 2
REMARK VINA RESULT:      -6.5      1.249      5.735
REMARK  Name = 
REMARK  3 active torsions:
REMARK  status: ('A' for Active; 'I' for Inactive)
REMARK    1  A    between atoms: C_2  and  C_11
REMARK    2  A    between atoms: N_3  and  C_4
REMARK    3  A    between atoms: C_4  and  C_5
REMARK                            x       y       z     vdW  Elec       q    Type
REMARK                         _______ _______ _______ _____ _____    ______ ____
ROOT
ATOM      1  O   UNL     1       4.584   5.227  16.756  0.00  0.00    +0.000 OA
ATOM      2  C   UNL     1       5.392   4.574  17.417  0.00  0.00    +0.000 C 
ATOM      3  N   UNL     1       5.067   3.342  17.940  0.00  0.00    +0.000 N 
ATOM      4  H   UNL     1       5.735   2.837  18.505  0.00  0.00    +0.000 HD
ENDROOT
BRANCH   2   5
ATOM      5  C   UNL     1       6.832   5.065  17.723  0.00  0.00    +0.000 C 
ATOM      6  C   UNL     1       7.199   6.483  17.204  0.00  0.00    +0.000 C 
ATOM      7  C   UNL     1       7.962   6.715  18.518  0.00  0.00    +0.000 C 
ATOM      8  C   UNL     1       7.088   5.620  19.153  0.00  0.00    +0.000 C 
ENDBRANCH   2   5
BRANCH   3   9
ATOM      9  C   UNL     1       3.757   2.765  17.730  0.00  0.00    +0.000 C 
BRANCH   9  10
ATOM     10  C   UNL     1       2.909   2.884  18.967  0.00  0.00    +0.000 A 
ATOM     11  C   UNL     1       1.586   3.343  18.876  0.00  0.00    +0.000 A 
ATOM     12  C   UNL     1       0.805   3.480  20.024  0.00  0.00    +0.000 A 
ATOM     13  C   UNL     1       1.338   3.165  21.272  0.00  0.00    +0.000 A 
ATOM     14  C   UNL     1       2.651   2.706  21.374  0.00  0.00    +0.000 A 
ATOM     15  C   UNL     1       3.434   2.568  20.227  0.00  0.00    +0.000 A 
ENDBRANCH   9  10
ENDBRANCH   3   9
TORSDOF 3
ENDMDL
MODEL 3
REMARK VINA RESULT:      -6.5      1.286      5.616
REMARK  Name = 
REMARK  3 active torsions:
REMARK  status: ('A' for Active; 'I' for Inactive)
REMARK    1  A    between atoms: C_2  and  C_11
REMARK    2  A    between atoms: N_3  and  C_4
REMARK    3  A    between atoms: C_4  and  C_5
REMARK                            x       y       z     vdW  Elec       q    Type
REMARK                         _______ _______ _______ _____ _____    ______ ____
ROOT
ATOM      1  O   UNL     1       4.648   5.511  16.824  0.00  0.00    +0.000 OA
ATOM      2  C   UNL     1       5.462   4.810  17.425  0.00  0.00    +0.000 C 
ATOM      3  N   UNL     1       5.133   3.554  17.883  0.00  0.00    +0.000 N 
ATOM      4  H   UNL     1       5.808   3.008  18.400  0.00  0.00    +0.000 HD
ENDROOT
BRANCH   2   5
ATOM      5  C   UNL     1       6.917   5.264  17.722  0.00  0.00    +0.000 C 
ATOM      6  C   UNL     1       7.272   6.726  17.334  0.00  0.00    +0.000 C 
ATOM      7  C   UNL     1       8.087   6.822  18.634  0.00  0.00    +0.000 C 
ATOM      8  C   UNL     1       7.232   5.672  19.189  0.00  0.00    +0.000 C 
ENDBRANCH   2   5
BRANCH   3   9
ATOM      9  C   UNL     1       3.811   3.007  17.674  0.00  0.00    +0.000 C 
BRANCH   9  10
ATOM     10  C   UNL     1       2.976   3.117  18.921  0.00  0.00    +0.000 A 
ATOM     11  C   UNL     1       3.466   2.634  20.144  0.00  0.00    +0.000 A 
ATOM     12  C   UNL     1       2.684   2.711  21.298  0.00  0.00    +0.000 A 
ATOM     13  C   UNL     1       1.407   3.265  21.240  0.00  0.00    +0.000 A 
ATOM     14  C   UNL     1       0.912   3.749  20.030  0.00  0.00    +0.000 A 
ATOM     15  C   UNL     1       1.692   3.675  18.875  0.00  0.00    +0.000 A 
ENDBRANCH   9  10
ENDBRANCH   3   9
TORSDOF 3
ENDMDL
MODEL 4
REMARK VINA RESULT:      -6.4      2.170      5.735
REMARK  Name = 
REMARK  3 active torsions:
REMARK  status: ('A' for Active; 'I' for Inactive)
REMARK    1  A    between atoms: C_2  and  C_11
REMARK    2  A    between atoms: N_3  and  C_4
REMARK    3  A    between atoms: C_4  and  C_5
REMARK                            x       y       z     vdW  Elec       q    Type
REMARK                         _______ _______ _______ _____ _____    ______ ____
ROOT
ATOM      1  O   UNL     1       6.430   4.560  18.918  0.00  0.00    +0.000 OA
ATOM      2  C   UNL     1       5.797   5.009  17.961  0.00  0.00    +0.000 C 
ATOM      3  N   UNL     1       4.545   5.558  18.117  0.00  0.00    +0.000 N 
ATOM      4  H   UNL     1       4.032   5.893  17.313  0.00  0.00    +0.000 HD
ENDROOT
BRANCH   2   5
ATOM      5  C   UNL     1       6.340   4.999  16.506  0.00  0.00    +0.000 C 
ATOM      6  C   UNL     1       6.035   3.726  15.668  0.00  0.00    +0.000 C 
ATOM      7  C   UNL     1       5.785   4.641  14.458  0.00  0.00    +0.000 C 
ATOM      8  C   UNL     1       5.512   5.784  15.450  0.00  0.00    +0.000 C 
ENDBRANCH   2   5
BRANCH   3   9
ATOM      9  C   UNL     1       3.920   5.631  19.420  0.00  0.00    +0.000 C 
BRANCH   9  10
ATOM     10  C   UNL     1       2.781   4.656  19.529  0.00  0.00    +0.000 A 
ATOM     11  C   UNL     1       2.260   4.314  20.786  0.00  0.00    +0.000 A 
ATOM     12  C   UNL     1       1.221   3.389  20.893  0.00  0.00    +0.000 A 
ATOM     13  C   UNL     1       0.695   2.794  19.748  0.00  0.00    +0.000 A 
ATOM     14  C   UNL     1       1.204   3.128  18.494  0.00  0.00    +0.000 A 
ATOM     15  C   UNL     1       2.243   4.053  18.384  0.00  0.00    +0.000 A 
ENDBRANCH   9  10
ENDBRANCH   3   9
TORSDOF 3
ENDMDL
MODEL 5
REMARK VINA RESULT:      -6.4      0.285      1.317
REMARK  Name = 
REMARK  3 active torsions:
REMARK  status: ('A' for Active; 'I' for Inactive)
REMARK    1  A    between atoms: C_2  and  C_11
REMARK    2  A    between atoms: N_3  and  C_4
REMARK    3  A    between atoms: C_4  and  C_5
REMARK                            x       y       z     vdW  Elec       q    Type
REMARK                         _______ _______ _______ _____ _____    ______ ____
ROOT
ATOM      1  O   UNL     1       2.171   2.993  17.136  0.00  0.00    +0.000 OA
ATOM      2  C   UNL     1       2.721   3.113  18.231  0.00  0.00    +0.000 C 
ATOM      3  N   UNL     1       3.887   3.830  18.378  0.00  0.00    +0.000 N 
ATOM      4  H   UNL     1       4.336   3.890  19.281  0.00  0.00    +0.000 HD
ENDROOT
BRANCH   2   5
ATOM      5  C   UNL     1       2.164   2.478  19.534  0.00  0.00    +0.000 C 
ATOM      6  C   UNL     1       2.880   2.878  20.853  0.00  0.00    +0.000 C 
ATOM      7  C   UNL     1       1.501   2.933  21.530  0.00  0.00    +0.000 C 
ATOM      8  C   UNL     1       0.887   3.132  20.134  0.00  0.00    +0.000 C 
ENDBRANCH   2   5
BRANCH   3   9
ATOM      9  C   UNL     1       4.514   4.473  17.245  0.00  0.00    +0.000 C 
BRANCH   9  10
ATOM     10  C   UNL     1       5.690   5.306  17.678  0.00  0.00    +0.000 A 
ATOM     11  C   UNL     1       6.106   6.399  16.903  0.00  0.00    +0.000 A 
ATOM     12  C   UNL     1       7.212   7.158  17.288  0.00  0.00    +0.000 A 
ATOM     13  C   UNL     1       7.915   6.830  18.445  0.00  0.00    +0.000 A 
ATOM     14  C   UNL     1       7.509   5.746  19.223  0.00  0.00    +0.000 A 
ATOM     15  C   UNL     1       6.403   4.986  18.841  0.00  0.00    +0.000 A 
ENDBRANCH   9  10
ENDBRANCH   3   9
TORSDOF 3
ENDMDL
MODEL 6
REMARK VINA RESULT:      -6.3      1.432      2.126
REMARK  Name = 
REMARK  3 active torsions:
REMARK  status: ('A' for Active; 'I' for Inactive)
REMARK    1  A    between atoms: C_2  and  C_11
REMARK    2  A    between atoms: N_3  and  C_4
REMARK    3  A    between atoms: C_4  and  C_5
REMARK                            x       y       z     vdW  Elec       q    Type
REMARK                         _______ _______ _______ _____ _____    ______ ____
ROOT
ATOM      1  O   UNL     1       2.397   6.705  19.077  0.00  0.00    +0.000 OA
ATOM      2  C   UNL     1       2.587   5.518  19.347  0.00  0.00    +0.000 C 
ATOM      3  N   UNL     1       3.442   4.738  18.602  0.00  0.00    +0.000 N 
ATOM      4  H   UNL     1       3.559   3.759  18.823  0.00  0.00    +0.000 HD
ENDROOT
BRANCH   2   5
ATOM      5  C   UNL     1       1.893   4.796  20.533  0.00  0.00    +0.000 C 
ATOM      6  C   UNL     1       0.791   3.766  20.159  0.00  0.00    +0.000 C 
ATOM      7  C   UNL     1       1.324   2.861  21.282  0.00  0.00    +0.000 C 
ATOM      8  C   UNL     1       2.664   3.605  21.169  0.00  0.00    +0.000 C 
ENDBRANCH   2   5
BRANCH   3   9
ATOM      9  C   UNL     1       4.154   5.284  17.468  0.00  0.00    +0.000 C 
BRANCH   9  10
ATOM     10  C   UNL     1       5.503   5.808  17.878  0.00  0.00    +0.000 A 
ATOM     11  C   UNL     1       6.088   6.876  17.181  0.00  0.00    +0.000 A 
ATOM     12  C   UNL     1       7.352   7.348  17.542  0.00  0.00    +0.000 A 
ATOM     13  C   UNL     1       8.043   6.755  18.596  0.00  0.00    +0.000 A 
ATOM     14  C   UNL     1       7.470   5.694  19.296  0.00  0.00    +0.000 A 
ATOM     15  C   UNL     1       6.207   5.221  18.938  0.00  0.00    +0.000 A 
ENDBRANCH   9  10
ENDBRANCH   3   9
TORSDOF 3
ENDMDL
MODEL 7
REMARK VINA RESULT:      -6.3      2.138      5.791
REMARK  Name = 
REMARK  3 active torsions:
REMARK  status: ('A' for Active; 'I' for Inactive)
REMARK    1  A    between atoms: C_2  and  C_11
REMARK    2  A    between atoms: N_3  and  C_4
REMARK    3  A    between atoms: C_4  and  C_5
REMARK                            x       y       z     vdW  Elec       q    Type
REMARK                         _______ _______ _______ _____ _____    ______ ____
ROOT
ATOM      1  O   UNL     1       5.525   5.431  19.291  0.00  0.00    +0.000 OA
ATOM      2  C   UNL     1       5.202   5.859  18.182  0.00  0.00    +0.000 C 
ATOM      3  N   UNL     1       3.962   6.411  17.955  0.00  0.00    +0.000 N 
ATOM      4  H   UNL     1       3.708   6.729  17.030  0.00  0.00    +0.000 HD
ENDROOT
BRANCH   2   5
ATOM      5  C   UNL     1       6.145   5.818  16.950  0.00  0.00    +0.000 C 
ATOM      6  C   UNL     1       7.137   4.624  16.884  0.00  0.00    +0.000 C 
ATOM      7  C   UNL     1       6.871   4.547  15.372  0.00  0.00    +0.000 C 
ATOM      8  C   UNL     1       5.538   5.269  15.628  0.00  0.00    +0.000 C 
ENDBRANCH   2   5
BRANCH   3   9
ATOM      9  C   UNL     1       2.984   6.512  19.017  0.00  0.00    +0.000 C 
BRANCH   9  10
ATOM     10  C   UNL     1       2.252   5.211  19.203  0.00  0.00    +0.000 A 
ATOM     11  C   UNL     1       1.954   4.402  18.096  0.00  0.00    +0.000 A 
ATOM     12  C   UNL     1       1.252   3.208  18.262  0.00  0.00    +0.000 A 
ATOM     13  C   UNL     1       0.837   2.813  19.532  0.00  0.00    +0.000 A 
ATOM     14  C   UNL     1       1.130   3.608  20.639  0.00  0.00    +0.000 A 
ATOM     15  C   UNL     1       1.833   4.803  20.476  0.00  0.00    +0.000 A 
ENDBRANCH   9  10
ENDBRANCH   3   9
TORSDOF 3
ENDMDL
MODEL 8
REMARK VINA RESULT:      -6.3      1.582      5.652
REMARK  Name = 
REMARK  3 active torsions:
REMARK  status: ('A' for Active; 'I' for Inactive)
REMARK    1  A    between atoms: C_2  and  C_11
REMARK    2  A    between atoms: N_3  and  C_4
REMARK    3  A    between atoms: C_4  and  C_5
REMARK                            x       y       z     vdW  Elec       q    Type
REMARK                         _______ _______ _______ _____ _____    ______ ____
ROOT
ATOM      1  O   UNL     1       4.698   5.299  16.117  0.00  0.00    +0.000 OA
ATOM      2  C   UNL     1       5.142   5.713  17.189  0.00  0.00    +0.000 C 
ATOM      3  N   UNL     1       4.316   6.223  18.164  0.00  0.00    +0.000 N 
ATOM      4  H   UNL     1       4.706   6.585  19.023  0.00  0.00    +0.000 HD
ENDROOT
BRANCH   2   5
ATOM      5  C   UNL     1       6.654   5.701  17.541  0.00  0.00    +0.000 C 
ATOM      6  C   UNL     1       7.368   7.081  17.551  0.00  0.00    +0.000 C 
ATOM      7  C   UNL     1       8.143   6.617  18.796  0.00  0.00    +0.000 C 
ATOM      8  C   UNL     1       7.016   5.603  19.050  0.00  0.00    +0.000 C 
ENDBRANCH   2   5
BRANCH   3   9
ATOM      9  C   UNL     1       2.885   6.294  17.967  0.00  0.00    +0.000 C 
BRANCH   9  10
ATOM     10  C   UNL     1       2.188   5.146  18.644  0.00  0.00    +0.000 A 
ATOM     11  C   UNL     1       1.947   5.181  20.026  0.00  0.00    +0.000 A 
ATOM     12  C   UNL     1       1.325   4.107  20.663  0.00  0.00    +0.000 A 
ATOM     13  C   UNL     1       0.941   2.988  19.928  0.00  0.00    +0.000 A 
ATOM     14  C   UNL     1       1.173   2.943  18.553  0.00  0.00    +0.000 A 
ATOM     15  C   UNL     1       1.795   4.017  17.914  0.00  0.00    +0.000 A 
ENDBRANCH   9  10
ENDBRANCH   3   9
TORSDOF 3
ENDMDL
MODEL 9
REMARK VINA RESULT:      -6.3      1.605      5.585
REMARK  Name = 
REMARK  3 active torsions:
REMARK  status: ('A' for Active; 'I' for Inactive)
REMARK    1  A    between atoms: C_2  and  C_11
REMARK    2  A    between atoms: N_3  and  C_4
REMARK    3  A    between atoms: C_4  and  C_5
REMARK                            x       y       z     vdW  Elec       q    Type
REMARK                         _______ _______ _______ _____ _____    ______ ____
ROOT
ATOM      1  O   UNL     1       5.305   4.590  15.731  0.00  0.00    +0.000 OA
ATOM      2  C   UNL     1       5.837   4.620  16.842  0.00  0.00    +0.000 C 
ATOM      3  N   UNL     1       5.322   3.917  17.907  0.00  0.00    +0.000 N 
ATOM      4  H   UNL     1       5.758   3.980  18.817  0.00  0.00    +0.000 HD
ENDROOT
BRANCH   2   5
ATOM      5  C   UNL     1       7.120   5.440  17.146  0.00  0.00    +0.000 C 
ATOM      6  C   UNL     1       6.927   6.970  17.337  0.00  0.00    +0.000 C 
ATOM      7  C   UNL     1       7.955   6.909  18.479  0.00  0.00    +0.000 C 
ATOM      8  C   UNL     1       7.631   5.412  18.615  0.00  0.00    +0.000 C 
ENDBRANCH   2   5
BRANCH   3   9
ATOM      9  C   UNL     1       4.130   3.111  17.763  0.00  0.00    +0.000 C 
BRANCH   9  10
ATOM     10  C   UNL     1       3.077   3.519  18.756  0.00  0.00    +0.000 A 
ATOM     11  C   UNL     1       1.869   2.809  18.839  0.00  0.00    +0.000 A 
ATOM     12  C   UNL     1       0.879   3.201  19.741  0.00  0.00    +0.000 A 
ATOM     13  C   UNL     1       1.083   4.306  20.564  0.00  0.00    +0.000 A 
ATOM     14  C   UNL     1       2.281   5.018  20.491  0.00  0.00    +0.000 A 
ATOM     15  C   UNL     1       3.272   4.627  19.591  0.00  0.00    +0.000 A 
ENDBRANCH   9  10
ENDBRANCH   3   9
TORSDOF 3
ENDMDL
