MODEL 1
REMARK VINA RESULT:      -7.0      0.000      0.000
REMARK  Name = 
REMARK  7 active torsions:
REMARK  status: ('A' for Active; 'I' for Inactive)
REMARK    1  A    between atoms: C_1  and  N_2
REMARK    2  A    between atoms: N_2  and  C_3
REMARK    3  A    between atoms: N_2  and  C_4
REMARK    4  A    between atoms: C_4  and  C_5
REMARK    5  A    between atoms: C_5  and  N_6
REMARK    6  A    between atoms: C_7  and  C_9
REMARK    7  A    between atoms: C_14  and  C_15
REMARK                            x       y       z     vdW  Elec       q    Type
REMARK                         _______ _______ _______ _____ _____    ______ ____
ROOT
ATOM      1  C   UNL     1       2.773   5.414  18.320  0.00  0.00    +0.000 A 
ATOM      2  C   UNL     1       1.604   4.627  18.212  0.00  0.00    +0.000 A 
ATOM      3  C   UNL     1       1.658   3.310  17.773  0.00  0.00    +0.000 A 
ATOM      4  C   UNL     1       2.879   2.752  17.438  0.00  0.00    +0.000 A 
ATOM      5  C   UNL     1       4.046   3.516  17.552  0.00  0.00    +0.000 A 
ATOM      6  C   UNL     1       4.045   4.864  17.994  0.00  0.00    +0.000 A 
ENDROOT
BRANCH   6   7
ATOM      7  C   UNL     1       5.357   5.577  18.099  0.00  0.00    +0.000 A 
ATOM      8  C   UNL     1       6.272   5.280  19.135  0.00  0.00    +0.000 A 
ATOM      9  C   UNL     1       7.510   5.926  19.241  0.00  0.00    +0.000 A 
ATOM     10  C   UNL     1       7.888   6.868  18.292  0.00  0.00    +0.000 A 
ATOM     11  C   UNL     1       7.007   7.195  17.270  0.00  0.00    +0.000 A 
ATOM     12  C   UNL     1       5.747   6.587  17.202  0.00  0.00    +0.000 A 
ENDBRANCH   6   7
BRANCH   1  14
ATOM     13  N   UNL     1       2.477   7.774  17.748  0.00  0.00    +0.000 N 
ATOM     14  C   UNL     1       2.580   6.833  18.754  0.00  0.00    +0.000 C 
ATOM     15  O   UNL     1       2.507   7.134  19.943  0.00  0.00    +0.000 OA
ATOM     16  H   UNL     1       2.785   7.556  16.809  0.00  0.00    +0.000 HD
BRANCH  13  17
ATOM     17  C   UNL     1       2.221   9.173  18.042  0.00  0.00    +0.000 C 
BRANCH  17  18
ATOM     18  C   UNL     1       0.731   9.555  17.944  0.00  0.00    +0.000 C 
BRANCH  18  20
ATOM     19  C   UNL     1      -1.190  10.596  19.034  0.00  0.00    +0.000 C 
ATOM     20  N   UNL     1       0.270  10.524  18.967  0.00  0.00    +0.000 NA
ATOM     21  C   UNL     1       0.801  10.131  20.278  0.00  0.00    +0.000 C 
ENDBRANCH  18  20
ENDBRANCH  17  18
ENDBRANCH  13  17
ENDBRANCH   1  14
TORSDOF 5
ENDMDL
MODEL 2
REMARK VINA RESULT:      -6.9      0.300      1.316
REMARK  Name = 
REMARK  7 active torsions:
REMARK  status: ('A' for Active; 'I' for Inactive)
REMARK    1  A    between atoms: C_1  and  N_2
REMARK    2  A    between atoms: N_2  and  C_3
REMARK    3  A    between atoms: N_2  and  C_4
REMARK    4  A    between atoms: C_4  and  C_5
REMARK    5  A    between atoms: C_5  and  N_6
REMARK    6  A    between atoms: C_7  and  C_9
REMARK    7  A    between atoms: C_14  and  C_15
REMARK                            x       y       z     vdW  Elec       q    Type
REMARK                         _______ _______ _______ _____ _____    ______ ____
ROOT
ATOM      1  C   UNL     1       2.770   5.354  18.352  0.00  0.00    +0.000 A 
ATOM      2  C   UNL     1       1.591   4.580  18.277  0.00  0.00    +0.000 A 
ATOM      3  C   UNL     1       1.624   3.252  17.868  0.00  0.00    +0.000 A 
ATOM      4  C   UNL     1       2.835   2.672  17.532  0.00  0.00    +0.000 A 
ATOM      5  C   UNL     1       4.011   3.423  17.615  0.00  0.00    +0.000 A 
ATOM      6  C   UNL     1       4.032   4.782  18.025  0.00  0.00    +0.000 A 
ENDROOT
BRANCH   6   7
ATOM      7  C   UNL     1       5.354   5.481  18.097  0.00  0.00    +0.000 A 
ATOM      8  C   UNL     1       5.736   6.431  17.123  0.00  0.00    +0.000 A 
ATOM      9  C   UNL     1       6.962   7.105  17.182  0.00  0.00    +0.000 A 
ATOM     10  C   UNL     1       7.832   6.875  18.240  0.00  0.00    +0.000 A 
ATOM     11  C   UNL     1       7.496   5.938  19.207  0.00  0.00    +0.000 A 
ATOM     12  C   UNL     1       6.294   5.225  19.111  0.00  0.00    +0.000 A 
ENDBRANCH   6   7
BRANCH   1  14
ATOM     13  N   UNL     1       2.495   7.704  17.728  0.00  0.00    +0.000 N 
ATOM     14  C   UNL     1       2.600   6.786  18.754  0.00  0.00    +0.000 C 
ATOM     15  O   UNL     1       2.546   7.116  19.937  0.00  0.00    +0.000 OA
ATOM     16  H   UNL     1       2.787   7.460  16.790  0.00  0.00    +0.000 HD
BRANCH  13  17
ATOM     17  C   UNL     1       2.259   9.112  17.991  0.00  0.00    +0.000 C 
BRANCH  17  18
ATOM     18  C   UNL     1       0.770   9.505  17.922  0.00  0.00    +0.000 C 
BRANCH  18  20
ATOM     19  C   UNL     1       0.986  11.122  19.740  0.00  0.00    +0.000 C 
ATOM     20  N   UNL     1       0.202  10.012  19.195  0.00  0.00    +0.000 NA
ATOM     21  C   UNL     1      -1.178  10.455  18.966  0.00  0.00    +0.000 C 
ENDBRANCH  18  20
ENDBRANCH  17  18
ENDBRANCH  13  17
ENDBRANCH   1  14
TORSDOF 5
ENDMDL
MODEL 3
REMARK VINA RESULT:      -6.9      1.647      1.838
REMARK  Name = 
REMARK  7 active torsions:
REMARK  status: ('A' for Active; 'I' for Inactive)
REMARK    1  A    between atoms: C_1  and  N_2
REMARK    2  A    between atoms: N_2  and  C_3
REMARK    3  A    between atoms: N_2  and  C_4
REMARK    4  A    between atoms: C_4  and  C_5
REMARK    5  A    between atoms: C_5  and  N_6
REMARK    6  A    between atoms: C_7  and  C_9
REMARK    7  A    between atoms: C_14  and  C_15
REMARK                            x       y       z     vdW  Elec       q    Type
REMARK                         _______ _______ _______ _____ _____    ______ ____
ROOT
ATOM      1  C   UNL     1       2.599   4.884  18.501  0.00  0.00    +0.000 A 
ATOM      2  C   UNL     1       1.470   4.035  18.536  0.00  0.00    +0.000 A 
ATOM      3  C   UNL     1       1.581   2.676  18.266  0.00  0.00    +0.000 A 
ATOM      4  C   UNL     1       2.819   2.140  17.959  0.00  0.00    +0.000 A 
ATOM      5  C   UNL     1       3.947   2.968  17.933  0.00  0.00    +0.000 A 
ATOM      6  C   UNL     1       3.888   4.360  18.201  0.00  0.00    +0.000 A 
ENDROOT
BRANCH   6   7
ATOM      7  C   UNL     1       5.163   5.143  18.167  0.00  0.00    +0.000 A 
ATOM      8  C   UNL     1       6.084   5.093  19.238  0.00  0.00    +0.000 A 
ATOM      9  C   UNL     1       7.288   5.807  19.218  0.00  0.00    +0.000 A 
ATOM     10  C   UNL     1       7.627   6.570  18.108  0.00  0.00    +0.000 A 
ATOM     11  C   UNL     1       6.740   6.654  17.043  0.00  0.00    +0.000 A 
ATOM     12  C   UNL     1       5.511   5.983  17.094  0.00  0.00    +0.000 A 
ENDBRANCH   6   7
BRANCH   1  14
ATOM     13  N   UNL     1       2.129   6.698  20.073  0.00  0.00    +0.000 N 
ATOM     14  C   UNL     1       2.345   6.337  18.758  0.00  0.00    +0.000 C 
ATOM     15  O   UNL     1       2.342   7.158  17.843  0.00  0.00    +0.000 OA
ATOM     16  H   UNL     1       1.887   6.000  20.764  0.00  0.00    +0.000 HD
BRANCH  13  17
ATOM     17  C   UNL     1       1.939   8.086  20.456  0.00  0.00    +0.000 C 
BRANCH  17  18
ATOM     18  C   UNL     1       0.907   8.272  21.587  0.00  0.00    +0.000 C 
BRANCH  18  20
ATOM     19  C   UNL     1       0.788  10.682  21.207  0.00  0.00    +0.000 C 
ATOM     20  N   UNL     1       0.902   9.619  22.207  0.00  0.00    +0.000 NA
ATOM     21  C   UNL     1      -0.217   9.713  23.150  0.00  0.00    +0.000 C 
ENDBRANCH  18  20
ENDBRANCH  17  18
ENDBRANCH  13  17
ENDBRANCH   1  14
TORSDOF 5
ENDMDL
MODEL 4
REMARK VINA RESULT:      -6.8      3.776      7.113
REMARK  Name = 
REMARK  7 active torsions:
REMARK  status: ('A' for Active; 'I' for Inactive)
REMARK    1  A    between atoms: C_1  and  N_2
REMARK    2  A    between atoms: N_2  and  C_3
REMARK    3  A    between atoms: N_2  and  C_4
REMARK    4  A    between atoms: C_4  and  C_5
REMARK    5  A    between atoms: C_5  and  N_6
REMARK    6  A    between atoms: C_7  and  C_9
REMARK    7  A    between atoms: C_14  and  C_15
REMARK                            x       y       z     vdW  Elec       q    Type
REMARK                         _______ _______ _______ _____ _____    ______ ____
ROOT
ATOM      1  C   UNL     1       6.131   5.509  17.017  0.00  0.00    +0.000 A 
ATOM      2  C   UNL     1       7.386   6.125  17.223  0.00  0.00    +0.000 A 
ATOM      3  C   UNL     1       7.923   6.262  18.498  0.00  0.00    +0.000 A 
ATOM      4  C   UNL     1       7.219   5.783  19.589  0.00  0.00    +0.000 A 
ATOM      5  C   UNL     1       5.982   5.160  19.398  0.00  0.00    +0.000 A 
ATOM      6  C   UNL     1       5.390   4.995  18.119  0.00  0.00    +0.000 A 
ENDROOT
BRANCH   6   7
ATOM      7  C   UNL     1       4.071   4.291  18.033  0.00  0.00    +0.000 A 
ATOM      8  C   UNL     1       3.994   2.881  17.994  0.00  0.00    +0.000 A 
ATOM      9  C   UNL     1       2.769   2.204  17.927  0.00  0.00    +0.000 A 
ATOM     10  C   UNL     1       1.579   2.919  17.933  0.00  0.00    +0.000 A 
ATOM     11  C   UNL     1       1.617   4.307  17.956  0.00  0.00    +0.000 A 
ATOM     12  C   UNL     1       2.847   4.979  17.964  0.00  0.00    +0.000 A 
ENDBRANCH   6   7
BRANCH   1  14
ATOM     13  N   UNL     1       5.708   4.246  14.965  0.00  0.00    +0.000 N 
ATOM     14  C   UNL     1       5.635   5.467  15.606  0.00  0.00    +0.000 C 
ATOM     15  O   UNL     1       5.180   6.469  15.058  0.00  0.00    +0.000 OA
ATOM     16  H   UNL     1       6.302   3.512  15.328  0.00  0.00    +0.000 HD
BRANCH  13  17
ATOM     17  C   UNL     1       5.196   4.064  13.619  0.00  0.00    +0.000 C 
BRANCH  17  18
ATOM     18  C   UNL     1       6.258   3.553  12.625  0.00  0.00    +0.000 C 
BRANCH  18  20
ATOM     19  C   UNL     1       5.958   1.449  11.423  0.00  0.00    +0.000 C 
ATOM     20  N   UNL     1       5.709   2.891  11.417  0.00  0.00    +0.000 NA
ATOM     21  C   UNL     1       4.265   3.138  11.344  0.00  0.00    +0.000 C 
ENDBRANCH  18  20
ENDBRANCH  17  18
ENDBRANCH  13  17
ENDBRANCH   1  14
TORSDOF 5
ENDMDL
MODEL 5
REMARK VINA RESULT:      -6.8      2.893      5.538
REMARK  Name = 
REMARK  7 active torsions:
REMARK  status: ('A' for Active; 'I' for Inactive)
REMARK    1  A    between atoms: C_1  and  N_2
REMARK    2  A    between atoms: N_2  and  C_3
REMARK    3  A    between atoms: N_2  and  C_4
REMARK    4  A    between atoms: C_4  and  C_5
REMARK    5  A    between atoms: C_5  and  N_6
REMARK    6  A    between atoms: C_7  and  C_9
REMARK    7  A    between atoms: C_14  and  C_15
REMARK                            x       y       z     vdW  Elec       q    Type
REMARK                         _______ _______ _______ _____ _____    ______ ____
ROOT
ATOM      1  C   UNL     1       3.706   3.774  19.091  0.00  0.00    +0.000 A 
ATOM      2  C   UNL     1       3.758   2.362  19.073  0.00  0.00    +0.000 A 
ATOM      3  C   UNL     1       2.603   1.595  19.173  0.00  0.00    +0.000 A 
ATOM      4  C   UNL     1       1.376   2.223  19.289  0.00  0.00    +0.000 A 
ATOM      5  C   UNL     1       1.308   3.620  19.295  0.00  0.00    +0.000 A 
ATOM      6  C   UNL     1       2.456   4.448  19.197  0.00  0.00    +0.000 A 
ENDROOT
BRANCH   6   7
ATOM      7  C   UNL     1       2.262   5.933  19.192  0.00  0.00    +0.000 A 
ATOM      8  C   UNL     1       2.415   6.688  18.008  0.00  0.00    +0.000 A 
ATOM      9  C   UNL     1       2.224   8.075  17.980  0.00  0.00    +0.000 A 
ATOM     10  C   UNL     1       1.837   8.747  19.132  0.00  0.00    +0.000 A 
ATOM     11  C   UNL     1       1.692   8.039  20.317  0.00  0.00    +0.000 A 
ATOM     12  C   UNL     1       1.941   6.661  20.351  0.00  0.00    +0.000 A 
ENDBRANCH   6   7
BRANCH   1  14
ATOM     13  N   UNL     1       5.952   3.982  18.146  0.00  0.00    +0.000 N 
ATOM     14  C   UNL     1       5.020   4.488  19.030  0.00  0.00    +0.000 C 
ATOM     15  O   UNL     1       5.243   5.477  19.724  0.00  0.00    +0.000 OA
ATOM     16  H   UNL     1       5.854   3.045  17.777  0.00  0.00    +0.000 HD
BRANCH  13  17
ATOM     17  C   UNL     1       7.237   4.629  17.947  0.00  0.00    +0.000 C 
BRANCH  17  18
ATOM     18  C   UNL     1       7.336   5.395  16.614  0.00  0.00    +0.000 C 
BRANCH  18  20
ATOM     19  C   UNL     1       5.305   6.238  15.552  0.00  0.00    +0.000 C 
ATOM     20  N   UNL     1       6.240   5.117  15.655  0.00  0.00    +0.000 NA
ATOM     21  C   UNL     1       6.813   4.834  14.334  0.00  0.00    +0.000 C 
ENDBRANCH  18  20
ENDBRANCH  17  18
ENDBRANCH  13  17
ENDBRANCH   1  14
TORSDOF 5
ENDMDL
MODEL 6
REMARK VINA RESULT:      -6.7      2.811      5.393
REMARK  Name = 
REMARK  7 active torsions:
REMARK  status: ('A' for Active; 'I' for Inactive)
REMARK    1  A    between atoms: C_1  and  N_2
REMARK    2  A    between atoms: N_2  and  C_3
REMARK    3  A    between atoms: N_2  and  C_4
REMARK    4  A    between atoms: C_4  and  C_5
REMARK    5  A    between atoms: C_5  and  N_6
REMARK    6  A    between atoms: C_7  and  C_9
REMARK    7  A    between atoms: C_14  and  C_15
REMARK                            x       y       z     vdW  Elec       q    Type
REMARK                         _______ _______ _______ _____ _____    ______ ____
ROOT
ATOM      1  C   UNL     1       3.762   3.726  18.938  0.00  0.00    +0.000 A 
ATOM      2  C   UNL     1       3.839   2.316  18.880  0.00  0.00    +0.000 A 
ATOM      3  C   UNL     1       2.694   1.528  18.924  0.00  0.00    +0.000 A 
ATOM      4  C   UNL     1       1.454   2.133  19.022  0.00  0.00    +0.000 A 
ATOM      5  C   UNL     1       1.363   3.528  19.068  0.00  0.00    +0.000 A 
ATOM      6  C   UNL     1       2.499   4.377  19.027  0.00  0.00    +0.000 A 
ENDROOT
BRANCH   6   7
ATOM      7  C   UNL     1       2.280   5.858  19.060  0.00  0.00    +0.000 A 
ATOM      8  C   UNL     1       1.928   6.521  20.257  0.00  0.00    +0.000 A 
ATOM      9  C   UNL     1       1.733   7.907  20.310  0.00  0.00    +0.000 A 
ATOM     10  C   UNL     1       1.918   8.680  19.171  0.00  0.00    +0.000 A 
ATOM     11  C   UNL     1       2.250   8.059  17.973  0.00  0.00    +0.000 A 
ATOM     12  C   UNL     1       2.387   6.666  17.914  0.00  0.00    +0.000 A 
ENDBRANCH   6   7
BRANCH   1  14
ATOM     13  N   UNL     1       6.007   4.040  18.018  0.00  0.00    +0.000 N 
ATOM     14  C   UNL     1       5.065   4.462  18.935  0.00  0.00    +0.000 C 
ATOM     15  O   UNL     1       5.273   5.398  19.705  0.00  0.00    +0.000 OA
ATOM     16  H   UNL     1       5.923   3.133  17.578  0.00  0.00    +0.000 HD
BRANCH  13  17
ATOM     17  C   UNL     1       7.282   4.720  17.874  0.00  0.00    +0.000 C 
BRANCH  17  18
ATOM     18  C   UNL     1       7.172   6.083  17.163  0.00  0.00    +0.000 C 
BRANCH  18  20
ATOM     19  C   UNL     1       7.098   4.716  15.141  0.00  0.00    +0.000 C 
ATOM     20  N   UNL     1       6.764   6.009  15.739  0.00  0.00    +0.000 NA
ATOM     21  C   UNL     1       5.318   6.237  15.638  0.00  0.00    +0.000 C 
ENDBRANCH  18  20
ENDBRANCH  17  18
ENDBRANCH  13  17
ENDBRANCH   1  14
TORSDOF 5
ENDMDL
MODEL 7
REMARK VINA RESULT:      -6.7      3.761      7.151
REMARK  Name = 
REMARK  7 active torsions:
REMARK  status: ('A' for Active; 'I' for Inactive)
REMARK    1  A    between atoms: C_1  and  N_2
REMARK    2  A    between atoms: N_2  and  C_3
REMARK    3  A    between atoms: N_2  and  C_4
REMARK    4  A    between atoms: C_4  and  C_5
REMARK    5  A    between atoms: C_5  and  N_6
REMARK    6  A    between atoms: C_7  and  C_9
REMARK    7  A    between atoms: C_14  and  C_15
REMARK                            x       y       z     vdW  Elec       q    Type
REMARK                         _______ _______ _______ _____ _____    ______ ____
ROOT
ATOM      1  C   UNL     1       6.153   5.514  17.043  0.00  0.00    +0.000 A 
ATOM      2  C   UNL     1       7.412   6.127  17.232  0.00  0.00    +0.000 A 
ATOM      3  C   UNL     1       7.957   6.281  18.501  0.00  0.00    +0.000 A 
ATOM      4  C   UNL     1       7.258   5.821  19.603  0.00  0.00    +0.000 A 
ATOM      5  C   UNL     1       6.017   5.200  19.429  0.00  0.00    +0.000 A 
ATOM      6  C   UNL     1       5.417   5.020  18.157  0.00  0.00    +0.000 A 
ENDROOT
BRANCH   6   7
ATOM      7  C   UNL     1       4.094   4.321  18.089  0.00  0.00    +0.000 A 
ATOM      8  C   UNL     1       2.890   5.042  17.930  0.00  0.00    +0.000 A 
ATOM      9  C   UNL     1       1.645   4.406  17.851  0.00  0.00    +0.000 A 
ATOM     10  C   UNL     1       1.570   3.019  17.892  0.00  0.00    +0.000 A 
ATOM     11  C   UNL     1       2.731   2.278  18.062  0.00  0.00    +0.000 A 
ATOM     12  C   UNL     1       3.967   2.925  18.199  0.00  0.00    +0.000 A 
ENDBRANCH   6   7
BRANCH   1  14
ATOM     13  N   UNL     1       5.700   4.220  15.017  0.00  0.00    +0.000 N 
ATOM     14  C   UNL     1       5.648   5.453  15.635  0.00  0.00    +0.000 C 
ATOM     15  O   UNL     1       5.204   6.451  15.072  0.00  0.00    +0.000 OA
ATOM     16  H   UNL     1       6.285   3.484  15.389  0.00  0.00    +0.000 HD
BRANCH  13  17
ATOM     17  C   UNL     1       5.177   4.021  13.676  0.00  0.00    +0.000 C 
BRANCH  17  18
ATOM     18  C   UNL     1       6.253   3.597  12.658  0.00  0.00    +0.000 C 
BRANCH  18  20
ATOM     19  C   UNL     1       5.993   1.487  11.457  0.00  0.00    +0.000 C 
ATOM     20  N   UNL     1       5.728   2.926  11.444  0.00  0.00    +0.000 NA
ATOM     21  C   UNL     1       4.281   3.156  11.352  0.00  0.00    +0.000 C 
ENDBRANCH  18  20
ENDBRANCH  17  18
ENDBRANCH  13  17
ENDBRANCH   1  14
TORSDOF 5
ENDMDL
MODEL 8
REMARK VINA RESULT:      -6.7      1.799      3.701
REMARK  Name = 
REMARK  7 active torsions:
REMARK  status: ('A' for Active; 'I' for Inactive)
REMARK    1  A    between atoms: C_1  and  N_2
REMARK    2  A    between atoms: N_2  and  C_3
REMARK    3  A    between atoms: N_2  and  C_4
REMARK    4  A    between atoms: C_4  and  C_5
REMARK    5  A    between atoms: C_5  and  N_6
REMARK    6  A    between atoms: C_7  and  C_9
REMARK    7  A    between atoms: C_14  and  C_15
REMARK                            x       y       z     vdW  Elec       q    Type
REMARK                         _______ _______ _______ _____ _____    ______ ____
ROOT
ATOM      1  C   UNL     1       3.716   6.187  17.570  0.00  0.00    +0.000 A 
ATOM      2  C   UNL     1       4.536   6.731  16.556  0.00  0.00    +0.000 A 
ATOM      3  C   UNL     1       5.329   5.917  15.755  0.00  0.00    +0.000 A 
ATOM      4  C   UNL     1       5.316   4.547  15.950  0.00  0.00    +0.000 A 
ATOM      5  C   UNL     1       4.499   3.995  16.942  0.00  0.00    +0.000 A 
ATOM      6  C   UNL     1       3.671   4.781  17.785  0.00  0.00    +0.000 A 
ENDROOT
BRANCH   6   7
ATOM      7  C   UNL     1       2.821   4.079  18.798  0.00  0.00    +0.000 A 
ATOM      8  C   UNL     1       3.347   3.682  20.049  0.00  0.00    +0.000 A 
ATOM      9  C   UNL     1       2.564   3.037  21.014  0.00  0.00    +0.000 A 
ATOM     10  C   UNL     1       1.217   2.800  20.772  0.00  0.00    +0.000 A 
ATOM     11  C   UNL     1       0.670   3.163  19.549  0.00  0.00    +0.000 A 
ATOM     12  C   UNL     1       1.473   3.755  18.565  0.00  0.00    +0.000 A 
ENDBRANCH   6   7
BRANCH   1  14
ATOM     13  N   UNL     1       2.568   8.338  17.772  0.00  0.00    +0.000 N 
ATOM     14  C   UNL     1       2.948   7.168  18.400  0.00  0.00    +0.000 C 
ATOM     15  O   UNL     1       2.667   6.931  19.573  0.00  0.00    +0.000 OA
ATOM     16  H   UNL     1       3.012   8.625  16.910  0.00  0.00    +0.000 HD
BRANCH  13  17
ATOM     17  C   UNL     1       1.762   9.336  18.453  0.00  0.00    +0.000 C 
BRANCH  17  18
ATOM     18  C   UNL     1       0.350   9.493  17.854  0.00  0.00    +0.000 C 
BRANCH  18  20
ATOM     19  C   UNL     1      -1.899  10.416  18.080  0.00  0.00    +0.000 C 
ATOM     20  N   UNL     1      -0.516  10.471  18.555  0.00  0.00    +0.000 NA
ATOM     21  C   UNL     1      -0.483  10.200  19.996  0.00  0.00    +0.000 C 
ENDBRANCH  18  20
ENDBRANCH  17  18
ENDBRANCH  13  17
ENDBRANCH   1  14
TORSDOF 5
ENDMDL
MODEL 9
REMARK VINA RESULT:      -6.6      2.822      5.526
REMARK  Name = 
REMARK  7 active torsions:
REMARK  status: ('A' for Active; 'I' for Inactive)
REMARK    1  A    between atoms: C_1  and  N_2
REMARK    2  A    between atoms: N_2  and  C_3
REMARK    3  A    between atoms: N_2  and  C_4
REMARK    4  A    between atoms: C_4  and  C_5
REMARK    5  A    between atoms: C_5  and  N_6
REMARK    6  A    between atoms: C_7  and  C_9
REMARK    7  A    between atoms: C_14  and  C_15
REMARK                            x       y       z     vdW  Elec       q    Type
REMARK                         _______ _______ _______ _____ _____    ______ ____
ROOT
ATOM      1  C   UNL     1       3.584   3.829  19.749  0.00  0.00    +0.000 A 
ATOM      2  C   UNL     1       3.618   2.561  20.370  0.00  0.00    +0.000 A 
ATOM      3  C   UNL     1       2.687   2.205  21.338  0.00  0.00    +0.000 A 
ATOM      4  C   UNL     1       1.702   3.107  21.701  0.00  0.00    +0.000 A 
ATOM      5  C   UNL     1       1.648   4.361  21.085  0.00  0.00    +0.000 A 
ATOM      6  C   UNL     1       2.575   4.774  20.092  0.00  0.00    +0.000 A 
ENDROOT
BRANCH   6   7
ATOM      7  C   UNL     1       2.407   6.132  19.485  0.00  0.00    +0.000 A 
ATOM      8  C   UNL     1       2.663   6.359  18.114  0.00  0.00    +0.000 A 
ATOM      9  C   UNL     1       2.498   7.619  17.525  0.00  0.00    +0.000 A 
ATOM     10  C   UNL     1       2.037   8.687  18.284  0.00  0.00    +0.000 A 
ATOM     11  C   UNL     1       1.789   8.503  19.638  0.00  0.00    +0.000 A 
ATOM     12  C   UNL     1       2.012   7.255  20.233  0.00  0.00    +0.000 A 
ENDBRANCH   6   7
BRANCH   1  14
ATOM     13  N   UNL     1       5.741   4.855  19.221  0.00  0.00    +0.000 N 
ATOM     14  C   UNL     1       4.671   4.115  18.760  0.00  0.00    +0.000 C 
ATOM     15  O   UNL     1       4.610   3.698  17.605  0.00  0.00    +0.000 OA
ATOM     16  H   UNL     1       5.663   5.393  20.075  0.00  0.00    +0.000 HD
BRANCH  13  17
ATOM     17  C   UNL     1       6.887   5.138  18.376  0.00  0.00    +0.000 C 
BRANCH  17  18
ATOM     18  C   UNL     1       6.712   6.402  17.511  0.00  0.00    +0.000 C 
BRANCH  18  20
ATOM     19  C   UNL     1       7.182   4.817  15.714  0.00  0.00    +0.000 C 
ATOM     20  N   UNL     1       6.696   6.156  16.049  0.00  0.00    +0.000 NA
ATOM     21  C   UNL     1       5.327   6.320  15.546  0.00  0.00    +0.000 C 
ENDBRANCH  18  20
ENDBRANCH  17  18
ENDBRANCH  13  17
ENDBRANCH   1  14
TORSDOF 5
ENDMDL
