MODEL 1
REMARK VINA RESULT:      -7.1      0.000      0.000
REMARK  Name = 
REMARK  10 active torsions:
REMARK  status: ('A' for Active; 'I' for Inactive)
REMARK    1  A    between atoms: C_1  and  C_2
REMARK    2  A    between atoms: C_2  and  N_3
REMARK    3  A    between atoms: C_2  and  C_16
REMARK    4  A    between atoms: C_4  and  C_6
REMARK    5  A    between atoms: C_6  and  C_7
REMARK    6  A    between atoms: C_10  and  C_11
REMARK    7  A    between atoms: C_11  and  O_13
REMARK    8  A    between atoms: C_21  and  N_22
REMARK    9  A    between atoms: N_22  and  C_23
REMARK   10  A    between atoms: N_22  and  C_24
REMARK                            x       y       z     vdW  Elec       q    Type
REMARK                         _______ _______ _______ _____ _____    ______ ____
ROOT
ATOM      1  N   UNL     1       1.546   8.679  19.590  0.00  0.00    +0.000 N 
ATOM      2  C   UNL     1       2.032   7.915  18.551  0.00  0.00    +0.000 C 
ATOM      3  O   UNL     1       1.837   8.182  17.371  0.00  0.00    +0.000 OA
ATOM      4  H   UNL     1       1.544   8.269  20.516  0.00  0.00    +0.000 HD
ENDROOT
BRANCH   1   6
ATOM      5  C   UNL     1       1.609  11.050  18.884  0.00  0.00    +0.000 C 
ATOM      6  C   UNL     1       0.737   9.888  19.390  0.00  0.00    +0.000 C 
BRANCH   6   7
ATOM      7  C   UNL     1       0.060  10.307  20.697  0.00  0.00    +0.000 A 
ATOM      8  C   UNL     1       0.328   9.490  21.834  0.00  0.00    +0.000 A 
ATOM      9  C   UNL     1      -0.299   9.692  23.055  0.00  0.00    +0.000 A 
ATOM     10  C   UNL     1      -1.152  10.768  23.195  0.00  0.00    +0.000 A 
ATOM     11  C   UNL     1      -1.384  11.621  22.109  0.00  0.00    +0.000 A 
ATOM     12  C   UNL     1      -0.824  11.412  20.823  0.00  0.00    +0.000 A 
BRANCH  12  13
ATOM     13  N   UNL     1      -1.231  12.207  19.734  0.00  0.00    +0.000 N 
ATOM     14  C   UNL     1      -2.508  11.864  19.090  0.00  0.00    +0.000 C 
ATOM     15  C   UNL     1      -1.033  13.659  19.812  0.00  0.00    +0.000 C 
ENDBRANCH  12  13
ENDBRANCH   6   7
ENDBRANCH   1   6
BRANCH   2  16
ATOM     16  C   UNL     1       2.895   6.738  18.990  0.00  0.00    +0.000 C 
BRANCH  16  17
ATOM     17  C   UNL     1       3.782   6.161  17.899  0.00  0.00    +0.000 A 
ATOM     18  C   UNL     1       4.786   6.963  17.331  0.00  0.00    +0.000 A 
ATOM     19  C   UNL     1       5.644   6.448  16.348  0.00  0.00    +0.000 A 
ATOM     20  C   UNL     1       5.513   5.121  15.921  0.00  0.00    +0.000 A 
ATOM     21  C   UNL     1       4.546   4.303  16.514  0.00  0.00    +0.000 A 
ATOM     22  C   UNL     1       3.693   4.823  17.496  0.00  0.00    +0.000 A 
BRANCH  20  23
ATOM     23  C   UNL     1       6.456   4.623  14.888  0.00  0.00    +0.000 C 
ATOM     24  O   UNL     1       6.220   3.650  14.190  0.00  0.00    +0.000 OA
BRANCH  23  25
ATOM     25  O   UNL     1       7.619   5.305  14.814  0.00  0.00    +0.000 OA
ATOM     26  H   UNL     1       8.349   4.843  14.363  0.00  0.00    +0.000 HD
ENDBRANCH  23  25
ENDBRANCH  20  23
ENDBRANCH  16  17
ENDBRANCH   2  16
TORSDOF 7
ENDMDL
MODEL 2
REMARK VINA RESULT:      -7.1      2.635      3.682
REMARK  Name = 
REMARK  10 active torsions:
REMARK  status: ('A' for Active; 'I' for Inactive)
REMARK    1  A    between atoms: C_1  and  C_2
REMARK    2  A    between atoms: C_2  and  N_3
REMARK    3  A    between atoms: C_2  and  C_16
REMARK    4  A    between atoms: C_4  and  C_6
REMARK    5  A    between atoms: C_6  and  C_7
REMARK    6  A    between atoms: C_10  and  C_11
REMARK    7  A    between atoms: C_11  and  O_13
REMARK    8  A    between atoms: C_21  and  N_22
REMARK    9  A    between atoms: N_22  and  C_23
REMARK   10  A    between atoms: N_22  and  C_24
REMARK                            x       y       z     vdW  Elec       q    Type
REMARK                         _______ _______ _______ _____ _____    ______ ____
ROOT
ATOM      1  N   UNL     1       1.482   9.359  18.066  0.00  0.00    +0.000 N 
ATOM      2  C   UNL     1       2.137   8.302  18.662  0.00  0.00    +0.000 C 
ATOM      3  O   UNL     1       1.923   7.942  19.813  0.00  0.00    +0.000 OA
ATOM      4  H   UNL     1       1.878   9.739  17.215  0.00  0.00    +0.000 HD
ENDROOT
BRANCH   1   6
ATOM      5  C   UNL     1      -0.850  10.181  17.955  0.00  0.00    +0.000 C 
ATOM      6  C   UNL     1       0.466  10.166  18.753  0.00  0.00    +0.000 C 
BRANCH   6   7
ATOM      7  C   UNL     1       0.953  11.606  18.934  0.00  0.00    +0.000 A 
ATOM      8  C   UNL     1       2.118  11.973  18.199  0.00  0.00    +0.000 A 
ATOM      9  C   UNL     1       2.727  13.210  18.349  0.00  0.00    +0.000 A 
ATOM     10  C   UNL     1       2.141  14.146  19.177  0.00  0.00    +0.000 A 
ATOM     11  C   UNL     1       0.962  13.829  19.863  0.00  0.00    +0.000 A 
ATOM     12  C   UNL     1       0.344  12.555  19.799  0.00  0.00    +0.000 A 
BRANCH  12  13
ATOM     13  N   UNL     1      -0.742  12.249  20.643  0.00  0.00    +0.000 N 
ATOM     14  C   UNL     1      -0.478  12.206  22.089  0.00  0.00    +0.000 C 
ATOM     15  C   UNL     1      -2.050  12.842  20.345  0.00  0.00    +0.000 C 
ENDBRANCH  12  13
ENDBRANCH   6   7
ENDBRANCH   1   6
BRANCH   2  16
ATOM     16  C   UNL     1       3.110   7.571  17.745  0.00  0.00    +0.000 C 
BRANCH  16  17
ATOM     17  C   UNL     1       3.394   6.132  18.141  0.00  0.00    +0.000 A 
ATOM     18  C   UNL     1       4.639   5.804  18.703  0.00  0.00    +0.000 A 
ATOM     19  C   UNL     1       4.917   4.492  19.112  0.00  0.00    +0.000 A 
ATOM     20  C   UNL     1       3.953   3.487  18.968  0.00  0.00    +0.000 A 
ATOM     21  C   UNL     1       2.695   3.815  18.451  0.00  0.00    +0.000 A 
ATOM     22  C   UNL     1       2.423   5.128  18.046  0.00  0.00    +0.000 A 
BRANCH  20  23
ATOM     23  C   UNL     1       4.294   2.118  19.430  0.00  0.00    +0.000 C 
ATOM     24  O   UNL     1       4.853   1.897  20.492  0.00  0.00    +0.000 OA
BRANCH  23  25
ATOM     25  O   UNL     1       3.978   1.137  18.557  0.00  0.00    +0.000 OA
ATOM     26  H   UNL     1       3.297   1.365  17.898  0.00  0.00    +0.000 HD
ENDBRANCH  23  25
ENDBRANCH  20  23
ENDBRANCH  16  17
ENDBRANCH   2  16
TORSDOF 7
ENDMDL
MODEL 3
REMARK VINA RESULT:      -7.1      0.305      1.202
REMARK  Name = 
REMARK  10 active torsions:
REMARK  status: ('A' for Active; 'I' for Inactive)
REMARK    1  A    between atoms: C_1  and  C_2
REMARK    2  A    between atoms: C_2  and  N_3
REMARK    3  A    between atoms: C_2  and  C_16
REMARK    4  A    between atoms: C_4  and  C_6
REMARK    5  A    between atoms: C_6  and  C_7
REMARK    6  A    between atoms: C_10  and  C_11
REMARK    7  A    between atoms: C_11  and  O_13
REMARK    8  A    between atoms: C_21  and  N_22
REMARK    9  A    between atoms: N_22  and  C_23
REMARK   10  A    between atoms: N_22  and  C_24
REMARK                            x       y       z     vdW  Elec       q    Type
REMARK                         _______ _______ _______ _____ _____    ______ ____
ROOT
ATOM      1  N   UNL     1       1.590   8.555  19.459  0.00  0.00    +0.000 N 
ATOM      2  C   UNL     1       2.293   7.944  18.443  0.00  0.00    +0.000 C 
ATOM      3  O   UNL     1       2.293   8.348  17.287  0.00  0.00    +0.000 OA
ATOM      4  H   UNL     1       1.449   8.033  20.315  0.00  0.00    +0.000 HD
ENDROOT
BRANCH   1   6
ATOM      5  C   UNL     1       1.605  10.912  18.703  0.00  0.00    +0.000 C 
ATOM      6  C   UNL     1       0.761   9.750  19.257  0.00  0.00    +0.000 C 
BRANCH   6   7
ATOM      7  C   UNL     1       0.116  10.188  20.574  0.00  0.00    +0.000 A 
ATOM      8  C   UNL     1       0.383   9.367  21.708  0.00  0.00    +0.000 A 
ATOM      9  C   UNL     1      -0.220   9.588  22.939  0.00  0.00    +0.000 A 
ATOM     10  C   UNL     1      -1.044  10.685  23.090  0.00  0.00    +0.000 A 
ATOM     11  C   UNL     1      -1.272  11.541  22.006  0.00  0.00    +0.000 A 
ATOM     12  C   UNL     1      -0.738  11.316  20.712  0.00  0.00    +0.000 A 
BRANCH  12  13
ATOM     13  N   UNL     1      -1.142  12.119  19.628  0.00  0.00    +0.000 N 
ATOM     14  C   UNL     1      -2.312  11.669  18.857  0.00  0.00    +0.000 C 
ATOM     15  C   UNL     1      -1.123  13.577  19.789  0.00  0.00    +0.000 C 
ENDBRANCH  12  13
ENDBRANCH   6   7
ENDBRANCH   1   6
BRANCH   2  16
ATOM     16  C   UNL     1       3.131   6.751  18.891  0.00  0.00    +0.000 C 
BRANCH  16  17
ATOM     17  C   UNL     1       4.105   6.233  17.847  0.00  0.00    +0.000 A 
ATOM     18  C   UNL     1       3.867   4.989  17.239  0.00  0.00    +0.000 A 
ATOM     19  C   UNL     1       4.728   4.500  16.246  0.00  0.00    +0.000 A 
ATOM     20  C   UNL     1       5.839   5.251  15.842  0.00  0.00    +0.000 A 
ATOM     21  C   UNL     1       6.056   6.511  16.408  0.00  0.00    +0.000 A 
ATOM     22  C   UNL     1       5.192   6.994  17.399  0.00  0.00    +0.000 A 
BRANCH  20  23
ATOM     23  C   UNL     1       6.710   4.694  14.776  0.00  0.00    +0.000 C 
ATOM     24  O   UNL     1       7.612   5.331  14.257  0.00  0.00    +0.000 OA
BRANCH  23  25
ATOM     25  O   UNL     1       6.393   3.438  14.393  0.00  0.00    +0.000 OA
ATOM     26  H   UNL     1       7.130   2.799  14.398  0.00  0.00    +0.000 HD
ENDBRANCH  23  25
ENDBRANCH  20  23
ENDBRANCH  16  17
ENDBRANCH   2  16
TORSDOF 7
ENDMDL
MODEL 4
REMARK VINA RESULT:      -7.0      1.970      3.025
REMARK  Name = 
REMARK  10 active torsions:
REMARK  status: ('A' for Active; 'I' for Inactive)
REMARK    1  A    between atoms: C_1  and  C_2
REMARK    2  A    between atoms: C_2  and  N_3
REMARK    3  A    between atoms: C_2  and  C_16
REMARK    4  A    between atoms: C_4  and  C_6
REMARK    5  A    between atoms: C_6  and  C_7
REMARK    6  A    between atoms: C_10  and  C_11
REMARK    7  A    between atoms: C_11  and  O_13
REMARK    8  A    between atoms: C_21  and  N_22
REMARK    9  A    between atoms: N_22  and  C_23
REMARK   10  A    between atoms: N_22  and  C_24
REMARK                            x       y       z     vdW  Elec       q    Type
REMARK                         _______ _______ _______ _____ _____    ______ ____
ROOT
ATOM      1  N   UNL     1       1.388   8.668  19.503  0.00  0.00    +0.000 N 
ATOM      2  C   UNL     1       2.026   8.508  18.292  0.00  0.00    +0.000 C 
ATOM      3  O   UNL     1       2.491   9.440  17.647  0.00  0.00    +0.000 OA
ATOM      4  H   UNL     1       0.830   7.897  19.848  0.00  0.00    +0.000 HD
ENDROOT
BRANCH   1   6
ATOM      5  C   UNL     1       0.765   9.807  21.610  0.00  0.00    +0.000 C 
ATOM      6  C   UNL     1       1.192   9.976  20.141  0.00  0.00    +0.000 C 
BRANCH   6   7
ATOM      7  C   UNL     1       0.121  10.782  19.402  0.00  0.00    +0.000 A 
ATOM      8  C   UNL     1      -1.052  10.069  19.021  0.00  0.00    +0.000 A 
ATOM      9  C   UNL     1      -2.055  10.648  18.256  0.00  0.00    +0.000 A 
ATOM     10  C   UNL     1      -1.949  11.982  17.920  0.00  0.00    +0.000 A 
ATOM     11  C   UNL     1      -0.835  12.721  18.336  0.00  0.00    +0.000 A 
ATOM     12  C   UNL     1       0.248  12.154  19.055  0.00  0.00    +0.000 A 
BRANCH  12  13
ATOM     13  N   UNL     1       1.413  12.909  19.294  0.00  0.00    +0.000 N 
ATOM     14  C   UNL     1       2.204  13.317  18.122  0.00  0.00    +0.000 C 
ATOM     15  C   UNL     1       1.370  13.962  20.315  0.00  0.00    +0.000 C 
ENDBRANCH  12  13
ENDBRANCH   6   7
ENDBRANCH   1   6
BRANCH   2  16
ATOM     16  C   UNL     1       2.167   7.057  17.846  0.00  0.00    +0.000 C 
BRANCH  16  17
ATOM     17  C   UNL     1       3.558   6.472  18.020  0.00  0.00    +0.000 A 
ATOM     18  C   UNL     1       4.608   6.938  17.212  0.00  0.00    +0.000 A 
ATOM     19  C   UNL     1       5.911   6.444  17.374  0.00  0.00    +0.000 A 
ATOM     20  C   UNL     1       6.184   5.478  18.350  0.00  0.00    +0.000 A 
ATOM     21  C   UNL     1       5.153   5.042  19.189  0.00  0.00    +0.000 A 
ATOM     22  C   UNL     1       3.854   5.540  19.023  0.00  0.00    +0.000 A 
BRANCH  20  23
ATOM     23  C   UNL     1       7.582   4.999  18.489  0.00  0.00    +0.000 C 
ATOM     24  O   UNL     1       8.299   5.308  19.427  0.00  0.00    +0.000 OA
BRANCH  23  25
ATOM     25  O   UNL     1       8.016   4.230  17.466  0.00  0.00    +0.000 OA
ATOM     26  H   UNL     1       8.472   3.408  17.724  0.00  0.00    +0.000 HD
ENDBRANCH  23  25
ENDBRANCH  20  23
ENDBRANCH  16  17
ENDBRANCH   2  16
TORSDOF 7
ENDMDL
MODEL 5
REMARK VINA RESULT:      -7.0      3.196      3.888
REMARK  Name = 
REMARK  10 active torsions:
REMARK  status: ('A' for Active; 'I' for Inactive)
REMARK    1  A    between atoms: C_1  and  C_2
REMARK    2  A    between atoms: C_2  and  N_3
REMARK    3  A    between atoms: C_2  and  C_16
REMARK    4  A    between atoms: C_4  and  C_6
REMARK    5  A    between atoms: C_6  and  C_7
REMARK    6  A    between atoms: C_10  and  C_11
REMARK    7  A    between atoms: C_11  and  O_13
REMARK    8  A    between atoms: C_21  and  N_22
REMARK    9  A    between atoms: N_22  and  C_23
REMARK   10  A    between atoms: N_22  and  C_24
REMARK                            x       y       z     vdW  Elec       q    Type
REMARK                         _______ _______ _______ _____ _____    ______ ____
ROOT
ATOM      1  N   UNL     1       1.828  10.285  18.959  0.00  0.00    +0.000 N 
ATOM      2  C   UNL     1       1.390   9.300  18.100  0.00  0.00    +0.000 C 
ATOM      3  O   UNL     1       0.284   9.311  17.572  0.00  0.00    +0.000 OA
ATOM      4  H   UNL     1       2.640  10.085  19.530  0.00  0.00    +0.000 HD
ENDROOT
BRANCH   1   6
ATOM      5  C   UNL     1       1.885  12.702  19.490  0.00  0.00    +0.000 C 
ATOM      6  C   UNL     1       1.010  11.445  19.337  0.00  0.00    +0.000 C 
BRANCH   6   7
ATOM      7  C   UNL     1       0.281  11.184  20.657  0.00  0.00    +0.000 A 
ATOM      8  C   UNL     1       0.884  10.233  21.531  0.00  0.00    +0.000 A 
ATOM      9  C   UNL     1       0.279   9.824  22.711  0.00  0.00    +0.000 A 
ATOM     10  C   UNL     1      -0.910  10.415  23.089  0.00  0.00    +0.000 A 
ATOM     11  C   UNL     1      -1.490  11.397  22.277  0.00  0.00    +0.000 A 
ATOM     12  C   UNL     1      -0.947  11.793  21.029  0.00  0.00    +0.000 A 
BRANCH  12  13
ATOM     13  N   UNL     1      -1.668  12.660  20.184  0.00  0.00    +0.000 N 
ATOM     14  C   UNL     1      -1.295  14.083  20.202  0.00  0.00    +0.000 C 
ATOM     15  C   UNL     1      -2.004  12.202  18.831  0.00  0.00    +0.000 C 
ENDBRANCH  12  13
ENDBRANCH   6   7
ENDBRANCH   1   6
BRANCH   2  16
ATOM     16  C   UNL     1       2.425   8.221  17.804  0.00  0.00    +0.000 C 
BRANCH  16  17
ATOM     17  C   UNL     1       2.297   6.970  18.658  0.00  0.00    +0.000 A 
ATOM     18  C   UNL     1       1.946   7.093  20.012  0.00  0.00    +0.000 A 
ATOM     19  C   UNL     1       1.785   5.956  20.817  0.00  0.00    +0.000 A 
ATOM     20  C   UNL     1       1.970   4.677  20.277  0.00  0.00    +0.000 A 
ATOM     21  C   UNL     1       2.275   4.545  18.919  0.00  0.00    +0.000 A 
ATOM     22  C   UNL     1       2.434   5.685  18.121  0.00  0.00    +0.000 A 
BRANCH  20  23
ATOM     23  C   UNL     1       1.774   3.506  21.169  0.00  0.00    +0.000 C 
ATOM     24  O   UNL     1       2.587   3.176  22.018  0.00  0.00    +0.000 OA
BRANCH  23  25
ATOM     25  O   UNL     1       0.643   2.806  20.935  0.00  0.00    +0.000 OA
ATOM     26  H   UNL     1       0.655   1.878  21.231  0.00  0.00    +0.000 HD
ENDBRANCH  23  25
ENDBRANCH  20  23
ENDBRANCH  16  17
ENDBRANCH   2  16
TORSDOF 7
ENDMDL
MODEL 6
REMARK VINA RESULT:      -6.9      2.863      3.691
REMARK  Name = 
REMARK  10 active torsions:
REMARK  status: ('A' for Active; 'I' for Inactive)
REMARK    1  A    between atoms: C_1  and  C_2
REMARK    2  A    between atoms: C_2  and  N_3
REMARK    3  A    between atoms: C_2  and  C_16
REMARK    4  A    between atoms: C_4  and  C_6
REMARK    5  A    between atoms: C_6  and  C_7
REMARK    6  A    between atoms: C_10  and  C_11
REMARK    7  A    between atoms: C_11  and  O_13
REMARK    8  A    between atoms: C_21  and  N_22
REMARK    9  A    between atoms: N_22  and  C_23
REMARK   10  A    between atoms: N_22  and  C_24
REMARK                            x       y       z     vdW  Elec       q    Type
REMARK                         _______ _______ _______ _____ _____    ______ ____
ROOT
ATOM      1  N   UNL     1       1.901   9.807  19.082  0.00  0.00    +0.000 N 
ATOM      2  C   UNL     1       1.735   8.851  18.104  0.00  0.00    +0.000 C 
ATOM      3  O   UNL     1       0.783   8.836  17.332  0.00  0.00    +0.000 OA
ATOM      4  H   UNL     1       2.569   9.617  19.819  0.00  0.00    +0.000 HD
ENDROOT
BRANCH   1   6
ATOM      5  C   UNL     1       1.653  12.267  19.204  0.00  0.00    +0.000 C 
ATOM      6  C   UNL     1       0.948  10.902  19.306  0.00  0.00    +0.000 C 
BRANCH   6   7
ATOM      7  C   UNL     1       0.301  10.780  20.688  0.00  0.00    +0.000 A 
ATOM      8  C   UNL     1       0.805   9.745  21.529  0.00  0.00    +0.000 A 
ATOM      9  C   UNL     1       0.241   9.455  22.763  0.00  0.00    +0.000 A 
ATOM     10  C   UNL     1      -0.792  10.245  23.226  0.00  0.00    +0.000 A 
ATOM     11  C   UNL     1      -1.263  11.307  22.444  0.00  0.00    +0.000 A 
ATOM     12  C   UNL     1      -0.769  11.595  21.147  0.00  0.00    +0.000 A 
BRANCH  12  13
ATOM     13  N   UNL     1      -1.400  12.567  20.346  0.00  0.00    +0.000 N 
ATOM     14  C   UNL     1      -2.588  12.146  19.588  0.00  0.00    +0.000 C 
ATOM     15  C   UNL     1      -1.547  13.926  20.878  0.00  0.00    +0.000 C 
ENDBRANCH  12  13
ENDBRANCH   6   7
ENDBRANCH   1   6
BRANCH   2  16
ATOM     16  C   UNL     1       2.874   7.842  18.014  0.00  0.00    +0.000 C 
BRANCH  16  17
ATOM     17  C   UNL     1       2.705   6.616  18.894  0.00  0.00    +0.000 A 
ATOM     18  C   UNL     1       3.449   5.457  18.614  0.00  0.00    +0.000 A 
ATOM     19  C   UNL     1       3.342   4.322  19.430  0.00  0.00    +0.000 A 
ATOM     20  C   UNL     1       2.490   4.328  20.541  0.00  0.00    +0.000 A 
ATOM     21  C   UNL     1       1.781   5.493  20.854  0.00  0.00    +0.000 A 
ATOM     22  C   UNL     1       1.893   6.624  20.035  0.00  0.00    +0.000 A 
BRANCH  20  23
ATOM     23  C   UNL     1       2.425   3.104  21.379  0.00  0.00    +0.000 C 
ATOM     24  O   UNL     1       1.461   2.828  22.075  0.00  0.00    +0.000 OA
BRANCH  23  25
ATOM     25  O   UNL     1       3.540   2.342  21.347  0.00  0.00    +0.000 OA
ATOM     26  H   UNL     1       4.374   2.812  21.529  0.00  0.00    +0.000 HD
ENDBRANCH  23  25
ENDBRANCH  20  23
ENDBRANCH  16  17
ENDBRANCH   2  16
TORSDOF 7
ENDMDL
MODEL 7
REMARK VINA RESULT:      -6.9      2.727      3.663
REMARK  Name = 
REMARK  10 active torsions:
REMARK  status: ('A' for Active; 'I' for Inactive)
REMARK    1  A    between atoms: C_1  and  C_2
REMARK    2  A    between atoms: C_2  and  N_3
REMARK    3  A    between atoms: C_2  and  C_16
REMARK    4  A    between atoms: C_4  and  C_6
REMARK    5  A    between atoms: C_6  and  C_7
REMARK    6  A    between atoms: C_10  and  C_11
REMARK    7  A    between atoms: C_11  and  O_13
REMARK    8  A    between atoms: C_21  and  N_22
REMARK    9  A    between atoms: N_22  and  C_23
REMARK   10  A    between atoms: N_22  and  C_24
REMARK                            x       y       z     vdW  Elec       q    Type
REMARK                         _______ _______ _______ _____ _____    ______ ____
ROOT
ATOM      1  N   UNL     1       0.962   9.367  18.314  0.00  0.00    +0.000 N 
ATOM      2  C   UNL     1       1.777   8.458  18.952  0.00  0.00    +0.000 C 
ATOM      3  O   UNL     1       1.680   8.187  20.143  0.00  0.00    +0.000 OA
ATOM      4  H   UNL     1       1.255   9.708  17.406  0.00  0.00    +0.000 HD
ENDROOT
BRANCH   1   6
ATOM      5  C   UNL     1      -1.254  10.433  18.028  0.00  0.00    +0.000 C 
ATOM      6  C   UNL     1      -0.103  10.112  18.998  0.00  0.00    +0.000 C 
BRANCH   6   7
ATOM      7  C   UNL     1       0.439  11.421  19.576  0.00  0.00    +0.000 A 
ATOM      8  C   UNL     1       1.475  12.056  18.830  0.00  0.00    +0.000 A 
ATOM      9  C   UNL     1       2.128  13.191  19.289  0.00  0.00    +0.000 A 
ATOM     10  C   UNL     1       1.709  13.768  20.471  0.00  0.00    +0.000 A 
ATOM     11  C   UNL     1       0.652  13.197  21.191  0.00  0.00    +0.000 A 
ATOM     12  C   UNL     1       0.004  11.999  20.799  0.00  0.00    +0.000 A 
BRANCH  12  13
ATOM     13  N   UNL     1      -0.934  11.387  21.654  0.00  0.00    +0.000 N 
ATOM     14  C   UNL     1      -0.410  10.495  22.700  0.00  0.00    +0.000 C 
ATOM     15  C   UNL     1      -2.068  12.183  22.135  0.00  0.00    +0.000 C 
ENDBRANCH  12  13
ENDBRANCH   6   7
ENDBRANCH   1   6
BRANCH   2  16
ATOM     16  C   UNL     1       2.776   7.761  18.035  0.00  0.00    +0.000 C 
BRANCH  16  17
ATOM     17  C   UNL     1       3.004   6.292  18.347  0.00  0.00    +0.000 A 
ATOM     18  C   UNL     1       2.051   5.344  17.936  0.00  0.00    +0.000 A 
ATOM     19  C   UNL     1       2.250   3.977  18.177  0.00  0.00    +0.000 A 
ATOM     20  C   UNL     1       3.408   3.536  18.829  0.00  0.00    +0.000 A 
ATOM     21  C   UNL     1       4.382   4.468  19.200  0.00  0.00    +0.000 A 
ATOM     22  C   UNL     1       4.177   5.832  18.956  0.00  0.00    +0.000 A 
BRANCH  20  23
ATOM     23  C   UNL     1       3.575   2.077  19.046  0.00  0.00    +0.000 C 
ATOM     24  O   UNL     1       4.526   1.601  19.647  0.00  0.00    +0.000 OA
BRANCH  23  25
ATOM     25  O   UNL     1       2.614   1.312  18.485  0.00  0.00    +0.000 OA
ATOM     26  H   UNL     1       2.447   1.475  17.538  0.00  0.00    +0.000 HD
ENDBRANCH  23  25
ENDBRANCH  20  23
ENDBRANCH  16  17
ENDBRANCH   2  16
TORSDOF 7
ENDMDL
MODEL 8
REMARK VINA RESULT:      -6.8      2.452      3.775
REMARK  Name = 
REMARK  10 active torsions:
REMARK  status: ('A' for Active; 'I' for Inactive)
REMARK    1  A    between atoms: C_1  and  C_2
REMARK    2  A    between atoms: C_2  and  N_3
REMARK    3  A    between atoms: C_2  and  C_16
REMARK    4  A    between atoms: C_4  and  C_6
REMARK    5  A    between atoms: C_6  and  C_7
REMARK    6  A    between atoms: C_10  and  C_11
REMARK    7  A    between atoms: C_11  and  O_13
REMARK    8  A    between atoms: C_21  and  N_22
REMARK    9  A    between atoms: N_22  and  C_23
REMARK   10  A    between atoms: N_22  and  C_24
REMARK                            x       y       z     vdW  Elec       q    Type
REMARK                         _______ _______ _______ _____ _____    ______ ____
ROOT
ATOM      1  N   UNL     1       0.114   9.871  19.789  0.00  0.00    +0.000 N 
ATOM      2  C   UNL     1       0.236   8.973  20.827  0.00  0.00    +0.000 C 
ATOM      3  O   UNL     1      -0.704   8.634  21.537  0.00  0.00    +0.000 OA
ATOM      4  H   UNL     1       0.963  10.276  19.413  0.00  0.00    +0.000 HD
ENDROOT
BRANCH   1   6
ATOM      5  C   UNL     1      -1.542  10.195  17.978  0.00  0.00    +0.000 C 
ATOM      6  C   UNL     1      -1.154  10.521  19.431  0.00  0.00    +0.000 C 
BRANCH   6   7
ATOM      7  C   UNL     1      -1.045  12.039  19.589  0.00  0.00    +0.000 A 
ATOM      8  C   UNL     1      -0.377  12.734  18.539  0.00  0.00    +0.000 A 
ATOM      9  C   UNL     1      -0.117  14.095  18.601  0.00  0.00    +0.000 A 
ATOM     10  C   UNL     1      -0.589  14.815  19.680  0.00  0.00    +0.000 A 
ATOM     11  C   UNL     1      -1.302  14.165  20.694  0.00  0.00    +0.000 A 
ATOM     12  C   UNL     1      -1.528  12.766  20.710  0.00  0.00    +0.000 A 
BRANCH  12  13
ATOM     13  N   UNL     1      -2.103  12.152  21.841  0.00  0.00    +0.000 N 
ATOM     14  C   UNL     1      -1.202  11.813  22.953  0.00  0.00    +0.000 C 
ATOM     15  C   UNL     1      -3.400  12.641  22.321  0.00  0.00    +0.000 C 
ENDBRANCH  12  13
ENDBRANCH   6   7
ENDBRANCH   1   6
BRANCH   2  16
ATOM     16  C   UNL     1       1.632   8.381  20.982  0.00  0.00    +0.000 C 
BRANCH  16  17
ATOM     17  C   UNL     1       1.913   7.182  20.092  0.00  0.00    +0.000 A 
ATOM     18  C   UNL     1       2.469   7.385  18.818  0.00  0.00    +0.000 A 
ATOM     19  C   UNL     1       2.774   6.297  17.988  0.00  0.00    +0.000 A 
ATOM     20  C   UNL     1       2.531   4.988  18.421  0.00  0.00    +0.000 A 
ATOM     21  C   UNL     1       2.021   4.775  19.706  0.00  0.00    +0.000 A 
ATOM     22  C   UNL     1       1.719   5.867  20.531  0.00  0.00    +0.000 A 
BRANCH  20  23
ATOM     23  C   UNL     1       2.885   3.871  17.508  0.00  0.00    +0.000 C 
ATOM     24  O   UNL     1       2.116   2.960  17.246  0.00  0.00    +0.000 OA
BRANCH  23  25
ATOM     25  O   UNL     1       4.146   3.920  17.026  0.00  0.00    +0.000 OA
ATOM     26  H   UNL     1       4.367   4.717  16.511  0.00  0.00    +0.000 HD
ENDBRANCH  23  25
ENDBRANCH  20  23
ENDBRANCH  16  17
ENDBRANCH   2  16
TORSDOF 7
ENDMDL
MODEL 9
REMARK VINA RESULT:      -6.8      2.546      3.910
REMARK  Name = 
REMARK  10 active torsions:
REMARK  status: ('A' for Active; 'I' for Inactive)
REMARK    1  A    between atoms: C_1  and  C_2
REMARK    2  A    between atoms: C_2  and  N_3
REMARK    3  A    between atoms: C_2  and  C_16
REMARK    4  A    between atoms: C_4  and  C_6
REMARK    5  A    between atoms: C_6  and  C_7
REMARK    6  A    between atoms: C_10  and  C_11
REMARK    7  A    between atoms: C_11  and  O_13
REMARK    8  A    between atoms: C_21  and  N_22
REMARK    9  A    between atoms: N_22  and  C_23
REMARK   10  A    between atoms: N_22  and  C_24
REMARK                            x       y       z     vdW  Elec       q    Type
REMARK                         _______ _______ _______ _____ _____    ______ ____
ROOT
ATOM      1  N   UNL     1       0.123   9.892  19.860  0.00  0.00    +0.000 N 
ATOM      2  C   UNL     1       0.205   8.965  20.877  0.00  0.00    +0.000 C 
ATOM      3  O   UNL     1      -0.766   8.584  21.520  0.00  0.00    +0.000 OA
ATOM      4  H   UNL     1       0.983  10.326  19.548  0.00  0.00    +0.000 HD
ENDROOT
BRANCH   1   6
ATOM      5  C   UNL     1      -1.460  10.192  17.982  0.00  0.00    +0.000 C 
ATOM      6  C   UNL     1      -1.137  10.525  19.449  0.00  0.00    +0.000 C 
BRANCH   6   7
ATOM      7  C   UNL     1      -1.054  12.045  19.607  0.00  0.00    +0.000 A 
ATOM      8  C   UNL     1      -0.385  12.750  18.564  0.00  0.00    +0.000 A 
ATOM      9  C   UNL     1      -0.147  14.115  18.628  0.00  0.00    +0.000 A 
ATOM     10  C   UNL     1      -0.642  14.828  19.702  0.00  0.00    +0.000 A 
ATOM     11  C   UNL     1      -1.355  14.167  20.709  0.00  0.00    +0.000 A 
ATOM     12  C   UNL     1      -1.560  12.764  20.723  0.00  0.00    +0.000 A 
BRANCH  12  13
ATOM     13  N   UNL     1      -2.137  12.142  21.848  0.00  0.00    +0.000 N 
ATOM     14  C   UNL     1      -1.236  11.780  22.953  0.00  0.00    +0.000 C 
ATOM     15  C   UNL     1      -3.429  12.637  22.337  0.00  0.00    +0.000 C 
ENDBRANCH  12  13
ENDBRANCH   6   7
ENDBRANCH   1   6
BRANCH   2  16
ATOM     16  C   UNL     1       1.603   8.398  21.096  0.00  0.00    +0.000 C 
BRANCH  16  17
ATOM     17  C   UNL     1       1.969   7.244  20.178  0.00  0.00    +0.000 A 
ATOM     18  C   UNL     1       1.727   5.925  20.598  0.00  0.00    +0.000 A 
ATOM     19  C   UNL     1       2.021   4.840  19.759  0.00  0.00    +0.000 A 
ATOM     20  C   UNL     1       2.559   5.058  18.485  0.00  0.00    +0.000 A 
ATOM     21  C   UNL     1       2.760   6.369  18.042  0.00  0.00    +0.000 A 
ATOM     22  C   UNL     1       2.463   7.449  18.884  0.00  0.00    +0.000 A 
BRANCH  20  23
ATOM     23  C   UNL     1       2.838   3.875  17.632  0.00  0.00    +0.000 C 
ATOM     24  O   UNL     1       1.964   3.267  17.035  0.00  0.00    +0.000 OA
BRANCH  23  25
ATOM     25  O   UNL     1       4.134   3.496  17.606  0.00  0.00    +0.000 OA
ATOM     26  H   UNL     1       4.777   4.210  17.440  0.00  0.00    +0.000 HD
ENDBRANCH  23  25
ENDBRANCH  20  23
ENDBRANCH  16  17
ENDBRANCH   2  16
TORSDOF 7
ENDMDL
