MODEL 1
REMARK VINA RESULT:      -7.2      0.000      0.000
REMARK  Name = 
REMARK  2 active torsions:
REMARK  status: ('A' for Active; 'I' for Inactive)
REMARK    1  A    between atoms: C_1  and  N_2
REMARK    2  A    between atoms: N_11  and  C_12
REMARK                            x       y       z     vdW  Elec       q    Type
REMARK                         _______ _______ _______ _____ _____    ______ ____
ROOT
ATOM      1  C   UNL     1       4.446   2.146  20.832  0.00  0.00    +0.000 C 
ATOM      2  N   UNL     1       4.097   2.571  19.497  0.00  0.00    +0.000 N 
ATOM      3  C   UNL     1       2.985   2.168  18.820  0.00  0.00    +0.000 C 
ATOM      4  O   UNL     1       2.160   1.346  19.192  0.00  0.00    +0.000 OA
ATOM      5  C   UNL     1       2.908   2.905  17.512  0.00  0.00    +0.000 C 
ATOM      6  C   UNL     1       4.010   3.980  17.623  0.00  0.00    +0.000 C 
ATOM      7  C   UNL     1       4.818   3.509  18.822  0.00  0.00    +0.000 C 
ATOM      8  O   UNL     1       5.894   3.979  19.172  0.00  0.00    +0.000 OA
ATOM      9  C   UNL     1       4.929   3.952  16.405  0.00  0.00    +0.000 C 
ATOM     10  O   UNL     1       5.064   2.934  15.724  0.00  0.00    +0.000 OA
ATOM     11  N   UNL     1       5.649   5.112  16.162  0.00  0.00    +0.000 N 
ATOM     12  C   UNL     1       6.846   5.025  15.346  0.00  0.00    +0.000 C 
ATOM     13  C   UNL     1       5.145   6.386  16.396  0.00  0.00    +0.000 C 
ATOM     14  O   UNL     1       5.577   7.397  15.850  0.00  0.00    +0.000 OA
ATOM     15  C   UNL     1       4.014   6.501  17.351  0.00  0.00    +0.000 A 
ATOM     16  C   UNL     1       3.573   7.785  17.716  0.00  0.00    +0.000 A 
ATOM     17  C   UNL     1       2.629   7.948  18.730  0.00  0.00    +0.000 A 
ATOM     18  C   UNL     1       2.114   6.831  19.371  0.00  0.00    +0.000 A 
ATOM     19 CL   UNL     1       1.023   7.018  20.687  0.00  0.00    +0.000 Cl
ATOM     20  C   UNL     1       2.508   5.552  18.980  0.00  0.00    +0.000 A 
ATOM     21  C   UNL     1       3.466   5.366  17.957  0.00  0.00    +0.000 A 
ENDROOT
TORSDOF 0
ENDMDL
MODEL 2
REMARK VINA RESULT:      -6.7      1.445      1.520
REMARK  Name = 
REMARK  2 active torsions:
REMARK  status: ('A' for Active; 'I' for Inactive)
REMARK    1  A    between atoms: C_1  and  N_2
REMARK    2  A    between atoms: N_11  and  C_12
REMARK                            x       y       z     vdW  Elec       q    Type
REMARK                         _______ _______ _______ _____ _____    ______ ____
ROOT
ATOM      1  C   UNL     1       2.535   3.455  21.610  0.00  0.00    +0.000 C 
ATOM      2  N   UNL     1       2.444   3.617  20.178  0.00  0.00    +0.000 N 
ATOM      3  C   UNL     1       1.317   3.404  19.443  0.00  0.00    +0.000 C 
ATOM      4  O   UNL     1       0.245   2.981  19.853  0.00  0.00    +0.000 OA
ATOM      5  C   UNL     1       1.581   3.781  18.012  0.00  0.00    +0.000 C 
ATOM      6  C   UNL     1       2.958   4.476  18.056  0.00  0.00    +0.000 C 
ATOM      7  C   UNL     1       3.478   4.102  19.436  0.00  0.00    +0.000 C 
ATOM      8  O   UNL     1       4.618   4.306  19.836  0.00  0.00    +0.000 OA
ATOM      9  C   UNL     1       3.910   3.876  17.025  0.00  0.00    +0.000 C 
ATOM     10  O   UNL     1       3.762   2.728  16.604  0.00  0.00    +0.000 OA
ATOM     11  N   UNL     1       4.981   4.674  16.653  0.00  0.00    +0.000 N 
ATOM     12  C   UNL     1       6.145   4.038  16.063  0.00  0.00    +0.000 C 
ATOM     13  C   UNL     1       4.897   6.056  16.532  0.00  0.00    +0.000 C 
ATOM     14  O   UNL     1       5.672   6.726  15.855  0.00  0.00    +0.000 OA
ATOM     15  C   UNL     1       3.794   6.733  17.259  0.00  0.00    +0.000 A 
ATOM     16  C   UNL     1       3.763   8.138  17.272  0.00  0.00    +0.000 A 
ATOM     17  C   UNL     1       2.847   8.819  18.074  0.00  0.00    +0.000 A 
ATOM     18  C   UNL     1       1.952   8.100  18.853  0.00  0.00    +0.000 A 
ATOM     19 CL   UNL     1       0.883   8.921  19.920  0.00  0.00    +0.000 Cl
ATOM     20  C   UNL     1       1.943   6.706  18.807  0.00  0.00    +0.000 A 
ATOM     21  C   UNL     1       2.866   5.998  18.003  0.00  0.00    +0.000 A 
ENDROOT
TORSDOF 0
ENDMDL
MODEL 3
REMARK VINA RESULT:      -6.6      2.787      4.183
REMARK  Name = 
REMARK  2 active torsions:
REMARK  status: ('A' for Active; 'I' for Inactive)
REMARK    1  A    between atoms: C_1  and  N_2
REMARK    2  A    between atoms: N_11  and  C_12
REMARK                            x       y       z     vdW  Elec       q    Type
REMARK                         _______ _______ _______ _____ _____    ______ ____
ROOT
ATOM      1  C   UNL     1       1.912   1.685  18.004  0.00  0.00    +0.000 C 
ATOM      2  N   UNL     1       2.636   2.786  18.594  0.00  0.00    +0.000 N 
ATOM      3  C   UNL     1       3.750   2.657  19.367  0.00  0.00    +0.000 C 
ATOM      4  O   UNL     1       4.265   1.613  19.739  0.00  0.00    +0.000 OA
ATOM      5  C   UNL     1       4.281   4.024  19.701  0.00  0.00    +0.000 C 
ATOM      6  C   UNL     1       3.453   4.975  18.812  0.00  0.00    +0.000 C 
ATOM      7  C   UNL     1       2.313   4.085  18.340  0.00  0.00    +0.000 C 
ATOM      8  O   UNL     1       1.320   4.476  17.737  0.00  0.00    +0.000 OA
ATOM      9  C   UNL     1       2.845   6.108  19.634  0.00  0.00    +0.000 C 
ATOM     10  O   UNL     1       2.640   5.987  20.843  0.00  0.00    +0.000 OA
ATOM     11  N   UNL     1       2.477   7.242  18.926  0.00  0.00    +0.000 N 
ATOM     12  C   UNL     1       1.504   8.141  19.518  0.00  0.00    +0.000 C 
ATOM     13  C   UNL     1       3.191   7.724  17.835  0.00  0.00    +0.000 C 
ATOM     14  O   UNL     1       3.130   8.887  17.446  0.00  0.00    +0.000 OA
ATOM     15  C   UNL     1       4.077   6.765  17.128  0.00  0.00    +0.000 A 
ATOM     16  C   UNL     1       4.703   7.182  15.941  0.00  0.00    +0.000 A 
ATOM     17  C   UNL     1       5.410   6.271  15.155  0.00  0.00    +0.000 A 
ATOM     18  C   UNL     1       5.504   4.947  15.560  0.00  0.00    +0.000 A 
ATOM     19 CL   UNL     1       6.288   3.792  14.557  0.00  0.00    +0.000 Cl
ATOM     20  C   UNL     1       4.928   4.538  16.763  0.00  0.00    +0.000 A 
ATOM     21  C   UNL     1       4.206   5.445  17.571  0.00  0.00    +0.000 A 
ENDROOT
TORSDOF 0
ENDMDL
MODEL 4
REMARK VINA RESULT:      -6.5      1.789      4.435
REMARK  Name = 
REMARK  2 active torsions:
REMARK  status: ('A' for Active; 'I' for Inactive)
REMARK    1  A    between atoms: C_1  and  N_2
REMARK    2  A    between atoms: N_11  and  C_12
REMARK                            x       y       z     vdW  Elec       q    Type
REMARK                         _______ _______ _______ _____ _____    ______ ____
ROOT
ATOM      1  C   UNL     1       5.223   5.129  14.821  0.00  0.00    +0.000 C 
ATOM      2  N   UNL     1       5.385   5.166  16.255  0.00  0.00    +0.000 N 
ATOM      3  C   UNL     1       6.388   5.817  16.906  0.00  0.00    +0.000 C 
ATOM      4  O   UNL     1       7.332   6.403  16.396  0.00  0.00    +0.000 OA
ATOM      5  C   UNL     1       6.160   5.721  18.389  0.00  0.00    +0.000 C 
ATOM      6  C   UNL     1       4.744   5.121  18.511  0.00  0.00    +0.000 C 
ATOM      7  C   UNL     1       4.470   4.617  17.103  0.00  0.00    +0.000 C 
ATOM      8  O   UNL     1       3.518   3.917  16.779  0.00  0.00    +0.000 OA
ATOM      9  C   UNL     1       4.737   3.912  19.444  0.00  0.00    +0.000 C 
ATOM     10  O   UNL     1       5.756   3.250  19.645  0.00  0.00    +0.000 OA
ATOM     11  N   UNL     1       3.507   3.571  19.986  0.00  0.00    +0.000 N 
ATOM     12  C   UNL     1       3.321   2.221  20.483  0.00  0.00    +0.000 C 
ATOM     13  C   UNL     1       2.549   4.509  20.353  0.00  0.00    +0.000 C 
ATOM     14  O   UNL     1       1.654   4.283  21.162  0.00  0.00    +0.000 OA
ATOM     15  C   UNL     1       2.643   5.853  19.729  0.00  0.00    +0.000 A 
ATOM     16  C   UNL     1       1.612   6.778  19.970  0.00  0.00    +0.000 A 
ATOM     17  C   UNL     1       1.571   7.989  19.279  0.00  0.00    +0.000 A 
ATOM     18  C   UNL     1       2.565   8.284  18.356  0.00  0.00    +0.000 A 
ATOM     19 CL   UNL     1       2.476   9.727  17.426  0.00  0.00    +0.000 Cl
ATOM     20  C   UNL     1       3.618   7.394  18.149  0.00  0.00    +0.000 A 
ATOM     21  C   UNL     1       3.676   6.161  18.838  0.00  0.00    +0.000 A 
ENDROOT
TORSDOF 0
ENDMDL
MODEL 5
REMARK VINA RESULT:      -6.4     10.205     11.423
REMARK  Name = 
REMARK  2 active torsions:
REMARK  status: ('A' for Active; 'I' for Inactive)
REMARK    1  A    between atoms: C_1  and  N_2
REMARK    2  A    between atoms: N_11  and  C_12
REMARK                            x       y       z     vdW  Elec       q    Type
REMARK                         _______ _______ _______ _____ _____    ______ ____
ROOT
ATOM      1  C   UNL     1       5.197  15.040  17.780  0.00  0.00    +0.000 C 
ATOM      2  N   UNL     1       6.558  15.367  18.133  0.00  0.00    +0.000 N 
ATOM      3  C   UNL     1       6.947  16.525  18.735  0.00  0.00    +0.000 C 
ATOM      4  O   UNL     1       6.238  17.484  19.003  0.00  0.00    +0.000 OA
ATOM      5  C   UNL     1       8.417  16.454  19.042  0.00  0.00    +0.000 C 
ATOM      6  C   UNL     1       8.790  14.985  18.749  0.00  0.00    +0.000 C 
ATOM      7  C   UNL     1       7.581  14.480  17.977  0.00  0.00    +0.000 C 
ATOM      8  O   UNL     1       7.516  13.402  17.399  0.00  0.00    +0.000 OA
ATOM      9  C   UNL     1       9.999  14.898  17.823  0.00  0.00    +0.000 C 
ATOM     10  O   UNL     1      10.292  15.820  17.059  0.00  0.00    +0.000 OA
ATOM     11  N   UNL     1      10.696  13.700  17.846  0.00  0.00    +0.000 N 
ATOM     12  C   UNL     1      11.537  13.367  16.711  0.00  0.00    +0.000 C 
ATOM     13  C   UNL     1      10.876  12.945  18.999  0.00  0.00    +0.000 C 
ATOM     14  O   UNL     1      11.778  12.122  19.137  0.00  0.00    +0.000 OA
ATOM     15  C   UNL     1       9.923  13.172  20.113  0.00  0.00    +0.000 A 
ATOM     16  C   UNL     1       9.990  12.330  21.236  0.00  0.00    +0.000 A 
ATOM     17  C   UNL     1       9.015  12.397  22.232  0.00  0.00    +0.000 A 
ATOM     18  C   UNL     1       7.980  13.313  22.115  0.00  0.00    +0.000 A 
ATOM     19 CL   UNL     1       6.718  13.343  23.283  0.00  0.00    +0.000 Cl
ATOM     20  C   UNL     1       7.935  14.188  21.029  0.00  0.00    +0.000 A 
ATOM     21  C   UNL     1       8.912  14.133  20.009  0.00  0.00    +0.000 A 
ENDROOT
TORSDOF 0
ENDMDL
MODEL 6
REMARK VINA RESULT:      -6.3      8.325     10.041
REMARK  Name = 
REMARK  2 active torsions:
REMARK  status: ('A' for Active; 'I' for Inactive)
REMARK    1  A    between atoms: C_1  and  N_2
REMARK    2  A    between atoms: N_11  and  C_12
REMARK                            x       y       z     vdW  Elec       q    Type
REMARK                         _______ _______ _______ _____ _____    ______ ____
ROOT
ATOM      1  C   UNL     1       1.282  13.601  20.069  0.00  0.00    +0.000 C 
ATOM      2  N   UNL     1       0.407  12.476  19.840  0.00  0.00    +0.000 N 
ATOM      3  C   UNL     1       0.381  11.345  20.598  0.00  0.00    +0.000 C 
ATOM      4  O   UNL     1       1.125  11.071  21.529  0.00  0.00    +0.000 OA
ATOM      5  C   UNL     1      -0.732  10.454  20.120  0.00  0.00    +0.000 C 
ATOM      6  C   UNL     1      -1.513  11.334  19.122  0.00  0.00    +0.000 C 
ATOM      7  C   UNL     1      -0.559  12.493  18.878  0.00  0.00    +0.000 C 
ATOM      8  O   UNL     1      -0.704  13.354  18.019  0.00  0.00    +0.000 OA
ATOM      9  C   UNL     1      -1.713  10.613  17.792  0.00  0.00    +0.000 C 
ATOM     10  O   UNL     1      -0.953   9.713  17.427  0.00  0.00    +0.000 OA
ATOM     11  N   UNL     1      -2.750  11.079  16.998  0.00  0.00    +0.000 N 
ATOM     12  C   UNL     1      -2.721  10.783  15.578  0.00  0.00    +0.000 C 
ATOM     13  C   UNL     1      -3.952  11.550  17.514  0.00  0.00    +0.000 C 
ATOM     14  O   UNL     1      -4.994  11.598  16.866  0.00  0.00    +0.000 OA
ATOM     15  C   UNL     1      -3.952  12.000  18.928  0.00  0.00    +0.000 A 
ATOM     16  C   UNL     1      -5.112  12.609  19.437  0.00  0.00    +0.000 A 
ATOM     17  C   UNL     1      -5.106  13.195  20.704  0.00  0.00    +0.000 A 
ATOM     18  C   UNL     1      -3.949  13.161  21.469  0.00  0.00    +0.000 A 
ATOM     19 CL   UNL     1      -3.896  13.961  22.989  0.00  0.00    +0.000 Cl
ATOM     20  C   UNL     1      -2.810  12.513  20.991  0.00  0.00    +0.000 A 
ATOM     21  C   UNL     1      -2.795  11.916  19.709  0.00  0.00    +0.000 A 
ENDROOT
TORSDOF 0
ENDMDL
MODEL 7
REMARK VINA RESULT:      -6.3      5.509      8.156
REMARK  Name = 
REMARK  2 active torsions:
REMARK  status: ('A' for Active; 'I' for Inactive)
REMARK    1  A    between atoms: C_1  and  N_2
REMARK    2  A    between atoms: N_11  and  C_12
REMARK                            x       y       z     vdW  Elec       q    Type
REMARK                         _______ _______ _______ _____ _____    ______ ____
ROOT
ATOM      1  C   UNL     1      -2.617  11.905  17.590  0.00  0.00    +0.000 C 
ATOM      2  N   UNL     1      -1.258  11.748  18.052  0.00  0.00    +0.000 N 
ATOM      3  C   UNL     1      -0.409  12.776  18.329  0.00  0.00    +0.000 C 
ATOM      4  O   UNL     1      -0.627  13.968  18.168  0.00  0.00    +0.000 OA
ATOM      5  C   UNL     1       0.872  12.223  18.889  0.00  0.00    +0.000 C 
ATOM      6  C   UNL     1       0.563  10.729  19.125  0.00  0.00    +0.000 C 
ATOM      7  C   UNL     1      -0.729  10.528  18.350  0.00  0.00    +0.000 C 
ATOM      8  O   UNL     1      -1.252   9.442  18.126  0.00  0.00    +0.000 OA
ATOM      9  C   UNL     1       1.628   9.840  18.489  0.00  0.00    +0.000 C 
ATOM     10  O   UNL     1       2.312  10.232  17.542  0.00  0.00    +0.000 OA
ATOM     11  N   UNL     1       1.723   8.552  18.994  0.00  0.00    +0.000 N 
ATOM     12  C   UNL     1       2.351   7.533  18.175  0.00  0.00    +0.000 C 
ATOM     13  C   UNL     1       1.529   8.243  20.335  0.00  0.00    +0.000 C 
ATOM     14  O   UNL     1       1.972   7.229  20.868  0.00  0.00    +0.000 OA
ATOM     15  C   UNL     1       0.753   9.212  21.148  0.00  0.00    +0.000 A 
ATOM     16  C   UNL     1       0.420   8.865  22.469  0.00  0.00    +0.000 A 
ATOM     17  C   UNL     1      -0.444   9.666  23.216  0.00  0.00    +0.000 A 
ATOM     18  C   UNL     1      -0.966  10.822  22.651  0.00  0.00    +0.000 A 
ATOM     19 CL   UNL     1      -2.106  11.768  23.522  0.00  0.00    +0.000 Cl
ATOM     20  C   UNL     1      -0.599  11.199  21.360  0.00  0.00    +0.000 A 
ATOM     21  C   UNL     1       0.273  10.400  20.586  0.00  0.00    +0.000 A 
ENDROOT
TORSDOF 0
ENDMDL
MODEL 8
REMARK VINA RESULT:      -6.2      7.273      9.777
REMARK  Name = 
REMARK  2 active torsions:
REMARK  status: ('A' for Active; 'I' for Inactive)
REMARK    1  A    between atoms: C_1  and  N_2
REMARK    2  A    between atoms: N_11  and  C_12
REMARK                            x       y       z     vdW  Elec       q    Type
REMARK                         _______ _______ _______ _____ _____    ______ ____
ROOT
ATOM      1  C   UNL     1       1.599   8.900  18.941  0.00  0.00    +0.000 C 
ATOM      2  N   UNL     1       1.130  10.237  19.215  0.00  0.00    +0.000 N 
ATOM      3  C   UNL     1       1.608  11.365  18.620  0.00  0.00    +0.000 C 
ATOM      4  O   UNL     1       2.538  11.437  17.829  0.00  0.00    +0.000 OA
ATOM      5  C   UNL     1       0.800  12.547  19.078  0.00  0.00    +0.000 C 
ATOM      6  C   UNL     1      -0.380  11.918  19.849  0.00  0.00    +0.000 C 
ATOM      7  C   UNL     1       0.076  10.480  20.044  0.00  0.00    +0.000 C 
ATOM      8  O   UNL     1      -0.485   9.656  20.756  0.00  0.00    +0.000 OA
ATOM      9  C   UNL     1      -0.532  12.547  21.231  0.00  0.00    +0.000 C 
ATOM     10  O   UNL     1       0.418  13.085  21.801  0.00  0.00    +0.000 OA
ATOM     11  N   UNL     1      -1.778  12.411  21.825  0.00  0.00    +0.000 N 
ATOM     12  C   UNL     1      -1.876  12.555  23.266  0.00  0.00    +0.000 C 
ATOM     13  C   UNL     1      -2.970  12.441  21.112  0.00  0.00    +0.000 C 
ATOM     14  O   UNL     1      -4.056  12.709  21.619  0.00  0.00    +0.000 OA
ATOM     15  C   UNL     1      -2.899  12.143  19.660  0.00  0.00    +0.000 A 
ATOM     16  C   UNL     1      -4.100  12.028  18.939  0.00  0.00    +0.000 A 
ATOM     17  C   UNL     1      -4.092  11.589  17.614  0.00  0.00    +0.000 A 
ATOM     18  C   UNL     1      -2.885  11.277  17.004  0.00  0.00    +0.000 A 
ATOM     19 CL   UNL     1      -2.865  10.643  15.406  0.00  0.00    +0.000 Cl
ATOM     20  C   UNL     1      -1.685  11.438  17.697  0.00  0.00    +0.000 A 
ATOM     21  C   UNL     1      -1.673  11.879  19.040  0.00  0.00    +0.000 A 
ENDROOT
TORSDOF 0
ENDMDL
MODEL 9
REMARK VINA RESULT:      -5.8     10.235     12.112
REMARK  Name = 
REMARK  2 active torsions:
REMARK  status: ('A' for Active; 'I' for Inactive)
REMARK    1  A    between atoms: C_1  and  N_2
REMARK    2  A    between atoms: N_11  and  C_12
REMARK                            x       y       z     vdW  Elec       q    Type
REMARK                         _______ _______ _______ _____ _____    ______ ____
ROOT
ATOM      1  C   UNL     1       6.383  14.601  21.644  0.00  0.00    +0.000 C 
ATOM      2  N   UNL     1       7.783  14.863  21.405  0.00  0.00    +0.000 N 
ATOM      3  C   UNL     1       8.781  14.626  22.300  0.00  0.00    +0.000 C 
ATOM      4  O   UNL     1       8.654  14.232  23.450  0.00  0.00    +0.000 OA
ATOM      5  C   UNL     1      10.107  14.919  21.653  0.00  0.00    +0.000 C 
ATOM      6  C   UNL     1       9.757  15.134  20.165  0.00  0.00    +0.000 C 
ATOM      7  C   UNL     1       8.245  15.290  20.195  0.00  0.00    +0.000 C 
ATOM      8  O   UNL     1       7.556  15.643  19.246  0.00  0.00    +0.000 OA
ATOM      9  C   UNL     1      10.346  16.442  19.645  0.00  0.00    +0.000 C 
ATOM     10  O   UNL     1      10.609  17.376  20.404  0.00  0.00    +0.000 OA
ATOM     11  N   UNL     1      10.498  16.535  18.270  0.00  0.00    +0.000 N 
ATOM     12  C   UNL     1      10.602  17.853  17.673  0.00  0.00    +0.000 C 
ATOM     13  C   UNL     1      10.851  15.457  17.467  0.00  0.00    +0.000 C 
ATOM     14  O   UNL     1      11.358  15.577  16.356  0.00  0.00    +0.000 OA
ATOM     15  C   UNL     1      10.605  14.098  18.012  0.00  0.00    +0.000 A 
ATOM     16  C   UNL     1      10.821  12.990  17.173  0.00  0.00    +0.000 A 
ATOM     17  C   UNL     1      10.449  11.709  17.582  0.00  0.00    +0.000 A 
ATOM     18  C   UNL     1       9.874  11.530  18.833  0.00  0.00    +0.000 A 
ATOM     19 CL   UNL     1       9.321   9.974  19.313  0.00  0.00    +0.000 Cl
ATOM     20  C   UNL     1       9.704  12.617  19.690  0.00  0.00    +0.000 A 
ATOM     21  C   UNL     1      10.072  13.923  19.293  0.00  0.00    +0.000 A 
ENDROOT
TORSDOF 0
ENDMDL
