MODEL 1
REMARK VINA RESULT:      -6.3      0.000      0.000
REMARK  Name = 
REMARK  3 active torsions:
REMARK  status: ('A' for Active; 'I' for Inactive)
REMARK    1  A    between atoms: C_1  and  C_2
REMARK    2  A    between atoms: C_3  and  C_4
REMARK    3  A    between atoms: C_6  and  S_7
REMARK                            x       y       z     vdW  Elec       q    Type
REMARK                         _______ _______ _______ _____ _____    ______ ____
ROOT
ATOM      1  C   UNL     1       4.915   4.228  19.341  0.00  0.00    +0.000 A 
ATOM      2  N   UNL     1       3.694   4.567  19.692  0.00  0.00    +0.000 NA
ATOM      3  C   UNL     1       3.109   3.365  19.974  0.00  0.00    +0.000 A 
ATOM      4  N   UNL     1       3.902   2.300  19.840  0.00  0.00    +0.000 NA
ATOM      5  N   UNL     1       5.047   2.872  19.433  0.00  0.00    +0.000 N 
ATOM      6  H   UNL     1       5.861   2.303  19.231  0.00  0.00    +0.000 HD
ENDROOT
BRANCH   1   9
ATOM      7  C   UNL     1       5.157   5.919  16.497  0.00  0.00    +0.000 C 
ATOM      8  C   UNL     1       6.053   5.831  17.658  0.00  0.00    +0.000 A 
ATOM      9  C   UNL     1       5.986   5.150  18.887  0.00  0.00    +0.000 A 
ATOM     10  N   UNL     1       7.050   5.405  19.655  0.00  0.00    +0.000 NA
ATOM     11  O   UNL     1       7.861   6.259  18.907  0.00  0.00    +0.000 OA
ATOM     12  N   UNL     1       7.205   6.499  17.653  0.00  0.00    +0.000 N 
ATOM     13  O   UNL     1       7.794   7.244  16.841  0.00  0.00    +0.000 OA
ENDBRANCH   1   9
BRANCH   3  14
ATOM     14  S   UNL     1       1.443   3.236  20.439  0.00  0.00    +0.000 S 
ATOM     15  H   UNL     1       1.515   4.107  21.453  0.00  0.00    +0.000 HD
ENDBRANCH   3  14
TORSDOF 2
ENDMDL
MODEL 2
REMARK VINA RESULT:      -6.3      1.446      1.863
REMARK  Name = 
REMARK  3 active torsions:
REMARK  status: ('A' for Active; 'I' for Inactive)
REMARK    1  A    between atoms: C_1  and  C_2
REMARK    2  A    between atoms: C_3  and  C_4
REMARK    3  A    between atoms: C_6  and  S_7
REMARK                            x       y       z     vdW  Elec       q    Type
REMARK                         _______ _______ _______ _____ _____    ______ ____
ROOT
ATOM      1  C   UNL     1       4.245   4.601  19.588  0.00  0.00    +0.000 A 
ATOM      2  N   UNL     1       3.645   3.489  19.955  0.00  0.00    +0.000 NA
ATOM      3  C   UNL     1       2.503   3.939  20.555  0.00  0.00    +0.000 A 
ATOM      4  N   UNL     1       2.347   5.265  20.564  0.00  0.00    +0.000 NA
ATOM      5  N   UNL     1       3.470   5.666  19.945  0.00  0.00    +0.000 N 
ATOM      6  H   UNL     1       3.653   6.654  19.805  0.00  0.00    +0.000 HD
ENDROOT
BRANCH   1   9
ATOM      7  C   UNL     1       5.032   4.058  16.411  0.00  0.00    +0.000 C 
ATOM      8  C   UNL     1       5.853   4.446  17.566  0.00  0.00    +0.000 A 
ATOM      9  C   UNL     1       5.565   4.705  18.919  0.00  0.00    +0.000 A 
ATOM     10  N   UNL     1       6.660   5.060  19.600  0.00  0.00    +0.000 NA
ATOM     11  O   UNL     1       7.710   5.010  18.683  0.00  0.00    +0.000 OA
ATOM     12  N   UNL     1       7.166   4.612  17.416  0.00  0.00    +0.000 N 
ATOM     13  O   UNL     1       7.969   4.504  16.465  0.00  0.00    +0.000 OA
ENDBRANCH   1   9
BRANCH   3  14
ATOM     14  S   UNL     1       1.357   2.860  21.284  0.00  0.00    +0.000 S 
ATOM     15  H   UNL     1       1.610   3.223  22.548  0.00  0.00    +0.000 HD
ENDBRANCH   3  14
TORSDOF 2
ENDMDL
MODEL 3
REMARK VINA RESULT:      -6.2      1.209      1.209
REMARK  Name = 
REMARK  3 active torsions:
REMARK  status: ('A' for Active; 'I' for Inactive)
REMARK    1  A    between atoms: C_1  and  C_2
REMARK    2  A    between atoms: C_3  and  C_4
REMARK    3  A    between atoms: C_6  and  S_7
REMARK                            x       y       z     vdW  Elec       q    Type
REMARK                         _______ _______ _______ _____ _____    ______ ____
ROOT
ATOM      1  C   UNL     1       4.894   3.861  19.087  0.00  0.00    +0.000 A 
ATOM      2  N   UNL     1       3.728   4.391  19.386  0.00  0.00    +0.000 NA
ATOM      3  C   UNL     1       3.137   3.426  20.151  0.00  0.00    +0.000 A 
ATOM      4  N   UNL     1       3.877   2.336  20.365  0.00  0.00    +0.000 NA
ATOM      5  N   UNL     1       4.991   2.633  19.676  0.00  0.00    +0.000 N 
ATOM      6  H   UNL     1       5.761   1.973  19.636  0.00  0.00    +0.000 HD
ENDROOT
BRANCH   1   9
ATOM      7  C   UNL     1       4.911   4.299  15.799  0.00  0.00    +0.000 C 
ATOM      8  C   UNL     1       5.910   4.615  16.829  0.00  0.00    +0.000 A 
ATOM      9  C   UNL     1       5.941   4.468  18.228  0.00  0.00    +0.000 A 
ATOM     10  N   UNL     1       7.079   4.936  18.751  0.00  0.00    +0.000 NA
ATOM     11  O   UNL     1       7.838   5.383  17.669  0.00  0.00    +0.000 OA
ATOM     12  N   UNL     1       7.073   5.157  16.476  0.00  0.00    +0.000 N 
ATOM     13  O   UNL     1       7.602   5.492  15.394  0.00  0.00    +0.000 OA
ENDBRANCH   1   9
BRANCH   3  14
ATOM     14  S   UNL     1       1.526   3.598  20.771  0.00  0.00    +0.000 S 
ATOM     15  H   UNL     1       1.575   4.928  20.915  0.00  0.00    +0.000 HD
ENDBRANCH   3  14
TORSDOF 2
ENDMDL
MODEL 4
REMARK VINA RESULT:      -6.0      1.252      1.800
REMARK  Name = 
REMARK  3 active torsions:
REMARK  status: ('A' for Active; 'I' for Inactive)
REMARK    1  A    between atoms: C_1  and  C_2
REMARK    2  A    between atoms: C_3  and  C_4
REMARK    3  A    between atoms: C_6  and  S_7
REMARK                            x       y       z     vdW  Elec       q    Type
REMARK                         _______ _______ _______ _____ _____    ______ ____
ROOT
ATOM      1  C   UNL     1       4.756   4.277  18.893  0.00  0.00    +0.000 A 
ATOM      2  N   UNL     1       3.622   4.515  19.517  0.00  0.00    +0.000 NA
ATOM      3  C   UNL     1       3.395   3.351  20.197  0.00  0.00    +0.000 A 
ATOM      4  N   UNL     1       4.332   2.412  20.049  0.00  0.00    +0.000 NA
ATOM      5  N   UNL     1       5.188   3.022  19.212  0.00  0.00    +0.000 N 
ATOM      6  H   UNL     1       6.023   2.543  18.894  0.00  0.00    +0.000 HD
ENDROOT
BRANCH   1   9
ATOM      7  C   UNL     1       7.720   5.730  19.221  0.00  0.00    +0.000 C 
ATOM      8  C   UNL     1       6.710   5.806  18.157  0.00  0.00    +0.000 A 
ATOM      9  C   UNL     1       5.456   5.199  17.964  0.00  0.00    +0.000 A 
ATOM     10  N   UNL     1       4.902   5.561  16.802  0.00  0.00    +0.000 NA
ATOM     11  O   UNL     1       5.800   6.455  16.217  0.00  0.00    +0.000 OA
ATOM     12  N   UNL     1       6.921   6.591  17.102  0.00  0.00    +0.000 N 
ATOM     13  O   UNL     1       7.833   7.366  16.744  0.00  0.00    +0.000 OA
ENDBRANCH   1   9
BRANCH   3  14
ATOM     14  S   UNL     1       1.970   3.106  21.155  0.00  0.00    +0.000 S 
ATOM     15  H   UNL     1       1.502   2.073  20.443  0.00  0.00    +0.000 HD
ENDBRANCH   3  14
TORSDOF 2
ENDMDL
MODEL 5
REMARK VINA RESULT:      -6.0      3.803      5.144
REMARK  Name = 
REMARK  3 active torsions:
REMARK  status: ('A' for Active; 'I' for Inactive)
REMARK    1  A    between atoms: C_1  and  C_2
REMARK    2  A    between atoms: C_3  and  C_4
REMARK    3  A    between atoms: C_6  and  S_7
REMARK                            x       y       z     vdW  Elec       q    Type
REMARK                         _______ _______ _______ _____ _____    ______ ____
ROOT
ATOM      1  C   UNL     1       6.837   4.570  15.314  0.00  0.00    +0.000 A 
ATOM      2  N   UNL     1       6.205   3.685  14.575  0.00  0.00    +0.000 NA
ATOM      3  C   UNL     1       6.571   4.025  13.304  0.00  0.00    +0.000 A 
ATOM      4  N   UNL     1       7.412   5.057  13.210  0.00  0.00    +0.000 NA
ATOM      5  N   UNL     1       7.566   5.391  14.503  0.00  0.00    +0.000 N 
ATOM      6  H   UNL     1       8.159   6.171  14.764  0.00  0.00    +0.000 HD
ENDROOT
BRANCH   1   9
ATOM      7  C   UNL     1       4.209   5.214  17.233  0.00  0.00    +0.000 C 
ATOM      8  C   UNL     1       5.623   4.989  17.561  0.00  0.00    +0.000 A 
ATOM      9  C   UNL     1       6.763   4.694  16.791  0.00  0.00    +0.000 A 
ATOM     10  N   UNL     1       7.852   4.545  17.553  0.00  0.00    +0.000 NA
ATOM     11  O   UNL     1       7.431   4.772  18.864  0.00  0.00    +0.000 OA
ATOM     12  N   UNL     1       6.025   5.056  18.829  0.00  0.00    +0.000 N 
ATOM     13  O   UNL     1       5.470   5.296  19.922  0.00  0.00    +0.000 OA
ENDBRANCH   1   9
BRANCH   3  14
ATOM     14  S   UNL     1       5.956   3.193  11.912  0.00  0.00    +0.000 S 
ATOM     15  H   UNL     1       6.719   2.102  12.055  0.00  0.00    +0.000 HD
ENDBRANCH   3  14
TORSDOF 2
ENDMDL
MODEL 6
REMARK VINA RESULT:      -5.9      3.632      4.949
REMARK  Name = 
REMARK  3 active torsions:
REMARK  status: ('A' for Active; 'I' for Inactive)
REMARK    1  A    between atoms: C_1  and  C_2
REMARK    2  A    between atoms: C_3  and  C_4
REMARK    3  A    between atoms: C_6  and  S_7
REMARK                            x       y       z     vdW  Elec       q    Type
REMARK                         _______ _______ _______ _____ _____    ______ ____
ROOT
ATOM      1  C   UNL     1       6.513   4.677  16.066  0.00  0.00    +0.000 A 
ATOM      2  N   UNL     1       6.022   3.879  15.143  0.00  0.00    +0.000 NA
ATOM      3  C   UNL     1       6.680   4.273  14.012  0.00  0.00    +0.000 A 
ATOM      4  N   UNL     1       7.568   5.255  14.182  0.00  0.00    +0.000 NA
ATOM      5  N   UNL     1       7.444   5.499  15.497  0.00  0.00    +0.000 N 
ATOM      6  H   UNL     1       7.998   6.224  15.939  0.00  0.00    +0.000 HD
ENDROOT
BRANCH   1   9
ATOM      7  C   UNL     1       3.475   4.631  17.397  0.00  0.00    +0.000 C 
ATOM      8  C   UNL     1       4.807   4.714  18.011  0.00  0.00    +0.000 A 
ATOM      9  C   UNL     1       6.116   4.716  17.495  0.00  0.00    +0.000 A 
ATOM     10  N   UNL     1       7.033   4.781  18.466  0.00  0.00    +0.000 NA
ATOM     11  O   UNL     1       6.315   4.849  19.661  0.00  0.00    +0.000 OA
ATOM     12  N   UNL     1       4.918   4.813  19.335  0.00  0.00    +0.000 N 
ATOM     13  O   UNL     1       4.114   4.873  20.289  0.00  0.00    +0.000 OA
ENDBRANCH   1   9
BRANCH   3  14
ATOM     14  S   UNL     1       6.354   3.567  12.462  0.00  0.00    +0.000 S 
ATOM     15  H   UNL     1       7.580   3.059  12.282  0.00  0.00    +0.000 HD
ENDBRANCH   3  14
TORSDOF 2
ENDMDL
MODEL 7
REMARK VINA RESULT:      -5.9      3.716      4.880
REMARK  Name = 
REMARK  3 active torsions:
REMARK  status: ('A' for Active; 'I' for Inactive)
REMARK    1  A    between atoms: C_1  and  C_2
REMARK    2  A    between atoms: C_3  and  C_4
REMARK    3  A    between atoms: C_6  and  S_7
REMARK                            x       y       z     vdW  Elec       q    Type
REMARK                         _______ _______ _______ _____ _____    ______ ____
ROOT
ATOM      1  C   UNL     1       5.605   4.049  17.994  0.00  0.00    +0.000 A 
ATOM      2  N   UNL     1       5.371   4.175  16.706  0.00  0.00    +0.000 NA
ATOM      3  C   UNL     1       6.602   4.477  16.197  0.00  0.00    +0.000 A 
ATOM      4  N   UNL     1       7.592   4.526  17.090  0.00  0.00    +0.000 NA
ATOM      5  N   UNL     1       6.934   4.253  18.229  0.00  0.00    +0.000 N 
ATOM      6  H   UNL     1       7.429   4.228  19.114  0.00  0.00    +0.000 HD
ENDROOT
BRANCH   1   9
ATOM      7  C   UNL     1       2.908   5.785  18.845  0.00  0.00    +0.000 C 
ATOM      8  C   UNL     1       3.477   4.541  19.382  0.00  0.00    +0.000 A 
ATOM      9  C   UNL     1       4.598   3.761  19.046  0.00  0.00    +0.000 A 
ATOM     10  N   UNL     1       4.697   2.674  19.818  0.00  0.00    +0.000 NA
ATOM     11  O   UNL     1       3.627   2.746  20.711  0.00  0.00    +0.000 OA
ATOM     12  N   UNL     1       2.886   3.938  20.412  0.00  0.00    +0.000 N 
ATOM     13  O   UNL     1       1.886   4.175  21.123  0.00  0.00    +0.000 OA
ENDBRANCH   1   9
BRANCH   3  14
ATOM     14  S   UNL     1       6.847   4.809  14.512  0.00  0.00    +0.000 S 
ATOM     15  H   UNL     1       6.326   6.042  14.537  0.00  0.00    +0.000 HD
ENDBRANCH   3  14
TORSDOF 2
ENDMDL
MODEL 8
REMARK VINA RESULT:      -5.8      3.782      5.094
REMARK  Name = 
REMARK  3 active torsions:
REMARK  status: ('A' for Active; 'I' for Inactive)
REMARK    1  A    between atoms: C_1  and  C_2
REMARK    2  A    between atoms: C_3  and  C_4
REMARK    3  A    between atoms: C_6  and  S_7
REMARK                            x       y       z     vdW  Elec       q    Type
REMARK                         _______ _______ _______ _____ _____    ______ ____
ROOT
ATOM      1  C   UNL     1       5.459   4.217  17.845  0.00  0.00    +0.000 A 
ATOM      2  N   UNL     1       5.317   4.330  16.542  0.00  0.00    +0.000 NA
ATOM      3  C   UNL     1       6.600   4.500  16.105  0.00  0.00    +0.000 A 
ATOM      4  N   UNL     1       7.534   4.478  17.058  0.00  0.00    +0.000 NA
ATOM      5  N   UNL     1       6.785   4.300  18.158  0.00  0.00    +0.000 N 
ATOM      6  H   UNL     1       7.220   4.251  19.073  0.00  0.00    +0.000 HD
ENDROOT
BRANCH   1   9
ATOM      7  C   UNL     1       3.549   1.572  18.444  0.00  0.00    +0.000 C 
ATOM      8  C   UNL     1       3.569   2.915  19.041  0.00  0.00    +0.000 A 
ATOM      9  C   UNL     1       4.367   4.056  18.836  0.00  0.00    +0.000 A 
ATOM     10  N   UNL     1       4.021   5.056  19.653  0.00  0.00    +0.000 NA
ATOM     11  O   UNL     1       2.947   4.578  20.405  0.00  0.00    +0.000 OA
ATOM     12  N   UNL     1       2.686   3.230  19.986  0.00  0.00    +0.000 N 
ATOM     13  O   UNL     1       1.742   2.636  20.549  0.00  0.00    +0.000 OA
ENDBRANCH   1   9
BRANCH   3  14
ATOM     14  S   UNL     1       6.979   4.760  14.432  0.00  0.00    +0.000 S 
ATOM     15  H   UNL     1       6.290   3.709  13.970  0.00  0.00    +0.000 HD
ENDBRANCH   3  14
TORSDOF 2
ENDMDL
MODEL 9
REMARK VINA RESULT:      -5.8      1.034      1.458
REMARK  Name = 
REMARK  3 active torsions:
REMARK  status: ('A' for Active; 'I' for Inactive)
REMARK    1  A    between atoms: C_1  and  C_2
REMARK    2  A    between atoms: C_3  and  C_4
REMARK    3  A    between atoms: C_6  and  S_7
REMARK                            x       y       z     vdW  Elec       q    Type
REMARK                         _______ _______ _______ _____ _____    ______ ____
ROOT
ATOM      1  C   UNL     1       4.108   4.992  19.272  0.00  0.00    +0.000 A 
ATOM      2  N   UNL     1       3.515   3.887  18.875  0.00  0.00    +0.000 NA
ATOM      3  C   UNL     1       2.372   3.865  19.623  0.00  0.00    +0.000 A 
ATOM      4  N   UNL     1       2.209   4.904  20.446  0.00  0.00    +0.000 NA
ATOM      5  N   UNL     1       3.329   5.607  20.208  0.00  0.00    +0.000 N 
ATOM      6  H   UNL     1       3.507   6.472  20.707  0.00  0.00    +0.000 HD
ENDROOT
BRANCH   1   9
ATOM      7  C   UNL     1       4.873   6.619  16.484  0.00  0.00    +0.000 C 
ATOM      8  C   UNL     1       5.705   6.164  17.606  0.00  0.00    +0.000 A 
ATOM      9  C   UNL     1       5.427   5.494  18.811  0.00  0.00    +0.000 A 
ATOM     10  N   UNL     1       6.529   5.318  19.547  0.00  0.00    +0.000 NA
ATOM     11  O   UNL     1       7.574   5.863  18.801  0.00  0.00    +0.000 OA
ATOM     12  N   UNL     1       7.019   6.379  17.582  0.00  0.00    +0.000 N 
ATOM     13  O   UNL     1       7.816   6.904  16.776  0.00  0.00    +0.000 OA
ENDBRANCH   1   9
BRANCH   3  14
ATOM     14  S   UNL     1       1.233   2.560  19.531  0.00  0.00    +0.000 S 
ATOM     15  H   UNL     1       0.556   2.889  20.639  0.00  0.00    +0.000 HD
ENDBRANCH   3  14
TORSDOF 2
ENDMDL
