MODEL 1
REMARK VINA RESULT:      -7.9      0.000      0.000
REMARK  Name = 
REMARK  5 active torsions:
REMARK  status: ('A' for Active; 'I' for Inactive)
REMARK    1  A    between atoms: C_1  and  C_2
REMARK    2  A    between atoms: C_11  and  CA_13
REMARK    3  A    between atoms: CA_13  and  C_14
REMARK    4  A    between atoms: CA_13  and  N_16
REMARK    5  A    between atoms: C_14  and  O_15
REMARK                            x       y       z     vdW  Elec       q    Type
REMARK                         _______ _______ _______ _____ _____    ______ ____
ROOT
ATOM      1  C   UNL     1       0.733   8.526  21.254  0.00  0.00    +0.000 C 
ATOM      2  C   UNL     1       1.478   7.405  20.589  0.00  0.00    +0.000 A 
ATOM      3  C   UNL     1       1.459   6.113  21.122  0.00  0.00    +0.000 A 
ATOM      4  C   UNL     1       2.127   5.067  20.478  0.00  0.00    +0.000 A 
ATOM      5 BR   UNL     1       2.067   3.360  21.311  0.00  0.00    +0.000 Br
ATOM      6  C   UNL     1       2.819   5.289  19.274  0.00  0.00    +0.000 A 
ATOM      7  C   UNL     1       2.899   6.611  18.771  0.00  0.00    +0.000 A 
ATOM      8  C   UNL     1       2.208   7.645  19.420  0.00  0.00    +0.000 A 
ATOM      9  C   UNL     1       3.693   6.938  17.512  0.00  0.00    +0.000 C 
ATOM     10  N   UNL     1       4.521   5.829  17.061  0.00  0.00    +0.000 N 
ATOM     11  C   UNL     1       5.877   6.038  16.863  0.00  0.00    +0.000 C 
ATOM     12  O   UNL     1       6.369   7.170  17.000  0.00  0.00    +0.000 OA
ATOM     13  C   UNL     1       3.821   4.550  17.078  0.00  0.00    +0.000 C 
ATOM     14  C   UNL     1       3.529   4.169  18.535  0.00  0.00    +0.000 C 
ENDROOT
BRANCH  11  15
ATOM     15  CA  UNL     1       6.815   4.881  16.421  0.00  0.00    +0.000 C 
BRANCH  15  16
ATOM     16  N   UNL     1       7.601   5.411  15.293  0.00  0.00    +0.000 N 
ATOM     17  C   UNL     1       7.362   5.071  14.003  0.00  0.00    +0.000 C 
ATOM     18  N   UNL     1       8.182   5.698  13.128  0.00  0.00    +0.000 N 
ATOM     19  O   UNL     1       6.510   4.275  13.636  0.00  0.00    +0.000 OA
ATOM     20  H   UNL     1       8.197   6.208  15.488  0.00  0.00    +0.000 HD
ATOM     21  H   UNL     1       9.088   6.012  13.438  0.00  0.00    +0.000 HD
ATOM     22  H   UNL     1       8.133   5.347  12.178  0.00  0.00    +0.000 HD
ENDBRANCH  15  16
BRANCH  15  23
ATOM     23  C   UNL     1       7.779   4.385  17.509  0.00  0.00    +0.000 C 
BRANCH  23  24
ATOM     24  O   UNL     1       7.556   5.000  18.779  0.00  0.00    +0.000 OA
ATOM     25  H   UNL     1       8.377   4.939  19.299  0.00  0.00    +0.000 HD
ENDBRANCH  23  24
ENDBRANCH  15  23
ENDBRANCH  11  15
TORSDOF 4
ENDMDL
MODEL 2
REMARK VINA RESULT:      -6.5      3.083      4.256
REMARK  Name = 
REMARK  5 active torsions:
REMARK  status: ('A' for Active; 'I' for Inactive)
REMARK    1  A    between atoms: C_1  and  C_2
REMARK    2  A    between atoms: C_11  and  CA_13
REMARK    3  A    between atoms: CA_13  and  C_14
REMARK    4  A    between atoms: CA_13  and  N_16
REMARK    5  A    between atoms: C_14  and  O_15
REMARK                            x       y       z     vdW  Elec       q    Type
REMARK                         _______ _______ _______ _____ _____    ______ ____
ROOT
ATOM      1  C   UNL     1       0.216  12.220  18.386  0.00  0.00    +0.000 C 
ATOM      2  C   UNL     1       0.668  10.924  18.995  0.00  0.00    +0.000 A 
ATOM      3  C   UNL     1       0.496  10.671  20.358  0.00  0.00    +0.000 A 
ATOM      4  C   UNL     1       0.888   9.448  20.910  0.00  0.00    +0.000 A 
ATOM      5 BR   UNL     1       0.642   9.225  22.782  0.00  0.00    +0.000 Br
ATOM      6  C   UNL     1       1.452   8.443  20.104  0.00  0.00    +0.000 A 
ATOM      7  C   UNL     1       1.694   8.724  18.737  0.00  0.00    +0.000 A 
ATOM      8  C   UNL     1       1.277   9.950  18.196  0.00  0.00    +0.000 A 
ATOM      9  C   UNL     1       2.368   7.710  17.821  0.00  0.00    +0.000 C 
ATOM     10  N   UNL     1       2.931   6.580  18.545  0.00  0.00    +0.000 N 
ATOM     11  C   UNL     1       4.266   6.260  18.360  0.00  0.00    +0.000 C 
ATOM     12  O   UNL     1       4.958   6.883  17.538  0.00  0.00    +0.000 OA
ATOM     13  C   UNL     1       2.030   6.047  19.559  0.00  0.00    +0.000 C 
ATOM     14  C   UNL     1       1.861   7.094  20.668  0.00  0.00    +0.000 C 
ENDROOT
BRANCH  11  15
ATOM     15  CA  UNL     1       4.930   5.089  19.137  0.00  0.00    +0.000 C 
BRANCH  15  16
ATOM     16  N   UNL     1       4.563   3.863  18.406  0.00  0.00    +0.000 N 
ATOM     17  C   UNL     1       4.117   2.742  19.022  0.00  0.00    +0.000 C 
ATOM     18  N   UNL     1       3.808   1.748  18.158  0.00  0.00    +0.000 N 
ATOM     19  O   UNL     1       4.005   2.607  20.232  0.00  0.00    +0.000 OA
ATOM     20  H   UNL     1       4.450   3.950  17.402  0.00  0.00    +0.000 HD
ATOM     21  H   UNL     1       4.260   1.718  17.258  0.00  0.00    +0.000 HD
ATOM     22  H   UNL     1       3.624   0.851  18.594  0.00  0.00    +0.000 HD
ENDBRANCH  15  16
BRANCH  15  23
ATOM     23  C   UNL     1       6.460   5.170  19.235  0.00  0.00    +0.000 C 
BRANCH  23  24
ATOM     24  O   UNL     1       7.128   4.295  18.324  0.00  0.00    +0.000 OA
ATOM     25  H   UNL     1       6.907   3.377  18.562  0.00  0.00    +0.000 HD
ENDBRANCH  23  24
ENDBRANCH  15  23
ENDBRANCH  11  15
TORSDOF 4
ENDMDL
MODEL 3
REMARK VINA RESULT:      -6.4      3.855      7.097
REMARK  Name = 
REMARK  5 active torsions:
REMARK  status: ('A' for Active; 'I' for Inactive)
REMARK    1  A    between atoms: C_1  and  C_2
REMARK    2  A    between atoms: C_11  and  CA_13
REMARK    3  A    between atoms: CA_13  and  C_14
REMARK    4  A    between atoms: CA_13  and  N_16
REMARK    5  A    between atoms: C_14  and  O_15
REMARK                            x       y       z     vdW  Elec       q    Type
REMARK                         _______ _______ _______ _____ _____    ______ ____
ROOT
ATOM      1  C   UNL     1       5.793   3.741  15.470  0.00  0.00    +0.000 C 
ATOM      2  C   UNL     1       4.737   4.194  16.437  0.00  0.00    +0.000 A 
ATOM      3  C   UNL     1       3.818   3.289  16.973  0.00  0.00    +0.000 A 
ATOM      4  C   UNL     1       2.859   3.713  17.899  0.00  0.00    +0.000 A 
ATOM      5 BR   UNL     1       1.634   2.406  18.535  0.00  0.00    +0.000 Br
ATOM      6  C   UNL     1       2.809   5.053  18.321  0.00  0.00    +0.000 A 
ATOM      7  C   UNL     1       3.694   5.986  17.726  0.00  0.00    +0.000 A 
ATOM      8  C   UNL     1       4.661   5.541  16.811  0.00  0.00    +0.000 A 
ATOM      9  C   UNL     1       3.648   7.467  18.080  0.00  0.00    +0.000 C 
ATOM     10  N   UNL     1       2.479   7.824  18.870  0.00  0.00    +0.000 N 
ATOM     11  C   UNL     1       1.653   8.845  18.428  0.00  0.00    +0.000 C 
ATOM     12  O   UNL     1       1.941   9.495  17.409  0.00  0.00    +0.000 OA
ATOM     13  C   UNL     1       2.215   6.885  19.953  0.00  0.00    +0.000 C 
ATOM     14  C   UNL     1       1.800   5.538  19.347  0.00  0.00    +0.000 C 
ENDROOT
BRANCH  11  15
ATOM     15  CA  UNL     1       0.371   9.241  19.211  0.00  0.00    +0.000 C 
BRANCH  15  16
ATOM     16  N   UNL     1       0.820   9.577  20.573  0.00  0.00    +0.000 N 
ATOM     17  C   UNL     1       0.295   9.007  21.685  0.00  0.00    +0.000 C 
ATOM     18  N   UNL     1       0.876   9.438  22.828  0.00  0.00    +0.000 N 
ATOM     19  O   UNL     1      -0.617   8.193  21.689  0.00  0.00    +0.000 OA
ATOM     20  H   UNL     1       1.687  10.097  20.650  0.00  0.00    +0.000 HD
ATOM     21  H   UNL     1       1.310  10.348  22.849  0.00  0.00    +0.000 HD
ATOM     22  H   UNL     1       0.403   9.152  23.677  0.00  0.00    +0.000 HD
ENDBRANCH  15  16
BRANCH  15  23
ATOM     23  C   UNL     1      -0.392  10.440  18.628  0.00  0.00    +0.000 C 
BRANCH  23  24
ATOM     24  O   UNL     1      -0.865  10.214  17.300  0.00  0.00    +0.000 OA
ATOM     25  H   UNL     1      -1.816  10.421  17.272  0.00  0.00    +0.000 HD
ENDBRANCH  23  24
ENDBRANCH  15  23
ENDBRANCH  11  15
TORSDOF 4
ENDMDL
MODEL 4
REMARK VINA RESULT:      -6.2      4.055      7.148
REMARK  Name = 
REMARK  5 active torsions:
REMARK  status: ('A' for Active; 'I' for Inactive)
REMARK    1  A    between atoms: C_1  and  C_2
REMARK    2  A    between atoms: C_11  and  CA_13
REMARK    3  A    between atoms: CA_13  and  C_14
REMARK    4  A    between atoms: CA_13  and  N_16
REMARK    5  A    between atoms: C_14  and  O_15
REMARK                            x       y       z     vdW  Elec       q    Type
REMARK                         _______ _______ _______ _____ _____    ______ ____
ROOT
ATOM      1  C   UNL     1       5.475   3.734  15.716  0.00  0.00    +0.000 C 
ATOM      2  C   UNL     1       4.453   4.304  16.656  0.00  0.00    +0.000 A 
ATOM      3  C   UNL     1       3.494   3.485  17.258  0.00  0.00    +0.000 A 
ATOM      4  C   UNL     1       2.568   4.019  18.160  0.00  0.00    +0.000 A 
ATOM      5 BR   UNL     1       1.285   2.821  18.891  0.00  0.00    +0.000 Br
ATOM      6  C   UNL     1       2.588   5.385  18.489  0.00  0.00    +0.000 A 
ATOM      7  C   UNL     1       3.513   6.229  17.826  0.00  0.00    +0.000 A 
ATOM      8  C   UNL     1       4.447   5.675  16.938  0.00  0.00    +0.000 A 
ATOM      9  C   UNL     1       3.544   7.732  18.078  0.00  0.00    +0.000 C 
ATOM     10  N   UNL     1       2.402   8.200  18.850  0.00  0.00    +0.000 N 
ATOM     11  C   UNL     1       1.624   9.229  18.344  0.00  0.00    +0.000 C 
ATOM     12  O   UNL     1       1.933   9.793  17.281  0.00  0.00    +0.000 OA
ATOM     13  C   UNL     1       2.102   7.351  19.996  0.00  0.00    +0.000 C 
ATOM     14  C   UNL     1       1.615   5.988  19.486  0.00  0.00    +0.000 C 
ENDROOT
BRANCH  11  15
ATOM     15  CA  UNL     1       0.370   9.741  19.106  0.00  0.00    +0.000 C 
BRANCH  15  16
ATOM     16  N   UNL     1       0.685  11.123  19.512  0.00  0.00    +0.000 N 
ATOM     17  C   UNL     1       0.977  11.467  20.790  0.00  0.00    +0.000 C 
ATOM     18  N   UNL     1       1.264  12.782  20.932  0.00  0.00    +0.000 N 
ATOM     19  O   UNL     1       0.977  10.697  21.739  0.00  0.00    +0.000 OA
ATOM     20  H   UNL     1       0.886  11.781  18.768  0.00  0.00    +0.000 HD
ATOM     21  H   UNL     1       0.886  13.445  20.273  0.00  0.00    +0.000 HD
ATOM     22  H   UNL     1       1.331  13.098  21.893  0.00  0.00    +0.000 HD
ENDBRANCH  15  16
BRANCH  15  23
ATOM     23  C   UNL     1      -0.924   9.748  18.280  0.00  0.00    +0.000 C 
BRANCH  23  24
ATOM     24  O   UNL     1      -0.952  10.777  17.289  0.00  0.00    +0.000 OA
ATOM     25  H   UNL     1      -0.926  11.640  17.741  0.00  0.00    +0.000 HD
ENDBRANCH  23  24
ENDBRANCH  15  23
ENDBRANCH  11  15
TORSDOF 4
ENDMDL
MODEL 5
REMARK VINA RESULT:      -6.1      3.473      5.236
REMARK  Name = 
REMARK  5 active torsions:
REMARK  status: ('A' for Active; 'I' for Inactive)
REMARK    1  A    between atoms: C_1  and  C_2
REMARK    2  A    between atoms: C_11  and  CA_13
REMARK    3  A    between atoms: CA_13  and  C_14
REMARK    4  A    between atoms: CA_13  and  N_16
REMARK    5  A    between atoms: C_14  and  O_15
REMARK                            x       y       z     vdW  Elec       q    Type
REMARK                         _______ _______ _______ _____ _____    ______ ____
ROOT
ATOM      1  C   UNL     1      -1.348  11.199  23.072  0.00  0.00    +0.000 C 
ATOM      2  C   UNL     1      -0.746  10.605  21.831  0.00  0.00    +0.000 A 
ATOM      3  C   UNL     1      -1.146  11.033  20.562  0.00  0.00    +0.000 A 
ATOM      4  C   UNL     1      -0.556  10.499  19.412  0.00  0.00    +0.000 A 
ATOM      5 BR   UNL     1      -1.203  11.125  17.738  0.00  0.00    +0.000 Br
ATOM      6  C   UNL     1       0.461   9.532  19.508  0.00  0.00    +0.000 A 
ATOM      7  C   UNL     1       0.818   9.047  20.790  0.00  0.00    +0.000 A 
ATOM      8  C   UNL     1       0.228   9.606  21.934  0.00  0.00    +0.000 A 
ATOM      9  C   UNL     1       1.859   7.948  20.965  0.00  0.00    +0.000 C 
ATOM     10  N   UNL     1       2.234   7.318  19.708  0.00  0.00    +0.000 N 
ATOM     11  C   UNL     1       2.139   5.940  19.590  0.00  0.00    +0.000 C 
ATOM     12  O   UNL     1       1.805   5.244  20.563  0.00  0.00    +0.000 OA
ATOM     13  C   UNL     1       2.471   8.279  18.637  0.00  0.00    +0.000 C 
ATOM     14  C   UNL     1       1.142   8.956  18.280  0.00  0.00    +0.000 C 
ENDROOT
BRANCH  11  15
ATOM     15  CA  UNL     1       2.488   5.219  18.259  0.00  0.00    +0.000 C 
BRANCH  15  16
ATOM     16  N   UNL     1       3.749   4.498  18.512  0.00  0.00    +0.000 N 
ATOM     17  C   UNL     1       4.926   4.851  17.942  0.00  0.00    +0.000 C 
ATOM     18  N   UNL     1       5.961   4.073  18.337  0.00  0.00    +0.000 N 
ATOM     19  O   UNL     1       5.070   5.763  17.141  0.00  0.00    +0.000 OA
ATOM     20  H   UNL     1       3.755   3.855  19.295  0.00  0.00    +0.000 HD
ATOM     21  H   UNL     1       5.780   3.133  18.652  0.00  0.00    +0.000 HD
ATOM     22  H   UNL     1       6.817   4.210  17.811  0.00  0.00    +0.000 HD
ENDBRANCH  15  16
BRANCH  15  23
ATOM     23  C   UNL     1       1.430   4.215  17.777  0.00  0.00    +0.000 C 
BRANCH  23  24
ATOM     24  O   UNL     1       1.440   2.992  18.514  0.00  0.00    +0.000 OA
ATOM     25  H   UNL     1       2.043   2.370  18.069  0.00  0.00    +0.000 HD
ENDBRANCH  23  24
ENDBRANCH  15  23
ENDBRANCH  11  15
TORSDOF 4
ENDMDL
MODEL 6
REMARK VINA RESULT:      -6.0      3.096      4.424
REMARK  Name = 
REMARK  5 active torsions:
REMARK  status: ('A' for Active; 'I' for Inactive)
REMARK    1  A    between atoms: C_1  and  C_2
REMARK    2  A    between atoms: C_11  and  CA_13
REMARK    3  A    between atoms: CA_13  and  C_14
REMARK    4  A    between atoms: CA_13  and  N_16
REMARK    5  A    between atoms: C_14  and  O_15
REMARK                            x       y       z     vdW  Elec       q    Type
REMARK                         _______ _______ _______ _____ _____    ______ ____
ROOT
ATOM      1  C   UNL     1      -0.669   9.812  22.769  0.00  0.00    +0.000 C 
ATOM      2  C   UNL     1       0.155   9.247  21.647  0.00  0.00    +0.000 A 
ATOM      3  C   UNL     1       0.405   9.994  20.493  0.00  0.00    +0.000 A 
ATOM      4  C   UNL     1       1.202   9.473  19.468  0.00  0.00    +0.000 A 
ATOM      5 BR   UNL     1       1.446  10.560  17.927  0.00  0.00    +0.000 Br
ATOM      6  C   UNL     1       1.778   8.196  19.582  0.00  0.00    +0.000 A 
ATOM      7  C   UNL     1       1.467   7.410  20.719  0.00  0.00    +0.000 A 
ATOM      8  C   UNL     1       0.681   7.954  21.747  0.00  0.00    +0.000 A 
ATOM      9  C   UNL     1       1.996   5.990  20.876  0.00  0.00    +0.000 C 
ATOM     10  N   UNL     1       2.615   5.479  19.662  0.00  0.00    +0.000 N 
ATOM     11  C   UNL     1       2.175   4.276  19.135  0.00  0.00    +0.000 C 
ATOM     12  O   UNL     1       1.311   3.605  19.726  0.00  0.00    +0.000 OA
ATOM     13  C   UNL     1       3.508   6.443  19.029  0.00  0.00    +0.000 C 
ATOM     14  C   UNL     1       2.671   7.616  18.501  0.00  0.00    +0.000 C 
ENDROOT
BRANCH  11  15
ATOM     15  CA  UNL     1       2.772   3.704  17.820  0.00  0.00    +0.000 C 
BRANCH  15  16
ATOM     16  N   UNL     1       4.235   3.727  18.000  0.00  0.00    +0.000 N 
ATOM     17  C   UNL     1       5.096   4.035  17.001  0.00  0.00    +0.000 C 
ATOM     18  N   UNL     1       6.391   4.027  17.394  0.00  0.00    +0.000 N 
ATOM     19  O   UNL     1       4.770   4.287  15.850  0.00  0.00    +0.000 OA
ATOM     20  H   UNL     1       4.575   3.713  18.955  0.00  0.00    +0.000 HD
ATOM     21  H   UNL     1       6.665   3.456  18.179  0.00  0.00    +0.000 HD
ATOM     22  H   UNL     1       7.063   4.097  16.638  0.00  0.00    +0.000 HD
ENDBRANCH  15  16
BRANCH  15  23
ATOM     23  C   UNL     1       2.335   2.269  17.488  0.00  0.00    +0.000 C 
BRANCH  23  24
ATOM     24  O   UNL     1       2.687   1.326  18.501  0.00  0.00    +0.000 OA
ATOM     25  H   UNL     1       2.605   1.761  19.368  0.00  0.00    +0.000 HD
ENDBRANCH  23  24
ENDBRANCH  15  23
ENDBRANCH  11  15
TORSDOF 4
ENDMDL
MODEL 7
REMARK VINA RESULT:      -5.9     10.106     12.809
REMARK  Name = 
REMARK  5 active torsions:
REMARK  status: ('A' for Active; 'I' for Inactive)
REMARK    1  A    between atoms: C_1  and  C_2
REMARK    2  A    between atoms: C_11  and  CA_13
REMARK    3  A    between atoms: CA_13  and  C_14
REMARK    4  A    between atoms: CA_13  and  N_16
REMARK    5  A    between atoms: C_14  and  O_15
REMARK                            x       y       z     vdW  Elec       q    Type
REMARK                         _______ _______ _______ _____ _____    ______ ____
ROOT
ATOM      1  C   UNL     1      -2.909   9.793  15.884  0.00  0.00    +0.000 C 
ATOM      2  C   UNL     1      -2.521  10.420  17.192  0.00  0.00    +0.000 A 
ATOM      3  C   UNL     1      -1.265  10.186  17.757  0.00  0.00    +0.000 A 
ATOM      4  C   UNL     1      -0.898  10.801  18.958  0.00  0.00    +0.000 A 
ATOM      5 BR   UNL     1       0.820  10.382  19.655  0.00  0.00    +0.000 Br
ATOM      6  C   UNL     1      -1.780  11.677  19.616  0.00  0.00    +0.000 A 
ATOM      7  C   UNL     1      -3.079  11.860  19.082  0.00  0.00    +0.000 A 
ATOM      8  C   UNL     1      -3.424  11.249  17.867  0.00  0.00    +0.000 A 
ATOM      9  C   UNL     1      -4.112  12.737  19.780  0.00  0.00    +0.000 C 
ATOM     10  N   UNL     1      -3.703  13.136  21.119  0.00  0.00    +0.000 N 
ATOM     11  C   UNL     1      -4.549  12.880  22.186  0.00  0.00    +0.000 C 
ATOM     12  O   UNL     1      -5.671  12.381  21.998  0.00  0.00    +0.000 OA
ATOM     13  C   UNL     1      -2.316  13.582  21.182  0.00  0.00    +0.000 C 
ATOM     14  C   UNL     1      -1.400  12.383  20.905  0.00  0.00    +0.000 C 
ENDROOT
BRANCH  11  15
ATOM     15  CA  UNL     1      -4.147  13.249  23.641  0.00  0.00    +0.000 C 
BRANCH  15  16
ATOM     16  N   UNL     1      -5.053  14.339  24.044  0.00  0.00    +0.000 N 
ATOM     17  C   UNL     1      -4.664  15.636  24.107  0.00  0.00    +0.000 C 
ATOM     18  N   UNL     1      -5.664  16.472  24.469  0.00  0.00    +0.000 N 
ATOM     19  O   UNL     1      -3.533  16.038  23.879  0.00  0.00    +0.000 OA
ATOM     20  H   UNL     1      -6.043  14.121  24.070  0.00  0.00    +0.000 HD
ATOM     21  H   UNL     1      -6.431  16.117  25.019  0.00  0.00    +0.000 HD
ATOM     22  H   UNL     1      -5.368  17.419  24.677  0.00  0.00    +0.000 HD
ENDBRANCH  15  16
BRANCH  15  23
ATOM     23  C   UNL     1      -4.272  12.099  24.651  0.00  0.00    +0.000 C 
BRANCH  23  24
ATOM     24  O   UNL     1      -5.616  11.650  24.827  0.00  0.00    +0.000 OA
ATOM     25  H   UNL     1      -5.726  11.362  25.751  0.00  0.00    +0.000 HD
ENDBRANCH  23  24
ENDBRANCH  15  23
ENDBRANCH  11  15
TORSDOF 4
ENDMDL
MODEL 8
REMARK VINA RESULT:      -5.8      5.579      7.940
REMARK  Name = 
REMARK  5 active torsions:
REMARK  status: ('A' for Active; 'I' for Inactive)
REMARK    1  A    between atoms: C_1  and  C_2
REMARK    2  A    between atoms: C_11  and  CA_13
REMARK    3  A    between atoms: CA_13  and  C_14
REMARK    4  A    between atoms: CA_13  and  N_16
REMARK    5  A    between atoms: C_14  and  O_15
REMARK                            x       y       z     vdW  Elec       q    Type
REMARK                         _______ _______ _______ _____ _____    ______ ____
ROOT
ATOM      1  C   UNL     1       2.881   3.911  20.831  0.00  0.00    +0.000 C 
ATOM      2  C   UNL     1       2.769   5.218  20.100  0.00  0.00    +0.000 A 
ATOM      3  C   UNL     1       3.548   5.478  18.969  0.00  0.00    +0.000 A 
ATOM      4  C   UNL     1       3.412   6.683  18.274  0.00  0.00    +0.000 A 
ATOM      5 BR   UNL     1       4.549   6.948  16.773  0.00  0.00    +0.000 Br
ATOM      6  C   UNL     1       2.481   7.652  18.687  0.00  0.00    +0.000 A 
ATOM      7  C   UNL     1       1.741   7.420  19.873  0.00  0.00    +0.000 A 
ATOM      8  C   UNL     1       1.876   6.198  20.549  0.00  0.00    +0.000 A 
ATOM      9  C   UNL     1       0.767   8.456  20.421  0.00  0.00    +0.000 C 
ATOM     10  N   UNL     1       0.876   9.744  19.753  0.00  0.00    +0.000 N 
ATOM     11  C   UNL     1       1.085  10.883  20.513  0.00  0.00    +0.000 C 
ATOM     12  O   UNL     1       1.110  10.819  21.754  0.00  0.00    +0.000 OA
ATOM     13  C   UNL     1       0.958   9.628  18.301  0.00  0.00    +0.000 C 
ATOM     14  C   UNL     1       2.289   8.957  17.936  0.00  0.00    +0.000 C 
ENDROOT
BRANCH  11  15
ATOM     15  CA  UNL     1       1.248  12.278  19.850  0.00  0.00    +0.000 C 
BRANCH  15  16
ATOM     16  N   UNL     1      -0.016  12.993  20.102  0.00  0.00    +0.000 N 
ATOM     17  C   UNL     1      -1.041  13.015  19.216  0.00  0.00    +0.000 C 
ATOM     18  N   UNL     1      -2.116  13.704  19.665  0.00  0.00    +0.000 N 
ATOM     19  O   UNL     1      -1.023  12.488  18.113  0.00  0.00    +0.000 OA
ATOM     20  H   UNL     1      -0.184  13.297  21.055  0.00  0.00    +0.000 HD
ATOM     21  H   UNL     1      -1.985  14.433  20.348  0.00  0.00    +0.000 HD
ATOM     22  H   UNL     1      -2.832  13.870  18.967  0.00  0.00    +0.000 HD
ENDBRANCH  15  16
BRANCH  15  23
ATOM     23  C   UNL     1       2.412  13.117  20.398  0.00  0.00    +0.000 C 
BRANCH  23  24
ATOM     24  O   UNL     1       2.120  13.728  21.656  0.00  0.00    +0.000 OA
ATOM     25  H   UNL     1       2.513  14.620  21.663  0.00  0.00    +0.000 HD
ENDBRANCH  23  24
ENDBRANCH  15  23
ENDBRANCH  11  15
TORSDOF 4
ENDMDL
MODEL 9
REMARK VINA RESULT:      -5.8      2.350      3.419
REMARK  Name = 
REMARK  5 active torsions:
REMARK  status: ('A' for Active; 'I' for Inactive)
REMARK    1  A    between atoms: C_1  and  C_2
REMARK    2  A    between atoms: C_11  and  CA_13
REMARK    3  A    between atoms: CA_13  and  C_14
REMARK    4  A    between atoms: CA_13  and  N_16
REMARK    5  A    between atoms: C_14  and  O_15
REMARK                            x       y       z     vdW  Elec       q    Type
REMARK                         _______ _______ _______ _____ _____    ______ ____
ROOT
ATOM      1  C   UNL     1       2.189   3.958  21.503  0.00  0.00    +0.000 C 
ATOM      2  C   UNL     1       2.751   4.691  20.319  0.00  0.00    +0.000 A 
ATOM      3  C   UNL     1       2.214   5.915  19.912  0.00  0.00    +0.000 A 
ATOM      4  C   UNL     1       2.766   6.608  18.829  0.00  0.00    +0.000 A 
ATOM      5 BR   UNL     1       1.933   8.245  18.337  0.00  0.00    +0.000 Br
ATOM      6  C   UNL     1       3.877   6.096  18.138  0.00  0.00    +0.000 A 
ATOM      7  C   UNL     1       4.377   4.823  18.504  0.00  0.00    +0.000 A 
ATOM      8  C   UNL     1       3.824   4.149  19.604  0.00  0.00    +0.000 A 
ATOM      9  C   UNL     1       5.533   4.173  17.752  0.00  0.00    +0.000 C 
ATOM     10  N   UNL     1       5.871   4.871  16.521  0.00  0.00    +0.000 N 
ATOM     11  C   UNL     1       5.905   4.162  15.331  0.00  0.00    +0.000 C 
ATOM     12  O   UNL     1       5.717   2.934  15.322  0.00  0.00    +0.000 OA
ATOM     13  C   UNL     1       5.930   6.319  16.685  0.00  0.00    +0.000 C 
ATOM     14  C   UNL     1       4.517   6.839  16.978  0.00  0.00    +0.000 C 
ENDROOT
BRANCH  11  15
ATOM     15  CA  UNL     1       6.221   4.865  13.982  0.00  0.00    +0.000 C 
BRANCH  15  16
ATOM     16  N   UNL     1       7.669   5.141  14.003  0.00  0.00    +0.000 N 
ATOM     17  C   UNL     1       8.303   5.824  13.020  0.00  0.00    +0.000 C 
ATOM     18  N   UNL     1       9.625   5.989  13.257  0.00  0.00    +0.000 N 
ATOM     19  O   UNL     1       7.769   6.248  12.005  0.00  0.00    +0.000 OA
ATOM     20  H   UNL     1       8.147   4.989  14.884  0.00  0.00    +0.000 HD
ATOM     21  H   UNL     1      10.108   5.329  13.846  0.00  0.00    +0.000 HD
ATOM     22  H   UNL     1      10.153   6.354  12.472  0.00  0.00    +0.000 HD
ENDBRANCH  15  16
BRANCH  15  23
ATOM     23  C   UNL     1       5.891   4.034  12.734  0.00  0.00    +0.000 C 
BRANCH  23  24
ATOM     24  O   UNL     1       6.616   2.804  12.670  0.00  0.00    +0.000 OA
ATOM     25  H   UNL     1       7.375   2.863  13.277  0.00  0.00    +0.000 HD
ENDBRANCH  23  24
ENDBRANCH  15  23
ENDBRANCH  11  15
TORSDOF 4
ENDMDL
