MODEL 1
REMARK VINA RESULT:      -8.4      0.000      0.000
REMARK  Name = 
REMARK  8 active torsions:
REMARK  status: ('A' for Active; 'I' for Inactive)
REMARK    1  A    between atoms: C_1  and  N_2
REMARK    2  A    between atoms: N_2  and  C_16
REMARK    3  A    between atoms: C_3  and  C_5
REMARK    4  A    between atoms: C_5  and  N_6
REMARK    5  A    between atoms: C_7  and  C_9
REMARK    6  A    between atoms: C_9  and  C_10
REMARK    7  A    between atoms: C_22  and  C_23
REMARK    8  A    between atoms: C_23  and  C_25
REMARK                            x       y       z     vdW  Elec       q    Type
REMARK                         _______ _______ _______ _____ _____    ______ ____
ROOT
ATOM      1  C   UNL     1       5.175   4.750  15.589  0.00  0.00    +0.000 C 
ATOM      2  N   UNL     1       5.553   5.599  16.713  0.00  0.00    +0.000 N 
ATOM      3  C   UNL     1       6.856   6.128  16.723  0.00  0.00    +0.000 C 
ATOM      4  O   UNL     1       7.687   5.854  15.850  0.00  0.00    +0.000 OA
ENDROOT
BRANCH   2   5
ATOM      5  C   UNL     1       4.487   6.305  17.339  0.00  0.00    +0.000 A 
ATOM      6  C   UNL     1       4.076   7.509  16.734  0.00  0.00    +0.000 A 
ATOM      7  C   UNL     1       3.116   8.326  17.331  0.00  0.00    +0.000 A 
ATOM      8  C   UNL     1       2.538   7.931  18.531  0.00  0.00    +0.000 A 
ATOM      9 CL   UNL     1       1.376   8.942  19.289  0.00  0.00    +0.000 Cl
ATOM     10  C   UNL     1       2.901   6.721  19.119  0.00  0.00    +0.000 A 
ATOM     11  C   UNL     1       3.883   5.885  18.540  0.00  0.00    +0.000 A 
BRANCH  11  12
ATOM     12  C   UNL     1       4.176   4.634  19.311  0.00  0.00    +0.000 C 
ATOM     13  O   UNL     1       5.368   4.311  19.384  0.00  0.00    +0.000 OA
BRANCH  12  14
ATOM     14  C   UNL     1       3.166   3.712  19.885  0.00  0.00    +0.000 A 
ATOM     15  C   UNL     1       2.852   3.801  21.248  0.00  0.00    +0.000 A 
ATOM     16  C   UNL     1       1.860   2.999  21.818  0.00  0.00    +0.000 A 
ATOM     17  C   UNL     1       1.098   2.163  21.012  0.00  0.00    +0.000 A 
ATOM     18  C   UNL     1       1.363   2.094  19.644  0.00  0.00    +0.000 A 
ATOM     19  C   UNL     1       2.407   2.845  19.080  0.00  0.00    +0.000 A 
ATOM     20 CL   UNL     1       2.686   2.603  17.391  0.00  0.00    +0.000 Cl
ENDBRANCH  12  14
ENDBRANCH  11  12
ENDBRANCH   2   5
BRANCH   3  21
ATOM     21  C   UNL     1       7.230   7.053  17.895  0.00  0.00    +0.000 C 
BRANCH  21  22
ATOM     22  N   UNL     1       7.489   8.413  17.479  0.00  0.00    +0.000 N 
ATOM     23  C   UNL     1       8.390   9.184  18.189  0.00  0.00    +0.000 C 
ATOM     24  O   UNL     1       9.023   8.738  19.143  0.00  0.00    +0.000 OA
ATOM     25  H   UNL     1       6.900   8.836  16.772  0.00  0.00    +0.000 HD
BRANCH  23  26
ATOM     26  C   UNL     1       8.525  10.609  17.704  0.00  0.00    +0.000 C 
BRANCH  26  27
ATOM     27  C   UNL     1       9.603  11.350  18.455  0.00  0.00    +0.000 A 
ATOM     28  C   UNL     1       9.308  11.994  19.666  0.00  0.00    +0.000 A 
ATOM     29  C   UNL     1      10.288  12.724  20.338  0.00  0.00    +0.000 A 
ATOM     30  C   UNL     1      11.575  12.809  19.812  0.00  0.00    +0.000 A 
ATOM     31  C   UNL     1      11.886  12.153  18.621  0.00  0.00    +0.000 A 
ATOM     32  C   UNL     1      10.906  11.425  17.946  0.00  0.00    +0.000 A 
ENDBRANCH  26  27
ENDBRANCH  23  26
ENDBRANCH  21  22
ENDBRANCH   3  21
TORSDOF 7
ENDMDL
MODEL 2
REMARK VINA RESULT:      -8.3      2.150      3.344
REMARK  Name = 
REMARK  8 active torsions:
REMARK  status: ('A' for Active; 'I' for Inactive)
REMARK    1  A    between atoms: C_1  and  N_2
REMARK    2  A    between atoms: N_2  and  C_16
REMARK    3  A    between atoms: C_3  and  C_5
REMARK    4  A    between atoms: C_5  and  N_6
REMARK    5  A    between atoms: C_7  and  C_9
REMARK    6  A    between atoms: C_9  and  C_10
REMARK    7  A    between atoms: C_22  and  C_23
REMARK    8  A    between atoms: C_23  and  C_25
REMARK                            x       y       z     vdW  Elec       q    Type
REMARK                         _______ _______ _______ _____ _____    ______ ____
ROOT
ATOM      1  C   UNL     1       5.821   3.964  19.756  0.00  0.00    +0.000 C 
ATOM      2  N   UNL     1       6.296   5.050  18.906  0.00  0.00    +0.000 N 
ATOM      3  C   UNL     1       7.434   5.761  19.329  0.00  0.00    +0.000 C 
ATOM      4  O   UNL     1       7.996   5.529  20.405  0.00  0.00    +0.000 OA
ENDROOT
BRANCH   2   5
ATOM      5  C   UNL     1       6.006   4.919  17.518  0.00  0.00    +0.000 A 
ATOM      6  C   UNL     1       6.994   4.318  16.713  0.00  0.00    +0.000 A 
ATOM      7  C   UNL     1       6.850   4.243  15.328  0.00  0.00    +0.000 A 
ATOM      8  C   UNL     1       5.699   4.750  14.737  0.00  0.00    +0.000 A 
ATOM      9 CL   UNL     1       5.523   4.689  13.029  0.00  0.00    +0.000 Cl
ATOM     10  C   UNL     1       4.693   5.307  15.523  0.00  0.00    +0.000 A 
ATOM     11  C   UNL     1       4.825   5.406  16.927  0.00  0.00    +0.000 A 
BRANCH  11  12
ATOM     12  C   UNL     1       3.666   6.054  17.622  0.00  0.00    +0.000 C 
ATOM     13  O   UNL     1       3.499   7.257  17.386  0.00  0.00    +0.000 OA
BRANCH  12  14
ATOM     14  C   UNL     1       2.791   5.413  18.633  0.00  0.00    +0.000 A 
ATOM     15  C   UNL     1       2.407   6.141  19.767  0.00  0.00    +0.000 A 
ATOM     16  C   UNL     1       1.530   5.602  20.712  0.00  0.00    +0.000 A 
ATOM     17  C   UNL     1       0.947   4.362  20.487  0.00  0.00    +0.000 A 
ATOM     18  C   UNL     1       1.280   3.641  19.341  0.00  0.00    +0.000 A 
ATOM     19  C   UNL     1       2.215   4.148  18.425  0.00  0.00    +0.000 A 
ATOM     20 CL   UNL     1       2.604   3.117  17.091  0.00  0.00    +0.000 Cl
ENDBRANCH  12  14
ENDBRANCH  11  12
ENDBRANCH   2   5
BRANCH   3  21
ATOM     21  C   UNL     1       7.948   6.879  18.403  0.00  0.00    +0.000 C 
BRANCH  21  22
ATOM     22  N   UNL     1       8.681   7.903  19.112  0.00  0.00    +0.000 N 
ATOM     23  C   UNL     1       8.639   9.209  18.660  0.00  0.00    +0.000 C 
ATOM     24  O   UNL     1       7.955   9.546  17.697  0.00  0.00    +0.000 OA
ATOM     25  H   UNL     1       9.338   7.634  19.834  0.00  0.00    +0.000 HD
BRANCH  23  26
ATOM     26  C   UNL     1       9.500  10.177  19.438  0.00  0.00    +0.000 C 
BRANCH  26  27
ATOM     27  C   UNL     1       9.894  11.365  18.598  0.00  0.00    +0.000 A 
ATOM     28  C   UNL     1      11.139  11.396  17.952  0.00  0.00    +0.000 A 
ATOM     29  C   UNL     1      11.530  12.514  17.217  0.00  0.00    +0.000 A 
ATOM     30  C   UNL     1      10.676  13.610  17.112  0.00  0.00    +0.000 A 
ATOM     31  C   UNL     1       9.427  13.582  17.730  0.00  0.00    +0.000 A 
ATOM     32  C   UNL     1       9.035  12.464  18.468  0.00  0.00    +0.000 A 
ENDBRANCH  26  27
ENDBRANCH  23  26
ENDBRANCH  21  22
ENDBRANCH   3  21
TORSDOF 7
ENDMDL
MODEL 3
REMARK VINA RESULT:      -8.1      4.138      7.384
REMARK  Name = 
REMARK  8 active torsions:
REMARK  status: ('A' for Active; 'I' for Inactive)
REMARK    1  A    between atoms: C_1  and  N_2
REMARK    2  A    between atoms: N_2  and  C_16
REMARK    3  A    between atoms: C_3  and  C_5
REMARK    4  A    between atoms: C_5  and  N_6
REMARK    5  A    between atoms: C_7  and  C_9
REMARK    6  A    between atoms: C_9  and  C_10
REMARK    7  A    between atoms: C_22  and  C_23
REMARK    8  A    between atoms: C_23  and  C_25
REMARK                            x       y       z     vdW  Elec       q    Type
REMARK                         _______ _______ _______ _____ _____    ______ ____
ROOT
ATOM      1  C   UNL     1       6.659   5.513  19.572  0.00  0.00    +0.000 C 
ATOM      2  N   UNL     1       5.885   4.974  18.458  0.00  0.00    +0.000 N 
ATOM      3  C   UNL     1       6.595   4.408  17.383  0.00  0.00    +0.000 C 
ATOM      4  O   UNL     1       7.830   4.406  17.335  0.00  0.00    +0.000 OA
ENDROOT
BRANCH   2   5
ATOM      5  C   UNL     1       4.580   4.505  18.783  0.00  0.00    +0.000 A 
ATOM      6  C   UNL     1       4.485   3.211  19.332  0.00  0.00    +0.000 A 
ATOM      7  C   UNL     1       3.246   2.622  19.581  0.00  0.00    +0.000 A 
ATOM      8  C   UNL     1       2.086   3.336  19.305  0.00  0.00    +0.000 A 
ATOM      9 CL   UNL     1       0.554   2.611  19.580  0.00  0.00    +0.000 Cl
ATOM     10  C   UNL     1       2.164   4.634  18.804  0.00  0.00    +0.000 A 
ATOM     11  C   UNL     1       3.410   5.245  18.531  0.00  0.00    +0.000 A 
BRANCH  11  12
ATOM     12  C   UNL     1       3.318   6.633  17.971  0.00  0.00    +0.000 C 
ATOM     13  O   UNL     1       4.066   6.881  17.017  0.00  0.00    +0.000 OA
BRANCH  12  14
ATOM     14  C   UNL     1       2.506   7.740  18.528  0.00  0.00    +0.000 A 
ATOM     15  C   UNL     1       2.128   8.801  17.693  0.00  0.00    +0.000 A 
ATOM     16  C   UNL     1       1.306   9.832  18.155  0.00  0.00    +0.000 A 
ATOM     17  C   UNL     1       0.770   9.768  19.435  0.00  0.00    +0.000 A 
ATOM     18  C   UNL     1       1.095   8.697  20.266  0.00  0.00    +0.000 A 
ATOM     19  C   UNL     1       1.978   7.696  19.830  0.00  0.00    +0.000 A 
ATOM     20 CL   UNL     1       2.366   6.472  20.988  0.00  0.00    +0.000 Cl
ENDBRANCH  12  14
ENDBRANCH  11  12
ENDBRANCH   2   5
BRANCH   3  21
ATOM     21  C   UNL     1       5.766   3.808  16.233  0.00  0.00    +0.000 C 
BRANCH  21  22
ATOM     22  N   UNL     1       6.487   3.770  14.981  0.00  0.00    +0.000 N 
ATOM     23  C   UNL     1       6.570   4.913  14.206  0.00  0.00    +0.000 C 
ATOM     24  O   UNL     1       6.090   5.984  14.568  0.00  0.00    +0.000 OA
ATOM     25  H   UNL     1       6.791   2.879  14.610  0.00  0.00    +0.000 HD
BRANCH  23  26
ATOM     26  C   UNL     1       7.287   4.734  12.888  0.00  0.00    +0.000 C 
BRANCH  26  27
ATOM     27  C   UNL     1       6.769   3.534  12.136  0.00  0.00    +0.000 A 
ATOM     28  C   UNL     1       5.390   3.335  11.981  0.00  0.00    +0.000 A 
ATOM     29  C   UNL     1       4.905   2.201  11.331  0.00  0.00    +0.000 A 
ATOM     30  C   UNL     1       5.794   1.258  10.821  0.00  0.00    +0.000 A 
ATOM     31  C   UNL     1       7.168   1.456  10.948  0.00  0.00    +0.000 A 
ATOM     32  C   UNL     1       7.655   2.590  11.600  0.00  0.00    +0.000 A 
ENDBRANCH  26  27
ENDBRANCH  23  26
ENDBRANCH  21  22
ENDBRANCH   3  21
TORSDOF 7
ENDMDL
MODEL 4
REMARK VINA RESULT:      -7.9      5.865      9.702
REMARK  Name = 
REMARK  8 active torsions:
REMARK  status: ('A' for Active; 'I' for Inactive)
REMARK    1  A    between atoms: C_1  and  N_2
REMARK    2  A    between atoms: N_2  and  C_16
REMARK    3  A    between atoms: C_3  and  C_5
REMARK    4  A    between atoms: C_5  and  N_6
REMARK    5  A    between atoms: C_7  and  C_9
REMARK    6  A    between atoms: C_9  and  C_10
REMARK    7  A    between atoms: C_22  and  C_23
REMARK    8  A    between atoms: C_23  and  C_25
REMARK                            x       y       z     vdW  Elec       q    Type
REMARK                         _______ _______ _______ _____ _____    ______ ____
ROOT
ATOM      1  C   UNL     1      -0.827  11.217  22.758  0.00  0.00    +0.000 C 
ATOM      2  N   UNL     1       0.027  11.018  21.592  0.00  0.00    +0.000 N 
ATOM      3  C   UNL     1       0.058   9.734  21.019  0.00  0.00    +0.000 C 
ATOM      4  O   UNL     1      -0.562   8.780  21.500  0.00  0.00    +0.000 OA
ENDROOT
BRANCH   2   5
ATOM      5  C   UNL     1       0.250  12.170  20.786  0.00  0.00    +0.000 A 
ATOM      6  C   UNL     1       1.515  12.782  20.884  0.00  0.00    +0.000 A 
ATOM      7  C   UNL     1       1.792  13.976  20.219  0.00  0.00    +0.000 A 
ATOM      8  C   UNL     1       0.810  14.557  19.427  0.00  0.00    +0.000 A 
ATOM      9 CL   UNL     1       1.130  16.042  18.625  0.00  0.00    +0.000 Cl
ATOM     10  C   UNL     1      -0.431  13.940  19.284  0.00  0.00    +0.000 A 
ATOM     11  C   UNL     1      -0.739  12.737  19.961  0.00  0.00    +0.000 A 
BRANCH  11  12
ATOM     12  C   UNL     1      -2.125  12.220  19.721  0.00  0.00    +0.000 C 
ATOM     13  O   UNL     1      -2.910  12.317  20.672  0.00  0.00    +0.000 OA
BRANCH  12  14
ATOM     14  C   UNL     1      -2.589  11.514  18.502  0.00  0.00    +0.000 A 
ATOM     15  C   UNL     1      -1.698  10.680  17.812  0.00  0.00    +0.000 A 
ATOM     16  C   UNL     1      -2.109   9.942  16.699  0.00  0.00    +0.000 A 
ATOM     17  C   UNL     1      -3.444   9.953  16.316  0.00  0.00    +0.000 A 
ATOM     18  C   UNL     1      -4.356  10.740  17.018  0.00  0.00    +0.000 A 
ATOM     19  C   UNL     1      -3.933  11.538  18.093  0.00  0.00    +0.000 A 
ATOM     20 CL   UNL     1      -5.146  12.532  18.822  0.00  0.00    +0.000 Cl
ENDBRANCH  12  14
ENDBRANCH  11  12
ENDBRANCH   2   5
BRANCH   3  21
ATOM     21  C   UNL     1       0.933   9.546  19.766  0.00  0.00    +0.000 C 
BRANCH  21  22
ATOM     22  N   UNL     1       1.849   8.433  19.881  0.00  0.00    +0.000 N 
ATOM     23  C   UNL     1       2.248   7.758  18.742  0.00  0.00    +0.000 C 
ATOM     24  O   UNL     1       1.889   8.102  17.619  0.00  0.00    +0.000 OA
ATOM     25  H   UNL     1       2.067   8.062  20.797  0.00  0.00    +0.000 HD
BRANCH  23  26
ATOM     26  C   UNL     1       3.148   6.570  18.993  0.00  0.00    +0.000 C 
BRANCH  26  27
ATOM     27  C   UNL     1       2.353   5.303  19.179  0.00  0.00    +0.000 A 
ATOM     28  C   UNL     1       2.041   4.493  18.077  0.00  0.00    +0.000 A 
ATOM     29  C   UNL     1       1.262   3.348  18.237  0.00  0.00    +0.000 A 
ATOM     30  C   UNL     1       0.795   2.995  19.501  0.00  0.00    +0.000 A 
ATOM     31  C   UNL     1       1.117   3.779  20.607  0.00  0.00    +0.000 A 
ATOM     32  C   UNL     1       1.895   4.928  20.449  0.00  0.00    +0.000 A 
ENDBRANCH  26  27
ENDBRANCH  23  26
ENDBRANCH  21  22
ENDBRANCH   3  21
TORSDOF 7
ENDMDL
MODEL 5
REMARK VINA RESULT:      -7.7      2.162      3.795
REMARK  Name = 
REMARK  8 active torsions:
REMARK  status: ('A' for Active; 'I' for Inactive)
REMARK    1  A    between atoms: C_1  and  N_2
REMARK    2  A    between atoms: N_2  and  C_16
REMARK    3  A    between atoms: C_3  and  C_5
REMARK    4  A    between atoms: C_5  and  N_6
REMARK    5  A    between atoms: C_7  and  C_9
REMARK    6  A    between atoms: C_9  and  C_10
REMARK    7  A    between atoms: C_22  and  C_23
REMARK    8  A    between atoms: C_23  and  C_25
REMARK                            x       y       z     vdW  Elec       q    Type
REMARK                         _______ _______ _______ _____ _____    ______ ____
ROOT
ATOM      1  C   UNL     1       5.504   3.573  19.554  0.00  0.00    +0.000 C 
ATOM      2  N   UNL     1       5.967   4.655  18.690  0.00  0.00    +0.000 N 
ATOM      3  C   UNL     1       6.983   5.494  19.182  0.00  0.00    +0.000 C 
ATOM      4  O   UNL     1       7.445   5.374  20.322  0.00  0.00    +0.000 OA
ENDROOT
BRANCH   2   5
ATOM      5  C   UNL     1       5.840   4.424  17.291  0.00  0.00    +0.000 A 
ATOM      6  C   UNL     1       7.024   4.459  16.528  0.00  0.00    +0.000 A 
ATOM      7  C   UNL     1       6.991   4.353  15.138  0.00  0.00    +0.000 A 
ATOM      8  C   UNL     1       5.769   4.186  14.499  0.00  0.00    +0.000 A 
ATOM      9 CL   UNL     1       5.713   4.083  12.785  0.00  0.00    +0.000 Cl
ATOM     10  C   UNL     1       4.594   4.104  15.242  0.00  0.00    +0.000 A 
ATOM     11  C   UNL     1       4.603   4.223  16.651  0.00  0.00    +0.000 A 
BRANCH  11  12
ATOM     12  C   UNL     1       3.252   4.139  17.296  0.00  0.00    +0.000 C 
ATOM     13  O   UNL     1       2.503   3.252  16.867  0.00  0.00    +0.000 OA
BRANCH  12  14
ATOM     14  C   UNL     1       2.712   5.082  18.303  0.00  0.00    +0.000 A 
ATOM     15  C   UNL     1       2.070   4.576  19.442  0.00  0.00    +0.000 A 
ATOM     16  C   UNL     1       1.606   5.424  20.451  0.00  0.00    +0.000 A 
ATOM     17  C   UNL     1       1.863   6.787  20.381  0.00  0.00    +0.000 A 
ATOM     18  C   UNL     1       2.541   7.306  19.279  0.00  0.00    +0.000 A 
ATOM     19  C   UNL     1       2.946   6.466  18.230  0.00  0.00    +0.000 A 
ATOM     20 CL   UNL     1       3.700   7.247  16.883  0.00  0.00    +0.000 Cl
ENDBRANCH  12  14
ENDBRANCH  11  12
ENDBRANCH   2   5
BRANCH   3  21
ATOM     21  C   UNL     1       7.488   6.607  18.246  0.00  0.00    +0.000 C 
BRANCH  21  22
ATOM     22  N   UNL     1       8.324   7.573  18.922  0.00  0.00    +0.000 N 
ATOM     23  C   UNL     1       8.488   8.833  18.376  0.00  0.00    +0.000 C 
ATOM     24  O   UNL     1       7.906   9.183  17.353  0.00  0.00    +0.000 OA
ATOM     25  H   UNL     1       8.901   7.274  19.698  0.00  0.00    +0.000 HD
BRANCH  23  26
ATOM     26  C   UNL     1       9.440   9.731  19.132  0.00  0.00    +0.000 C 
BRANCH  26  27
ATOM     27  C   UNL     1       9.619  11.057  18.437  0.00  0.00    +0.000 A 
ATOM     28  C   UNL     1      10.864  11.414  17.899  0.00  0.00    +0.000 A 
ATOM     29  C   UNL     1      11.048  12.660  17.301  0.00  0.00    +0.000 A 
ATOM     30  C   UNL     1       9.987  13.559  17.226  0.00  0.00    +0.000 A 
ATOM     31  C   UNL     1       8.738  13.207  17.736  0.00  0.00    +0.000 A 
ATOM     32  C   UNL     1       8.553  11.961  18.337  0.00  0.00    +0.000 A 
ENDBRANCH  26  27
ENDBRANCH  23  26
ENDBRANCH  21  22
ENDBRANCH   3  21
TORSDOF 7
ENDMDL
MODEL 6
REMARK VINA RESULT:      -7.6      1.170      1.285
REMARK  Name = 
REMARK  8 active torsions:
REMARK  status: ('A' for Active; 'I' for Inactive)
REMARK    1  A    between atoms: C_1  and  N_2
REMARK    2  A    between atoms: N_2  and  C_16
REMARK    3  A    between atoms: C_3  and  C_5
REMARK    4  A    between atoms: C_5  and  N_6
REMARK    5  A    between atoms: C_7  and  C_9
REMARK    6  A    between atoms: C_9  and  C_10
REMARK    7  A    between atoms: C_22  and  C_23
REMARK    8  A    between atoms: C_23  and  C_25
REMARK                            x       y       z     vdW  Elec       q    Type
REMARK                         _______ _______ _______ _____ _____    ______ ____
ROOT
ATOM      1  C   UNL     1       5.060   4.582  15.093  0.00  0.00    +0.000 C 
ATOM      2  N   UNL     1       5.424   5.335  16.288  0.00  0.00    +0.000 N 
ATOM      3  C   UNL     1       6.768   5.726  16.429  0.00  0.00    +0.000 C 
ATOM      4  O   UNL     1       7.638   5.407  15.612  0.00  0.00    +0.000 OA
ENDROOT
BRANCH   2   5
ATOM      5  C   UNL     1       4.384   6.118  16.864  0.00  0.00    +0.000 A 
ATOM      6  C   UNL     1       4.424   7.506  16.628  0.00  0.00    +0.000 A 
ATOM      7  C   UNL     1       3.515   8.370  17.238  0.00  0.00    +0.000 A 
ATOM      8  C   UNL     1       2.537   7.845  18.074  0.00  0.00    +0.000 A 
ATOM      9 CL   UNL     1       1.429   8.901  18.854  0.00  0.00    +0.000 Cl
ATOM     10  C   UNL     1       2.455   6.470  18.282  0.00  0.00    +0.000 A 
ATOM     11  C   UNL     1       3.376   5.578  17.686  0.00  0.00    +0.000 A 
BRANCH  11  12
ATOM     12  C   UNL     1       3.166   4.135  18.032  0.00  0.00    +0.000 C 
ATOM     13  O   UNL     1       3.333   3.329  17.109  0.00  0.00    +0.000 OA
BRANCH  12  14
ATOM     14  C   UNL     1       2.676   3.618  19.332  0.00  0.00    +0.000 A 
ATOM     15  C   UNL     1       1.317   3.746  19.652  0.00  0.00    +0.000 A 
ATOM     16  C   UNL     1       0.797   3.214  20.835  0.00  0.00    +0.000 A 
ATOM     17  C   UNL     1       1.610   2.459  21.670  0.00  0.00    +0.000 A 
ATOM     18  C   UNL     1       2.955   2.279  21.346  0.00  0.00    +0.000 A 
ATOM     19  C   UNL     1       3.497   2.873  20.195  0.00  0.00    +0.000 A 
ATOM     20 CL   UNL     1       5.195   2.644  19.954  0.00  0.00    +0.000 Cl
ENDBRANCH  12  14
ENDBRANCH  11  12
ENDBRANCH   2   5
BRANCH   3  21
ATOM     21  C   UNL     1       7.131   6.553  17.676  0.00  0.00    +0.000 C 
BRANCH  21  22
ATOM     22  N   UNL     1       7.392   7.942  17.372  0.00  0.00    +0.000 N 
ATOM     23  C   UNL     1       8.269   8.660  18.165  0.00  0.00    +0.000 C 
ATOM     24  O   UNL     1       8.879   8.144  19.098  0.00  0.00    +0.000 OA
ATOM     25  H   UNL     1       6.821   8.416  16.685  0.00  0.00    +0.000 HD
BRANCH  23  26
ATOM     26  C   UNL     1       8.408  10.118  17.795  0.00  0.00    +0.000 C 
BRANCH  26  27
ATOM     27  C   UNL     1       9.513  10.785  18.575  0.00  0.00    +0.000 A 
ATOM     28  C   UNL     1       9.365  11.025  19.949  0.00  0.00    +0.000 A 
ATOM     29  C   UNL     1      10.362  11.687  20.665  0.00  0.00    +0.000 A 
ATOM     30  C   UNL     1      11.521  12.107  20.016  0.00  0.00    +0.000 A 
ATOM     31  C   UNL     1      11.690  11.853  18.656  0.00  0.00    +0.000 A 
ATOM     32  C   UNL     1      10.692  11.192  17.938  0.00  0.00    +0.000 A 
ENDBRANCH  26  27
ENDBRANCH  23  26
ENDBRANCH  21  22
ENDBRANCH   3  21
TORSDOF 7
ENDMDL
MODEL 7
REMARK VINA RESULT:      -7.4      2.233      3.460
REMARK  Name = 
REMARK  8 active torsions:
REMARK  status: ('A' for Active; 'I' for Inactive)
REMARK    1  A    between atoms: C_1  and  N_2
REMARK    2  A    between atoms: N_2  and  C_16
REMARK    3  A    between atoms: C_3  and  C_5
REMARK    4  A    between atoms: C_5  and  N_6
REMARK    5  A    between atoms: C_7  and  C_9
REMARK    6  A    between atoms: C_9  and  C_10
REMARK    7  A    between atoms: C_22  and  C_23
REMARK    8  A    between atoms: C_23  and  C_25
REMARK                            x       y       z     vdW  Elec       q    Type
REMARK                         _______ _______ _______ _____ _____    ______ ____
ROOT
ATOM      1  C   UNL     1       5.959   3.916  19.762  0.00  0.00    +0.000 C 
ATOM      2  N   UNL     1       6.300   5.022  18.873  0.00  0.00    +0.000 N 
ATOM      3  C   UNL     1       7.352   5.871  19.261  0.00  0.00    +0.000 C 
ATOM      4  O   UNL     1       7.944   5.740  20.337  0.00  0.00    +0.000 OA
ENDROOT
BRANCH   2   5
ATOM      5  C   UNL     1       6.016   4.814  17.493  0.00  0.00    +0.000 A 
ATOM      6  C   UNL     1       7.018   4.192  16.722  0.00  0.00    +0.000 A 
ATOM      7  C   UNL     1       6.880   4.043  15.342  0.00  0.00    +0.000 A 
ATOM      8  C   UNL     1       5.721   4.496  14.723  0.00  0.00    +0.000 A 
ATOM      9 CL   UNL     1       5.551   4.344  13.021  0.00  0.00    +0.000 Cl
ATOM     10  C   UNL     1       4.702   5.072  15.478  0.00  0.00    +0.000 A 
ATOM     11  C   UNL     1       4.827   5.246  16.876  0.00  0.00    +0.000 A 
BRANCH  11  12
ATOM     12  C   UNL     1       3.653   5.906  17.534  0.00  0.00    +0.000 C 
ATOM     13  O   UNL     1       3.463   7.091  17.236  0.00  0.00    +0.000 OA
BRANCH  12  14
ATOM     14  C   UNL     1       2.788   5.300  18.574  0.00  0.00    +0.000 A 
ATOM     15  C   UNL     1       2.473   6.041  19.721  0.00  0.00    +0.000 A 
ATOM     16  C   UNL     1       1.607   5.538  20.695  0.00  0.00    +0.000 A 
ATOM     17  C   UNL     1       0.967   4.322  20.491  0.00  0.00    +0.000 A 
ATOM     18  C   UNL     1       1.232   3.589  19.334  0.00  0.00    +0.000 A 
ATOM     19  C   UNL     1       2.155   4.059  18.387  0.00  0.00    +0.000 A 
ATOM     20 CL   UNL     1       2.456   3.014  17.041  0.00  0.00    +0.000 Cl
ENDBRANCH  12  14
ENDBRANCH  11  12
ENDBRANCH   2   5
BRANCH   3  21
ATOM     21  C   UNL     1       7.726   7.011  18.295  0.00  0.00    +0.000 C 
BRANCH  21  22
ATOM     22  N   UNL     1       8.720   7.906  18.842  0.00  0.00    +0.000 N 
ATOM     23  C   UNL     1       8.676   9.251  18.522  0.00  0.00    +0.000 C 
ATOM     24  O   UNL     1       7.786   9.728  17.822  0.00  0.00    +0.000 OA
ATOM     25  H   UNL     1       9.523   7.523  19.324  0.00  0.00    +0.000 HD
BRANCH  23  26
ATOM     26  C   UNL     1       9.806  10.076  19.094  0.00  0.00    +0.000 C 
BRANCH  26  27
ATOM     27  C   UNL     1       9.292  11.173  19.991  0.00  0.00    +0.000 A 
ATOM     28  C   UNL     1       9.191  12.489  19.515  0.00  0.00    +0.000 A 
ATOM     29  C   UNL     1       8.765  13.517  20.356  0.00  0.00    +0.000 A 
ATOM     30  C   UNL     1       8.426  13.238  21.678  0.00  0.00    +0.000 A 
ATOM     31  C   UNL     1       8.500  11.930  22.156  0.00  0.00    +0.000 A 
ATOM     32  C   UNL     1       8.928  10.901  21.316  0.00  0.00    +0.000 A 
ENDBRANCH  26  27
ENDBRANCH  23  26
ENDBRANCH  21  22
ENDBRANCH   3  21
TORSDOF 7
ENDMDL
MODEL 8
REMARK VINA RESULT:      -7.4      6.256      9.972
REMARK  Name = 
REMARK  8 active torsions:
REMARK  status: ('A' for Active; 'I' for Inactive)
REMARK    1  A    between atoms: C_1  and  N_2
REMARK    2  A    between atoms: N_2  and  C_16
REMARK    3  A    between atoms: C_3  and  C_5
REMARK    4  A    between atoms: C_5  and  N_6
REMARK    5  A    between atoms: C_7  and  C_9
REMARK    6  A    between atoms: C_9  and  C_10
REMARK    7  A    between atoms: C_22  and  C_23
REMARK    8  A    between atoms: C_23  and  C_25
REMARK                            x       y       z     vdW  Elec       q    Type
REMARK                         _______ _______ _______ _____ _____    ______ ____
ROOT
ATOM      1  C   UNL     1      -0.792  11.281  22.689  0.00  0.00    +0.000 C 
ATOM      2  N   UNL     1       0.055  11.069  21.521  0.00  0.00    +0.000 N 
ATOM      3  C   UNL     1       0.115   9.769  20.985  0.00  0.00    +0.000 C 
ATOM      4  O   UNL     1      -0.475   8.814  21.501  0.00  0.00    +0.000 OA
ENDROOT
BRANCH   2   5
ATOM      5  C   UNL     1       0.240  12.202  20.678  0.00  0.00    +0.000 A 
ATOM      6  C   UNL     1       1.411  12.960  20.875  0.00  0.00    +0.000 A 
ATOM      7  C   UNL     1       1.628  14.147  20.176  0.00  0.00    +0.000 A 
ATOM      8  C   UNL     1       0.683  14.574  19.251  0.00  0.00    +0.000 A 
ATOM      9 CL   UNL     1       0.926  16.048  18.405  0.00  0.00    +0.000 Cl
ATOM     10  C   UNL     1      -0.459  13.812  19.013  0.00  0.00    +0.000 A 
ATOM     11  C   UNL     1      -0.707  12.613  19.721  0.00  0.00    +0.000 A 
BRANCH  11  12
ATOM     12  C   UNL     1      -1.992  11.929  19.365  0.00  0.00    +0.000 C 
ATOM     13  O   UNL     1      -1.906  11.022  18.528  0.00  0.00    +0.000 OA
BRANCH  12  14
ATOM     14  C   UNL     1      -3.341  12.317  19.838  0.00  0.00    +0.000 A 
ATOM     15  C   UNL     1      -3.481  12.910  21.101  0.00  0.00    +0.000 A 
ATOM     16  C   UNL     1      -4.723  13.353  21.561  0.00  0.00    +0.000 A 
ATOM     17  C   UNL     1      -5.831  13.298  20.725  0.00  0.00    +0.000 A 
ATOM     18  C   UNL     1      -5.704  12.754  19.447  0.00  0.00    +0.000 A 
ATOM     19  C   UNL     1      -4.473  12.242  19.008  0.00  0.00    +0.000 A 
ATOM     20 CL   UNL     1      -4.471  11.518  17.437  0.00  0.00    +0.000 Cl
ENDBRANCH  12  14
ENDBRANCH  11  12
ENDBRANCH   2   5
BRANCH   3  21
ATOM     21  C   UNL     1       0.982   9.567  19.729  0.00  0.00    +0.000 C 
BRANCH  21  22
ATOM     22  N   UNL     1       1.867   8.429  19.834  0.00  0.00    +0.000 N 
ATOM     23  C   UNL     1       2.284   7.781  18.685  0.00  0.00    +0.000 C 
ATOM     24  O   UNL     1       1.966   8.169  17.564  0.00  0.00    +0.000 OA
ATOM     25  H   UNL     1       2.049   8.023  20.744  0.00  0.00    +0.000 HD
BRANCH  23  26
ATOM     26  C   UNL     1       3.148   6.564  18.923  0.00  0.00    +0.000 C 
BRANCH  26  27
ATOM     27  C   UNL     1       2.314   5.326  19.132  0.00  0.00    +0.000 A 
ATOM     28  C   UNL     1       1.865   4.982  20.416  0.00  0.00    +0.000 A 
ATOM     29  C   UNL     1       1.137   3.811  20.623  0.00  0.00    +0.000 A 
ATOM     30  C   UNL     1       0.842   2.976  19.547  0.00  0.00    +0.000 A 
ATOM     31  C   UNL     1       1.263   3.318  18.263  0.00  0.00    +0.000 A 
ATOM     32  C   UNL     1       1.994   4.489  18.055  0.00  0.00    +0.000 A 
ENDBRANCH  26  27
ENDBRANCH  23  26
ENDBRANCH  21  22
ENDBRANCH   3  21
TORSDOF 7
ENDMDL
MODEL 9
REMARK VINA RESULT:      -7.2      6.281      9.809
REMARK  Name = 
REMARK  8 active torsions:
REMARK  status: ('A' for Active; 'I' for Inactive)
REMARK    1  A    between atoms: C_1  and  N_2
REMARK    2  A    between atoms: N_2  and  C_16
REMARK    3  A    between atoms: C_3  and  C_5
REMARK    4  A    between atoms: C_5  and  N_6
REMARK    5  A    between atoms: C_7  and  C_9
REMARK    6  A    between atoms: C_9  and  C_10
REMARK    7  A    between atoms: C_22  and  C_23
REMARK    8  A    between atoms: C_23  and  C_25
REMARK                            x       y       z     vdW  Elec       q    Type
REMARK                         _______ _______ _______ _____ _____    ______ ____
ROOT
ATOM      1  C   UNL     1       1.227  12.478  19.337  0.00  0.00    +0.000 C 
ATOM      2  N   UNL     1       0.498  11.233  19.549  0.00  0.00    +0.000 N 
ATOM      3  C   UNL     1       0.648  10.590  20.791  0.00  0.00    +0.000 C 
ATOM      4  O   UNL     1       1.408  11.016  21.667  0.00  0.00    +0.000 OA
ENDROOT
BRANCH   2   5
ATOM      5  C   UNL     1      -0.712  11.093  18.810  0.00  0.00    +0.000 A 
ATOM      6  C   UNL     1      -0.715  10.152  17.762  0.00  0.00    +0.000 A 
ATOM      7  C   UNL     1      -1.814  10.020  16.913  0.00  0.00    +0.000 A 
ATOM      8  C   UNL     1      -2.933  10.816  17.122  0.00  0.00    +0.000 A 
ATOM      9 CL   UNL     1      -4.281  10.683  16.066  0.00  0.00    +0.000 Cl
ATOM     10  C   UNL     1      -2.963  11.720  18.182  0.00  0.00    +0.000 A 
ATOM     11  C   UNL     1      -1.855  11.880  19.046  0.00  0.00    +0.000 A 
BRANCH  11  12
ATOM     12  C   UNL     1      -2.040  12.911  20.118  0.00  0.00    +0.000 C 
ATOM     13  O   UNL     1      -1.431  13.976  19.953  0.00  0.00    +0.000 OA
BRANCH  12  14
ATOM     14  C   UNL     1      -2.784  12.721  21.386  0.00  0.00    +0.000 A 
ATOM     15  C   UNL     1      -2.122  12.177  22.495  0.00  0.00    +0.000 A 
ATOM     16  C   UNL     1      -2.763  12.042  23.729  0.00  0.00    +0.000 A 
ATOM     17  C   UNL     1      -4.049  12.539  23.898  0.00  0.00    +0.000 A 
ATOM     18  C   UNL     1      -4.709  13.126  22.819  0.00  0.00    +0.000 A 
ATOM     19  C   UNL     1      -4.094  13.199  21.560  0.00  0.00    +0.000 A 
ATOM     20 CL   UNL     1      -5.053  13.872  20.287  0.00  0.00    +0.000 Cl
ENDBRANCH  12  14
ENDBRANCH  11  12
ENDBRANCH   2   5
BRANCH   3  21
ATOM     21  C   UNL     1      -0.157   9.297  21.015  0.00  0.00    +0.000 C 
BRANCH  21  22
ATOM     22  N   UNL     1       0.680   8.157  21.311  0.00  0.00    +0.000 N 
ATOM     23  C   UNL     1       1.550   7.681  20.347  0.00  0.00    +0.000 C 
ATOM     24  O   UNL     1       1.674   8.224  19.253  0.00  0.00    +0.000 OA
ATOM     25  H   UNL     1       0.516   7.626  22.157  0.00  0.00    +0.000 HD
BRANCH  23  26
ATOM     26  C   UNL     1       2.321   6.444  20.746  0.00  0.00    +0.000 C 
BRANCH  26  27
ATOM     27  C   UNL     1       2.352   5.428  19.632  0.00  0.00    +0.000 A 
ATOM     28  C   UNL     1       3.361   5.475  18.658  0.00  0.00    +0.000 A 
ATOM     29  C   UNL     1       3.365   4.570  17.597  0.00  0.00    +0.000 A 
ATOM     30  C   UNL     1       2.366   3.603  17.504  0.00  0.00    +0.000 A 
ATOM     31  C   UNL     1       1.371   3.532  18.478  0.00  0.00    +0.000 A 
ATOM     32  C   UNL     1       1.365   4.439  19.540  0.00  0.00    +0.000 A 
ENDBRANCH  26  27
ENDBRANCH  23  26
ENDBRANCH  21  22
ENDBRANCH   3  21
TORSDOF 7
ENDMDL
