MODEL 1
REMARK VINA RESULT:      -7.8      0.000      0.000
REMARK  Name = 
REMARK  7 active torsions:
REMARK  status: ('A' for Active; 'I' for Inactive)
REMARK    1  A    between atoms: C_1  and  C_2
REMARK    2  A    between atoms: C_6  and  C_8
REMARK    3  A    between atoms: C_8  and  N_9
REMARK    4  A    between atoms: N_9  and  C_10
REMARK    5  A    between atoms: N_9  and  C_11
REMARK    6  A    between atoms: C_11  and  C_12
REMARK    7  A    between atoms: N_14  and  C_15
REMARK                            x       y       z     vdW  Elec       q    Type
REMARK                         _______ _______ _______ _____ _____    ______ ____
ROOT
ATOM      1  N   UNL     1       3.150   3.285  19.317  0.00  0.00    +0.000 NA
ATOM      2  C   UNL     1       2.226   2.138  19.249  0.00  0.00    +0.000 C 
ENDROOT
BRANCH   1   3
ATOM      3  C   UNL     1       4.565   2.834  19.315  0.00  0.00    +0.000 C 
BRANCH   3   9
ATOM      4  C   UNL     1       7.584   5.125  12.939  0.00  0.00    +0.000 C 
ATOM      5  C   UNL     1       7.085   4.827  14.292  0.00  0.00    +0.000 A 
ATOM      6  C   UNL     1       6.133   3.986  14.818  0.00  0.00    +0.000 A 
ATOM      7  C   UNL     1       6.180   4.223  16.216  0.00  0.00    +0.000 A 
ATOM      8  N   UNL     1       5.392   3.573  17.143  0.00  0.00    +0.000 N 
ATOM      9  C   UNL     1       5.489   3.753  18.508  0.00  0.00    +0.000 C 
ATOM     10  O   UNL     1       6.176   4.585  19.094  0.00  0.00    +0.000 OA
ATOM     11  N   UNL     1       7.101   5.149  16.499  0.00  0.00    +0.000 NA
ATOM     12  O   UNL     1       7.667   5.521  15.301  0.00  0.00    +0.000 OA
ATOM     13  H   UNL     1       4.769   2.841  16.823  0.00  0.00    +0.000 HD
ENDBRANCH   3   9
ENDBRANCH   1   3
BRANCH   1  14
ATOM     14  C   UNL     1       2.870   4.104  20.532  0.00  0.00    +0.000 C 
BRANCH  14  15
ATOM     15  C   UNL     1       1.960   5.316  20.279  0.00  0.00    +0.000 C 
ATOM     16  O   UNL     1       0.748   5.233  20.481  0.00  0.00    +0.000 OA
ATOM     17  N   UNL     1       2.625   6.452  19.827  0.00  0.00    +0.000 N 
ATOM     18  H   UNL     1       3.579   6.338  19.509  0.00  0.00    +0.000 HD
BRANCH  17  19
ATOM     19  C   UNL     1       2.034   7.717  19.605  0.00  0.00    +0.000 A 
ATOM     20  C   UNL     1       1.428   8.464  20.621  0.00  0.00    +0.000 A 
ATOM     21  C   UNL     1       0.792   9.677  20.338  0.00  0.00    +0.000 A 
ATOM     22  C   UNL     1       0.768  10.158  19.035  0.00  0.00    +0.000 A 
ATOM     23 CL   UNL     1      -0.065  11.619  18.678  0.00  0.00    +0.000 Cl
ATOM     24  C   UNL     1       1.412   9.454  18.020  0.00  0.00    +0.000 A 
ATOM     25  C   UNL     1       2.056   8.243  18.306  0.00  0.00    +0.000 A 
ENDBRANCH  17  19
ENDBRANCH  14  15
ENDBRANCH   1  14
TORSDOF 5
ENDMDL
MODEL 2
REMARK VINA RESULT:      -7.7      0.777      1.259
REMARK  Name = 
REMARK  7 active torsions:
REMARK  status: ('A' for Active; 'I' for Inactive)
REMARK    1  A    between atoms: C_1  and  C_2
REMARK    2  A    between atoms: C_6  and  C_8
REMARK    3  A    between atoms: C_8  and  N_9
REMARK    4  A    between atoms: N_9  and  C_10
REMARK    5  A    between atoms: N_9  and  C_11
REMARK    6  A    between atoms: C_11  and  C_12
REMARK    7  A    between atoms: N_14  and  C_15
REMARK                            x       y       z     vdW  Elec       q    Type
REMARK                         _______ _______ _______ _____ _____    ______ ____
ROOT
ATOM      1  N   UNL     1       3.142   3.484  19.375  0.00  0.00    +0.000 NA
ATOM      2  C   UNL     1       2.239   2.386  19.765  0.00  0.00    +0.000 C 
ENDROOT
BRANCH   1   3
ATOM      3  C   UNL     1       4.565   3.066  19.463  0.00  0.00    +0.000 C 
BRANCH   3   9
ATOM      4  C   UNL     1       7.479   5.014  12.927  0.00  0.00    +0.000 C 
ATOM      5  C   UNL     1       7.009   4.782  14.304  0.00  0.00    +0.000 A 
ATOM      6  C   UNL     1       6.042   3.999  14.886  0.00  0.00    +0.000 A 
ATOM      7  C   UNL     1       6.139   4.282  16.272  0.00  0.00    +0.000 A 
ATOM      8  N   UNL     1       5.354   3.696  17.244  0.00  0.00    +0.000 N 
ATOM      9  C   UNL     1       5.499   3.919  18.598  0.00  0.00    +0.000 C 
ATOM     10  O   UNL     1       6.234   4.744  19.135  0.00  0.00    +0.000 OA
ATOM     11  N   UNL     1       7.103   5.180  16.496  0.00  0.00    +0.000 NA
ATOM     12  O   UNL     1       7.647   5.488  15.270  0.00  0.00    +0.000 OA
ATOM     13  H   UNL     1       4.695   2.978  16.968  0.00  0.00    +0.000 HD
ENDBRANCH   3   9
ENDBRANCH   1   3
BRANCH   1  14
ATOM     14  C   UNL     1       2.901   4.682  20.230  0.00  0.00    +0.000 C 
BRANCH  14  15
ATOM     15  C   UNL     1       2.400   5.915  19.461  0.00  0.00    +0.000 C 
ATOM     16  O   UNL     1       2.191   5.846  18.250  0.00  0.00    +0.000 OA
ATOM     17  N   UNL     1       2.217   7.048  20.247  0.00  0.00    +0.000 N 
ATOM     18  H   UNL     1       2.611   7.039  21.179  0.00  0.00    +0.000 HD
BRANCH  17  19
ATOM     19  C   UNL     1       1.683   8.280  19.803  0.00  0.00    +0.000 A 
ATOM     20  C   UNL     1       1.971   8.828  18.548  0.00  0.00    +0.000 A 
ATOM     21  C   UNL     1       1.479  10.085  18.183  0.00  0.00    +0.000 A 
ATOM     22  C   UNL     1       0.682  10.799  19.069  0.00  0.00    +0.000 A 
ATOM     23 CL   UNL     1       0.125  12.369  18.643  0.00  0.00    +0.000 Cl
ATOM     24  C   UNL     1       0.340  10.246  20.301  0.00  0.00    +0.000 A 
ATOM     25  C   UNL     1       0.828   8.983  20.662  0.00  0.00    +0.000 A 
ENDBRANCH  17  19
ENDBRANCH  14  15
ENDBRANCH   1  14
TORSDOF 5
ENDMDL
MODEL 3
REMARK VINA RESULT:      -7.3      1.020      1.080
REMARK  Name = 
REMARK  7 active torsions:
REMARK  status: ('A' for Active; 'I' for Inactive)
REMARK    1  A    between atoms: C_1  and  C_2
REMARK    2  A    between atoms: C_6  and  C_8
REMARK    3  A    between atoms: C_8  and  N_9
REMARK    4  A    between atoms: N_9  and  C_10
REMARK    5  A    between atoms: N_9  and  C_11
REMARK    6  A    between atoms: C_11  and  C_12
REMARK    7  A    between atoms: N_14  and  C_15
REMARK                            x       y       z     vdW  Elec       q    Type
REMARK                         _______ _______ _______ _____ _____    ______ ____
ROOT
ATOM      1  N   UNL     1       2.846   3.700  19.055  0.00  0.00    +0.000 NA
ATOM      2  C   UNL     1       1.722   2.746  19.086  0.00  0.00    +0.000 C 
ENDROOT
BRANCH   1   3
ATOM      3  C   UNL     1       4.150   2.991  19.002  0.00  0.00    +0.000 C 
BRANCH   3   9
ATOM      4  C   UNL     1       7.616   5.079  12.787  0.00  0.00    +0.000 C 
ATOM      5  C   UNL     1       7.053   4.795  14.117  0.00  0.00    +0.000 A 
ATOM      6  C   UNL     1       5.960   4.108  14.589  0.00  0.00    +0.000 A 
ATOM      7  C   UNL     1       6.028   4.250  15.998  0.00  0.00    +0.000 A 
ATOM      8  N   UNL     1       5.124   3.697  16.881  0.00  0.00    +0.000 N 
ATOM      9  C   UNL     1       5.234   3.775  18.255  0.00  0.00    +0.000 C 
ATOM     10  O   UNL     1       6.050   4.435  18.893  0.00  0.00    +0.000 OA
ATOM     11  N   UNL     1       7.096   4.977  16.339  0.00  0.00    +0.000 NA
ATOM     12  O   UNL     1       7.736   5.313  15.169  0.00  0.00    +0.000 OA
ATOM     13  H   UNL     1       4.386   3.108  16.516  0.00  0.00    +0.000 HD
ENDBRANCH   3   9
ENDBRANCH   1   3
BRANCH   1  14
ATOM     14  C   UNL     1       2.794   4.601  20.242  0.00  0.00    +0.000 C 
BRANCH  14  15
ATOM     15  C   UNL     1       2.691   6.095  19.895  0.00  0.00    +0.000 C 
ATOM     16  O   UNL     1       3.347   6.561  18.964  0.00  0.00    +0.000 OA
ATOM     17  N   UNL     1       1.817   6.814  20.705  0.00  0.00    +0.000 N 
ATOM     18  H   UNL     1       1.494   6.368  21.554  0.00  0.00    +0.000 HD
BRANCH  17  19
ATOM     19  C   UNL     1       1.476   8.177  20.541  0.00  0.00    +0.000 A 
ATOM     20  C   UNL     1       1.153   9.016  21.612  0.00  0.00    +0.000 A 
ATOM     21  C   UNL     1       0.750  10.338  21.392  0.00  0.00    +0.000 A 
ATOM     22  C   UNL     1       0.680  10.832  20.096  0.00  0.00    +0.000 A 
ATOM     23 CL   UNL     1       0.128  12.438  19.823  0.00  0.00    +0.000 Cl
ATOM     24  C   UNL     1       1.049  10.027  19.020  0.00  0.00    +0.000 A 
ATOM     25  C   UNL     1       1.460   8.706  19.243  0.00  0.00    +0.000 A 
ENDBRANCH  17  19
ENDBRANCH  14  15
ENDBRANCH   1  14
TORSDOF 5
ENDMDL
MODEL 4
REMARK VINA RESULT:      -7.2      1.276      1.679
REMARK  Name = 
REMARK  7 active torsions:
REMARK  status: ('A' for Active; 'I' for Inactive)
REMARK    1  A    between atoms: C_1  and  C_2
REMARK    2  A    between atoms: C_6  and  C_8
REMARK    3  A    between atoms: C_8  and  N_9
REMARK    4  A    between atoms: N_9  and  C_10
REMARK    5  A    between atoms: N_9  and  C_11
REMARK    6  A    between atoms: C_11  and  C_12
REMARK    7  A    between atoms: N_14  and  C_15
REMARK                            x       y       z     vdW  Elec       q    Type
REMARK                         _______ _______ _______ _____ _____    ______ ____
ROOT
ATOM      1  N   UNL     1       3.860   3.974  18.978  0.00  0.00    +0.000 NA
ATOM      2  C   UNL     1       3.313   2.606  18.924  0.00  0.00    +0.000 C 
ENDROOT
BRANCH   1   3
ATOM      3  C   UNL     1       5.333   3.956  19.167  0.00  0.00    +0.000 C 
BRANCH   3   9
ATOM      4  C   UNL     1       7.334   4.470  12.044  0.00  0.00    +0.000 C 
ATOM      5  C   UNL     1       7.042   4.542  13.486  0.00  0.00    +0.000 A 
ATOM      6  C   UNL     1       6.208   3.871  14.347  0.00  0.00    +0.000 A 
ATOM      7  C   UNL     1       6.440   4.472  15.611  0.00  0.00    +0.000 A 
ATOM      8  N   UNL     1       5.816   4.091  16.781  0.00  0.00    +0.000 N 
ATOM      9  C   UNL     1       6.096   4.628  18.021  0.00  0.00    +0.000 C 
ATOM     10  O   UNL     1       6.824   5.588  18.261  0.00  0.00    +0.000 OA
ATOM     11  N   UNL     1       7.353   5.441  15.502  0.00  0.00    +0.000 NA
ATOM     12  O   UNL     1       7.730   5.482  14.180  0.00  0.00    +0.000 OA
ATOM     13  H   UNL     1       5.185   3.298  16.759  0.00  0.00    +0.000 HD
ENDBRANCH   3   9
ENDBRANCH   1   3
BRANCH   1  14
ATOM     14  C   UNL     1       3.207   4.751  20.071  0.00  0.00    +0.000 C 
BRANCH  14  15
ATOM     15  C   UNL     1       2.904   6.214  19.711  0.00  0.00    +0.000 C 
ATOM     16  O   UNL     1       3.416   6.725  18.716  0.00  0.00    +0.000 OA
ATOM     17  N   UNL     1       2.032   6.853  20.587  0.00  0.00    +0.000 N 
ATOM     18  H   UNL     1       1.840   6.397  21.470  0.00  0.00    +0.000 HD
BRANCH  17  19
ATOM     19  C   UNL     1       1.526   8.165  20.433  0.00  0.00    +0.000 A 
ATOM     20  C   UNL     1       1.365   8.777  19.185  0.00  0.00    +0.000 A 
ATOM     21  C   UNL     1       0.931  10.104  19.088  0.00  0.00    +0.000 A 
ATOM     22  C   UNL     1       0.643  10.823  20.241  0.00  0.00    +0.000 A 
ATOM     23 CL   UNL     1       0.167  12.471  20.123  0.00  0.00    +0.000 Cl
ATOM     24  C   UNL     1       0.747  10.212  21.489  0.00  0.00    +0.000 A 
ATOM     25  C   UNL     1       1.175   8.881  21.584  0.00  0.00    +0.000 A 
ENDBRANCH  17  19
ENDBRANCH  14  15
ENDBRANCH   1  14
TORSDOF 5
ENDMDL
MODEL 5
REMARK VINA RESULT:      -7.2      1.290      1.469
REMARK  Name = 
REMARK  7 active torsions:
REMARK  status: ('A' for Active; 'I' for Inactive)
REMARK    1  A    between atoms: C_1  and  C_2
REMARK    2  A    between atoms: C_6  and  C_8
REMARK    3  A    between atoms: C_8  and  N_9
REMARK    4  A    between atoms: N_9  and  C_10
REMARK    5  A    between atoms: N_9  and  C_11
REMARK    6  A    between atoms: C_11  and  C_12
REMARK    7  A    between atoms: N_14  and  C_15
REMARK                            x       y       z     vdW  Elec       q    Type
REMARK                         _______ _______ _______ _____ _____    ______ ____
ROOT
ATOM      1  N   UNL     1       4.521   4.477  19.007  0.00  0.00    +0.000 NA
ATOM      2  C   UNL     1       4.596   3.005  18.980  0.00  0.00    +0.000 C 
ENDROOT
BRANCH   1   3
ATOM      3  C   UNL     1       5.868   5.079  19.181  0.00  0.00    +0.000 C 
BRANCH   3   9
ATOM      4  C   UNL     1       7.033   4.049  11.929  0.00  0.00    +0.000 C 
ATOM      5  C   UNL     1       6.923   4.417  13.351  0.00  0.00    +0.000 A 
ATOM      6  C   UNL     1       6.145   4.010  14.408  0.00  0.00    +0.000 A 
ATOM      7  C   UNL     1       6.578   4.806  15.498  0.00  0.00    +0.000 A 
ATOM      8  N   UNL     1       6.070   4.717  16.778  0.00  0.00    +0.000 N 
ATOM      9  C   UNL     1       6.542   5.442  17.853  0.00  0.00    +0.000 C 
ATOM     10  O   UNL     1       7.373   6.347  17.825  0.00  0.00    +0.000 OA
ATOM     11  N   UNL     1       7.551   5.635  15.110  0.00  0.00    +0.000 NA
ATOM     12  O   UNL     1       7.768   5.390  13.774  0.00  0.00    +0.000 OA
ATOM     13  H   UNL     1       5.376   4.006  16.976  0.00  0.00    +0.000 HD
ENDBRANCH   3   9
ENDBRANCH   1   3
BRANCH   1  14
ATOM     14  C   UNL     1       3.608   4.930  20.096  0.00  0.00    +0.000 C 
BRANCH  14  15
ATOM     15  C   UNL     1       2.489   5.874  19.628  0.00  0.00    +0.000 C 
ATOM     16  O   UNL     1       1.533   5.432  18.989  0.00  0.00    +0.000 OA
ATOM     17  N   UNL     1       2.668   7.205  19.992  0.00  0.00    +0.000 N 
ATOM     18  H   UNL     1       3.581   7.476  20.335  0.00  0.00    +0.000 HD
BRANCH  17  19
ATOM     19  C   UNL     1       1.746   8.252  19.763  0.00  0.00    +0.000 A 
ATOM     20  C   UNL     1       0.834   8.690  20.729  0.00  0.00    +0.000 A 
ATOM     21  C   UNL     1      -0.109   9.679  20.431  0.00  0.00    +0.000 A 
ATOM     22  C   UNL     1      -0.138  10.246  19.162  0.00  0.00    +0.000 A 
ATOM     23 CL   UNL     1      -1.335  11.418  18.778  0.00  0.00    +0.000 Cl
ATOM     24  C   UNL     1       0.796   9.860  18.204  0.00  0.00    +0.000 A 
ATOM     25  C   UNL     1       1.746   8.874  18.507  0.00  0.00    +0.000 A 
ENDBRANCH  17  19
ENDBRANCH  14  15
ENDBRANCH   1  14
TORSDOF 5
ENDMDL
MODEL 6
REMARK VINA RESULT:      -7.2      2.368      2.660
REMARK  Name = 
REMARK  7 active torsions:
REMARK  status: ('A' for Active; 'I' for Inactive)
REMARK    1  A    between atoms: C_1  and  C_2
REMARK    2  A    between atoms: C_6  and  C_8
REMARK    3  A    between atoms: C_8  and  N_9
REMARK    4  A    between atoms: N_9  and  C_10
REMARK    5  A    between atoms: N_9  and  C_11
REMARK    6  A    between atoms: C_11  and  C_12
REMARK    7  A    between atoms: N_14  and  C_15
REMARK                            x       y       z     vdW  Elec       q    Type
REMARK                         _______ _______ _______ _____ _____    ______ ____
ROOT
ATOM      1  N   UNL     1       3.625   2.951  17.907  0.00  0.00    +0.000 NA
ATOM      2  C   UNL     1       3.343   1.587  18.389  0.00  0.00    +0.000 C 
ENDROOT
BRANCH   1   3
ATOM      3  C   UNL     1       4.978   3.037  17.300  0.00  0.00    +0.000 C 
BRANCH   3   9
ATOM      4  C   UNL     1       8.842   9.264  18.442  0.00  0.00    +0.000 C 
ATOM      5  C   UNL     1       8.008   8.118  18.044  0.00  0.00    +0.000 A 
ATOM      6  C   UNL     1       7.857   6.822  18.478  0.00  0.00    +0.000 A 
ATOM      7  C   UNL     1       6.870   6.271  17.622  0.00  0.00    +0.000 A 
ATOM      8  N   UNL     1       6.394   4.979  17.713  0.00  0.00    +0.000 N 
ATOM      9  C   UNL     1       5.382   4.467  16.926  0.00  0.00    +0.000 C 
ATOM     10  O   UNL     1       4.848   5.013  15.964  0.00  0.00    +0.000 OA
ATOM     11  N   UNL     1       6.463   7.183  16.734  0.00  0.00    +0.000 NA
ATOM     12  O   UNL     1       7.169   8.334  17.000  0.00  0.00    +0.000 OA
ATOM     13  H   UNL     1       6.727   4.391  18.467  0.00  0.00    +0.000 HD
ENDBRANCH   3   9
ENDBRANCH   1   3
BRANCH   1  14
ATOM     14  C   UNL     1       3.496   3.932  19.023  0.00  0.00    +0.000 C 
BRANCH  14  15
ATOM     15  C   UNL     1       2.605   5.142  18.699  0.00  0.00    +0.000 C 
ATOM     16  O   UNL     1       1.651   5.020  17.930  0.00  0.00    +0.000 OA
ATOM     17  N   UNL     1       2.977   6.319  19.341  0.00  0.00    +0.000 N 
ATOM     18  H   UNL     1       3.887   6.342  19.783  0.00  0.00    +0.000 HD
BRANCH  17  19
ATOM     19  C   UNL     1       2.274   7.545  19.283  0.00  0.00    +0.000 A 
ATOM     20  C   UNL     1       1.574   8.075  20.372  0.00  0.00    +0.000 A 
ATOM     21  C   UNL     1       0.832   9.254  20.243  0.00  0.00    +0.000 A 
ATOM     22  C   UNL     1       0.796   9.919  19.023  0.00  0.00    +0.000 A 
ATOM     23 CL   UNL     1      -0.162  11.335  18.850  0.00  0.00    +0.000 Cl
ATOM     24  C   UNL     1       1.530   9.434  17.943  0.00  0.00    +0.000 A 
ATOM     25  C   UNL     1       2.279   8.257  18.076  0.00  0.00    +0.000 A 
ENDBRANCH  17  19
ENDBRANCH  14  15
ENDBRANCH   1  14
TORSDOF 5
ENDMDL
MODEL 7
REMARK VINA RESULT:      -6.9      1.208      1.653
REMARK  Name = 
REMARK  7 active torsions:
REMARK  status: ('A' for Active; 'I' for Inactive)
REMARK    1  A    between atoms: C_1  and  C_2
REMARK    2  A    between atoms: C_6  and  C_8
REMARK    3  A    between atoms: C_8  and  N_9
REMARK    4  A    between atoms: N_9  and  C_10
REMARK    5  A    between atoms: N_9  and  C_11
REMARK    6  A    between atoms: C_11  and  C_12
REMARK    7  A    between atoms: N_14  and  C_15
REMARK                            x       y       z     vdW  Elec       q    Type
REMARK                         _______ _______ _______ _____ _____    ______ ____
ROOT
ATOM      1  N   UNL     1       4.407   3.323  18.863  0.00  0.00    +0.000 NA
ATOM      2  C   UNL     1       4.172   2.528  20.082  0.00  0.00    +0.000 C 
ENDROOT
BRANCH   1   3
ATOM      3  C   UNL     1       5.161   4.566  19.169  0.00  0.00    +0.000 C 
BRANCH   3   9
ATOM      4  C   UNL     1       7.278   4.371  12.064  0.00  0.00    +0.000 C 
ATOM      5  C   UNL     1       6.987   4.567  13.494  0.00  0.00    +0.000 A 
ATOM      6  C   UNL     1       6.054   4.078  14.377  0.00  0.00    +0.000 A 
ATOM      7  C   UNL     1       6.364   4.708  15.609  0.00  0.00    +0.000 A 
ATOM      8  N   UNL     1       5.680   4.491  16.787  0.00  0.00    +0.000 N 
ATOM      9  C   UNL     1       6.027   5.049  18.001  0.00  0.00    +0.000 C 
ATOM     10  O   UNL     1       6.889   5.901  18.201  0.00  0.00    +0.000 OA
ATOM     11  N   UNL     1       7.414   5.521  15.464  0.00  0.00    +0.000 NA
ATOM     12  O   UNL     1       7.804   5.430  14.148  0.00  0.00    +0.000 OA
ATOM     13  H   UNL     1       4.937   3.803  16.798  0.00  0.00    +0.000 HD
ENDBRANCH   3   9
ENDBRANCH   1   3
BRANCH   1  14
ATOM     14  C   UNL     1       3.112   3.654  18.202  0.00  0.00    +0.000 C 
BRANCH  14  15
ATOM     15  C   UNL     1       2.355   4.825  18.847  0.00  0.00    +0.000 C 
ATOM     16  O   UNL     1       1.598   4.625  19.797  0.00  0.00    +0.000 OA
ATOM     17  N   UNL     1       2.613   6.065  18.270  0.00  0.00    +0.000 N 
ATOM     18  H   UNL     1       3.090   6.074  17.377  0.00  0.00    +0.000 HD
BRANCH  17  19
ATOM     19  C   UNL     1       2.116   7.306  18.731  0.00  0.00    +0.000 A 
ATOM     20  C   UNL     1       1.865   8.389  17.881  0.00  0.00    +0.000 A 
ATOM     21  C   UNL     1       1.444   9.621  18.394  0.00  0.00    +0.000 A 
ATOM     22  C   UNL     1       1.259   9.773  19.763  0.00  0.00    +0.000 A 
ATOM     23 CL   UNL     1       0.798  11.303  20.398  0.00  0.00    +0.000 Cl
ATOM     24  C   UNL     1       1.452   8.690  20.618  0.00  0.00    +0.000 A 
ATOM     25  C   UNL     1       1.867   7.455  20.102  0.00  0.00    +0.000 A 
ENDBRANCH  17  19
ENDBRANCH  14  15
ENDBRANCH   1  14
TORSDOF 5
ENDMDL
MODEL 8
REMARK VINA RESULT:      -6.9      1.695      2.012
REMARK  Name = 
REMARK  7 active torsions:
REMARK  status: ('A' for Active; 'I' for Inactive)
REMARK    1  A    between atoms: C_1  and  C_2
REMARK    2  A    between atoms: C_6  and  C_8
REMARK    3  A    between atoms: C_8  and  N_9
REMARK    4  A    between atoms: N_9  and  C_10
REMARK    5  A    between atoms: N_9  and  C_11
REMARK    6  A    between atoms: C_11  and  C_12
REMARK    7  A    between atoms: N_14  and  C_15
REMARK                            x       y       z     vdW  Elec       q    Type
REMARK                         _______ _______ _______ _____ _____    ______ ____
ROOT
ATOM      1  N   UNL     1       3.380   5.091  18.874  0.00  0.00    +0.000 NA
ATOM      2  C   UNL     1       2.435   4.059  18.410  0.00  0.00    +0.000 C 
ENDROOT
BRANCH   1   3
ATOM      3  C   UNL     1       4.748   4.534  19.035  0.00  0.00    +0.000 C 
BRANCH   3   9
ATOM      4  C   UNL     1       7.346   4.495  12.088  0.00  0.00    +0.000 C 
ATOM      5  C   UNL     1       6.968   4.650  13.503  0.00  0.00    +0.000 A 
ATOM      6  C   UNL     1       5.946   4.188  14.297  0.00  0.00    +0.000 A 
ATOM      7  C   UNL     1       6.206   4.744  15.575  0.00  0.00    +0.000 A 
ATOM      8  N   UNL     1       5.428   4.524  16.693  0.00  0.00    +0.000 N 
ATOM      9  C   UNL     1       5.723   5.008  17.952  0.00  0.00    +0.000 C 
ATOM     10  O   UNL     1       6.621   5.792  18.249  0.00  0.00    +0.000 OA
ATOM     11  N   UNL     1       7.313   5.492  15.539  0.00  0.00    +0.000 NA
ATOM     12  O   UNL     1       7.789   5.430  14.250  0.00  0.00    +0.000 OA
ATOM     13  H   UNL     1       4.644   3.886  16.622  0.00  0.00    +0.000 HD
ENDBRANCH   3   9
ENDBRANCH   1   3
BRANCH   1  14
ATOM     14  C   UNL     1       2.910   5.685  20.159  0.00  0.00    +0.000 C 
BRANCH  14  15
ATOM     15  C   UNL     1       2.225   7.052  20.008  0.00  0.00    +0.000 C 
ATOM     16  O   UNL     1       2.159   7.593  18.904  0.00  0.00    +0.000 OA
ATOM     17  N   UNL     1       1.713   7.574  21.193  0.00  0.00    +0.000 N 
ATOM     18  H   UNL     1       2.004   7.137  22.058  0.00  0.00    +0.000 HD
BRANCH  17  19
ATOM     19  C   UNL     1       0.964   8.767  21.310  0.00  0.00    +0.000 A 
ATOM     20  C   UNL     1       0.428   9.215  22.522  0.00  0.00    +0.000 A 
ATOM     21  C   UNL     1      -0.369  10.363  22.575  0.00  0.00    +0.000 A 
ATOM     22  C   UNL     1      -0.627  11.079  21.412  0.00  0.00    +0.000 A 
ATOM     23 CL   UNL     1      -1.655  12.456  21.467  0.00  0.00    +0.000 Cl
ATOM     24  C   UNL     1      -0.059  10.678  20.205  0.00  0.00    +0.000 A 
ATOM     25  C   UNL     1       0.747   9.532  20.156  0.00  0.00    +0.000 A 
ENDBRANCH  17  19
ENDBRANCH  14  15
ENDBRANCH   1  14
TORSDOF 5
ENDMDL
MODEL 9
REMARK VINA RESULT:      -6.7      5.570      7.128
REMARK  Name = 
REMARK  7 active torsions:
REMARK  status: ('A' for Active; 'I' for Inactive)
REMARK    1  A    between atoms: C_1  and  C_2
REMARK    2  A    between atoms: C_6  and  C_8
REMARK    3  A    between atoms: C_8  and  N_9
REMARK    4  A    between atoms: N_9  and  C_10
REMARK    5  A    between atoms: N_9  and  C_11
REMARK    6  A    between atoms: C_11  and  C_12
REMARK    7  A    between atoms: N_14  and  C_15
REMARK                            x       y       z     vdW  Elec       q    Type
REMARK                         _______ _______ _______ _____ _____    ______ ____
ROOT
ATOM      1  N   UNL     1       6.972   6.854  16.892  0.00  0.00    +0.000 NA
ATOM      2  C   UNL     1       5.580   7.302  17.077  0.00  0.00    +0.000 C 
ENDROOT
BRANCH   1   3
ATOM      3  C   UNL     1       7.040   5.386  16.678  0.00  0.00    +0.000 C 
BRANCH   3   9
ATOM      4  C   UNL     1       0.688   2.203  18.807  0.00  0.00    +0.000 C 
ATOM      5  C   UNL     1       2.030   2.755  18.555  0.00  0.00    +0.000 A 
ATOM      6  C   UNL     1       2.645   3.381  17.497  0.00  0.00    +0.000 A 
ATOM      7  C   UNL     1       3.964   3.639  17.952  0.00  0.00    +0.000 A 
ATOM      8  N   UNL     1       4.934   4.276  17.207  0.00  0.00    +0.000 N 
ATOM      9  C   UNL     1       6.193   4.591  17.677  0.00  0.00    +0.000 C 
ATOM     10  O   UNL     1       6.685   4.252  18.750  0.00  0.00    +0.000 OA
ATOM     11  N   UNL     1       4.119   3.191  19.201  0.00  0.00    +0.000 NA
ATOM     12  O   UNL     1       2.914   2.645  19.577  0.00  0.00    +0.000 OA
ATOM     13  H   UNL     1       4.687   4.632  16.291  0.00  0.00    +0.000 HD
ENDBRANCH   3   9
ENDBRANCH   1   3
BRANCH   1  14
ATOM     14  C   UNL     1       7.803   7.244  18.067  0.00  0.00    +0.000 C 
BRANCH  14  15
ATOM     15  C   UNL     1       8.201   8.728  18.093  0.00  0.00    +0.000 C 
ATOM     16  O   UNL     1       7.765   9.501  17.240  0.00  0.00    +0.000 OA
ATOM     17  N   UNL     1       9.056   9.077  19.135  0.00  0.00    +0.000 N 
ATOM     18  H   UNL     1       9.501   8.324  19.645  0.00  0.00    +0.000 HD
BRANCH  17  19
ATOM     19  C   UNL     1       9.498  10.386  19.433  0.00  0.00    +0.000 A 
ATOM     20  C   UNL     1       9.292  10.996  20.675  0.00  0.00    +0.000 A 
ATOM     21  C   UNL     1       9.682  12.321  20.897  0.00  0.00    +0.000 A 
ATOM     22  C   UNL     1      10.293  13.043  19.879  0.00  0.00    +0.000 A 
ATOM     23 CL   UNL     1      10.719  14.688  20.134  0.00  0.00    +0.000 Cl
ATOM     24  C   UNL     1      10.554  12.434  18.653  0.00  0.00    +0.000 A 
ATOM     25  C   UNL     1      10.170  11.104  18.434  0.00  0.00    +0.000 A 
ENDBRANCH  17  19
ENDBRANCH  14  15
ENDBRANCH   1  14
TORSDOF 5
ENDMDL
