MODEL 1
REMARK VINA RESULT:      -6.3      0.000      0.000
REMARK  Name = 
REMARK  13 active torsions:
REMARK  status: ('A' for Active; 'I' for Inactive)
REMARK    1  A    between atoms: C_2  and  C_3
REMARK    2  A    between atoms: C_2  and  C_4
REMARK    3  A    between atoms: C_8  and  C_9
REMARK    4  A    between atoms: C_14  and  C_15
REMARK    5  A    between atoms: C_15  and  O_16
REMARK    6  A    between atoms: C_15  and  C_18
REMARK    7  A    between atoms: O_16  and  C_17
REMARK    8  A    between atoms: C_20  and  C_21
REMARK    9  A    between atoms: C_20  and  C_22
REMARK   10  A    between atoms: C_25  and  O_26
REMARK   11  A    between atoms: C_32  and  O_33
REMARK   12  A    between atoms: O_33  and  C_34
REMARK   13  A    between atoms: C_34  and  C_35
REMARK                            x       y       z     vdW  Elec       q    Type
REMARK                         _______ _______ _______ _____ _____    ______ ____
ROOT
ATOM      1  C   UNL     1       1.125  10.374  19.900  0.00  0.00    +0.000 C 
ATOM      2  C   UNL     1       0.909  10.137  18.405  0.00  0.00    +0.000 C 
ATOM      3  O   UNL     1      -0.456   9.945  18.035  0.00  0.00    +0.000 OA
ATOM      4  C   UNL     1      -1.387  10.751  18.641  0.00  0.00    +0.000 A 
ATOM      5  C   UNL     1      -2.687  10.675  18.111  0.00  0.00    +0.000 A 
ATOM      6  C   UNL     1      -3.054   9.700  17.025  0.00  0.00    +0.000 C 
ATOM      7  C   UNL     1      -3.677  11.531  18.615  0.00  0.00    +0.000 A 
ATOM      8  C   UNL     1      -3.395  12.419  19.653  0.00  0.00    +0.000 A 
ATOM      9  O   UNL     1      -4.430  13.233  20.045  0.00  0.00    +0.000 OA
ATOM     10  C   UNL     1      -4.212  14.175  21.026  0.00  0.00    +0.000 A 
ATOM     11  C   UNL     1      -5.288  15.018  21.371  0.00  0.00    +0.000 A 
ATOM     12  C   UNL     1      -5.098  15.958  22.407  0.00  0.00    +0.000 A 
ATOM     13  C   UNL     1      -3.856  16.135  23.009  0.00  0.00    +0.000 A 
ATOM     14  C   UNL     1      -2.793  15.331  22.625  0.00  0.00    +0.000 A 
ATOM     15  C   UNL     1      -2.983  14.316  21.675  0.00  0.00    +0.000 A 
ATOM     16  C   UNL     1      -1.928  13.339  21.371  0.00  0.00    +0.000 A 
ATOM     17  O   UNL     1      -0.947  13.246  22.095  0.00  0.00    +0.000 OA
ATOM     18  C   UNL     1      -2.126  12.425  20.230  0.00  0.00    +0.000 A 
ATOM     19  C   UNL     1      -1.099  11.583  19.733  0.00  0.00    +0.000 A 
ATOM     20  C   UNL     1       0.307  11.616  20.294  0.00  0.00    +0.000 C 
ENDROOT
BRANCH   1  22
ATOM     21  C   UNL     1       1.356   7.937  20.686  0.00  0.00    +0.000 C 
ATOM     22  C   UNL     1       0.836   9.171  20.822  0.00  0.00    +0.000 C 
ATOM     23  C   UNL     1      -0.116   9.447  21.959  0.00  0.00    +0.000 C 
ENDBRANCH   1  22
BRANCH  14  24
ATOM     24  O   UNL     1      -1.561  15.574  23.158  0.00  0.00    +0.000 OA
ATOM     25  H   UNL     1      -0.862  15.286  22.550  0.00  0.00    +0.000 HD
ENDBRANCH  14  24
BRANCH  11  26
ATOM     26  C   UNL     1      -6.622  14.942  20.636  0.00  0.00    +0.000 C 
BRANCH  26  27
ATOM     27  C   UNL     1      -6.466  15.413  19.217  0.00  0.00    +0.000 C 
ATOM     28  O   UNL     1      -5.753  16.637  18.988  0.00  0.00    +0.000 OA
ATOM     29  C   UNL     1      -7.151  16.661  18.659  0.00  0.00    +0.000 C 
ATOM     30  C   UNL     1      -7.449  16.692  17.191  0.00  0.00    +0.000 C 
ATOM     31  C   UNL     1      -7.913  17.639  19.502  0.00  0.00    +0.000 C 
ENDBRANCH  26  27
BRANCH  26  32
ATOM     32  O   UNL     1      -7.090  13.580  20.553  0.00  0.00    +0.000 OA
ATOM     33  C   UNL     1      -7.795  13.135  21.704  0.00  0.00    +0.000 C 
ENDBRANCH  26  32
ENDBRANCH  11  26
BRANCH  20  34
ATOM     34  O   UNL     1       0.857  12.826  19.728  0.00  0.00    +0.000 OA
BRANCH  34  35
ATOM     35  C   UNL     1       2.016  13.276  20.278  0.00  0.00    +0.000 C 
ATOM     36  C   UNL     1       2.718  14.175  19.298  0.00  0.00    +0.000 C 
ATOM     37  O   UNL     1       2.410  13.035  21.409  0.00  0.00    +0.000 OA
ENDBRANCH  34  35
ENDBRANCH  20  34
TORSDOF 7
ENDMDL
MODEL 2
REMARK VINA RESULT:      -6.0      4.811     10.924
REMARK  Name = 
REMARK  13 active torsions:
REMARK  status: ('A' for Active; 'I' for Inactive)
REMARK    1  A    between atoms: C_2  and  C_3
REMARK    2  A    between atoms: C_2  and  C_4
REMARK    3  A    between atoms: C_8  and  C_9
REMARK    4  A    between atoms: C_14  and  C_15
REMARK    5  A    between atoms: C_15  and  O_16
REMARK    6  A    between atoms: C_15  and  C_18
REMARK    7  A    between atoms: O_16  and  C_17
REMARK    8  A    between atoms: C_20  and  C_21
REMARK    9  A    between atoms: C_20  and  C_22
REMARK   10  A    between atoms: C_25  and  O_26
REMARK   11  A    between atoms: C_32  and  O_33
REMARK   12  A    between atoms: O_33  and  C_34
REMARK   13  A    between atoms: C_34  and  C_35
REMARK                            x       y       z     vdW  Elec       q    Type
REMARK                         _______ _______ _______ _____ _____    ______ ____
ROOT
ATOM      1  C   UNL     1       0.382  15.267  20.738  0.00  0.00    +0.000 C 
ATOM      2  C   UNL     1       0.236  15.124  19.223  0.00  0.00    +0.000 C 
ATOM      3  O   UNL     1       1.295  15.722  18.476  0.00  0.00    +0.000 OA
ATOM      4  C   UNL     1       2.569  15.561  18.959  0.00  0.00    +0.000 A 
ATOM      5  C   UNL     1       3.597  15.985  18.100  0.00  0.00    +0.000 A 
ATOM      6  C   UNL     1       3.316  16.665  16.787  0.00  0.00    +0.000 C 
ATOM      7  C   UNL     1       4.931  15.776  18.481  0.00  0.00    +0.000 A 
ATOM      8  C   UNL     1       5.240  15.191  19.710  0.00  0.00    +0.000 A 
ATOM      9  O   UNL     1       6.577  15.004  19.965  0.00  0.00    +0.000 OA
ATOM     10  C   UNL     1       6.958  14.381  21.133  0.00  0.00    +0.000 A 
ATOM     11  C   UNL     1       8.337  14.170  21.339  0.00  0.00    +0.000 A 
ATOM     12  C   UNL     1       8.751  13.576  22.551  0.00  0.00    +0.000 A 
ATOM     13  C   UNL     1       7.829  13.107  23.483  0.00  0.00    +0.000 A 
ATOM     14  C   UNL     1       6.474  13.279  23.244  0.00  0.00    +0.000 A 
ATOM     15  C   UNL     1       6.040  13.963  22.098  0.00  0.00    +0.000 A 
ATOM     16  C   UNL     1       4.626  14.311  21.899  0.00  0.00    +0.000 A 
ATOM     17  O   UNL     1       3.832  14.216  22.824  0.00  0.00    +0.000 OA
ATOM     18  C   UNL     1       4.214  14.855  20.591  0.00  0.00    +0.000 A 
ATOM     19  C   UNL     1       2.857  15.040  20.229  0.00  0.00    +0.000 A 
ATOM     20  C   UNL     1       1.720  14.620  21.137  0.00  0.00    +0.000 C 
ENDROOT
BRANCH   1  22
ATOM     21  C   UNL     1      -0.403  17.715  20.693  0.00  0.00    +0.000 C 
ATOM     22  C   UNL     1       0.238  16.698  21.298  0.00  0.00    +0.000 C 
ATOM     23  C   UNL     1       0.887  16.931  22.640  0.00  0.00    +0.000 C 
ENDBRANCH   1  22
BRANCH  14  24
ATOM     24  O   UNL     1       5.580  12.736  24.121  0.00  0.00    +0.000 OA
ATOM     25  H   UNL     1       4.677  13.012  23.903  0.00  0.00    +0.000 HD
ENDBRANCH  14  24
BRANCH  11  26
ATOM     26  C   UNL     1       9.364  14.548  20.278  0.00  0.00    +0.000 C 
BRANCH  26  27
ATOM     27  C   UNL     1       9.384  13.522  19.179  0.00  0.00    +0.000 C 
ATOM     28  O   UNL     1       9.082  12.162  19.522  0.00  0.00    +0.000 OA
ATOM     29  C   UNL     1      10.426  12.407  19.081  0.00  0.00    +0.000 C 
ATOM     30  C   UNL     1      10.746  11.873  17.719  0.00  0.00    +0.000 C 
ATOM     31  C   UNL     1      11.434  12.114  20.151  0.00  0.00    +0.000 C 
ENDBRANCH  26  27
BRANCH  26  32
ATOM     32  O   UNL     1       9.020  15.799  19.646  0.00  0.00    +0.000 OA
ATOM     33  C   UNL     1       9.778  16.090  18.479  0.00  0.00    +0.000 C 
ENDBRANCH  26  32
ENDBRANCH  11  26
BRANCH  20  34
ATOM     34  O   UNL     1       1.691  13.184  20.984  0.00  0.00    +0.000 OA
BRANCH  34  35
ATOM     35  C   UNL     1       0.545  12.560  21.363  0.00  0.00    +0.000 C 
ATOM     36  C   UNL     1       0.128  11.588  20.294  0.00  0.00    +0.000 C 
ATOM     37  O   UNL     1      -0.037  12.719  22.425  0.00  0.00    +0.000 OA
ENDBRANCH  34  35
ENDBRANCH  20  34
TORSDOF 7
ENDMDL
MODEL 3
REMARK VINA RESULT:      -6.0      4.055     10.404
REMARK  Name = 
REMARK  13 active torsions:
REMARK  status: ('A' for Active; 'I' for Inactive)
REMARK    1  A    between atoms: C_2  and  C_3
REMARK    2  A    between atoms: C_2  and  C_4
REMARK    3  A    between atoms: C_8  and  C_9
REMARK    4  A    between atoms: C_14  and  C_15
REMARK    5  A    between atoms: C_15  and  O_16
REMARK    6  A    between atoms: C_15  and  C_18
REMARK    7  A    between atoms: O_16  and  C_17
REMARK    8  A    between atoms: C_20  and  C_21
REMARK    9  A    between atoms: C_20  and  C_22
REMARK   10  A    between atoms: C_25  and  O_26
REMARK   11  A    between atoms: C_32  and  O_33
REMARK   12  A    between atoms: O_33  and  C_34
REMARK   13  A    between atoms: C_34  and  C_35
REMARK                            x       y       z     vdW  Elec       q    Type
REMARK                         _______ _______ _______ _____ _____    ______ ____
ROOT
ATOM      1  C   UNL     1      -0.199  11.935  19.036  0.00  0.00    +0.000 C 
ATOM      2  C   UNL     1      -0.191  12.184  20.544  0.00  0.00    +0.000 C 
ATOM      3  O   UNL     1      -0.380  11.009  21.331  0.00  0.00    +0.000 OA
ATOM      4  C   UNL     1       0.270   9.871  20.922  0.00  0.00    +0.000 A 
ATOM      5  C   UNL     1       0.224   8.794  21.823  0.00  0.00    +0.000 A 
ATOM      6  C   UNL     1      -0.570   8.850  23.100  0.00  0.00    +0.000 C 
ATOM      7  C   UNL     1       0.937   7.625  21.521  0.00  0.00    +0.000 A 
ATOM      8  C   UNL     1       1.650   7.510  20.327  0.00  0.00    +0.000 A 
ATOM      9  O   UNL     1       2.339   6.334  20.149  0.00  0.00    +0.000 OA
ATOM     10  C   UNL     1       3.111   6.170  19.021  0.00  0.00    +0.000 A 
ATOM     11  C   UNL     1       3.834   4.967  18.896  0.00  0.00    +0.000 A 
ATOM     12  C   UNL     1       4.595   4.760  17.725  0.00  0.00    +0.000 A 
ATOM     13  C   UNL     1       4.725   5.752  16.758  0.00  0.00    +0.000 A 
ATOM     14  C   UNL     1       4.046   6.951  16.918  0.00  0.00    +0.000 A 
ATOM     15  C   UNL     1       3.197   7.139  18.020  0.00  0.00    +0.000 A 
ATOM     16  C   UNL     1       2.334   8.324  18.132  0.00  0.00    +0.000 A 
ATOM     17  O   UNL     1       2.166   9.058  17.168  0.00  0.00    +0.000 OA
ATOM     18  C   UNL     1       1.617   8.552  19.401  0.00  0.00    +0.000 A 
ATOM     19  C   UNL     1       0.918   9.752  19.684  0.00  0.00    +0.000 A 
ATOM     20  C   UNL     1       0.921  10.925  18.727  0.00  0.00    +0.000 C 
ENDROOT
BRANCH   1  22
ATOM     21  C   UNL     1      -2.762  11.931  18.836  0.00  0.00    +0.000 C 
ATOM     22  C   UNL     1      -1.552  11.505  18.430  0.00  0.00    +0.000 C 
ATOM     23  C   UNL     1      -1.462  10.523  17.288  0.00  0.00    +0.000 C 
ENDBRANCH   1  22
BRANCH  14  24
ATOM     24  O   UNL     1       4.252   7.948  16.009  0.00  0.00    +0.000 OA
ATOM     25  H   UNL     1       3.542   8.605  16.056  0.00  0.00    +0.000 HD
ENDBRANCH  14  24
BRANCH  11  26
ATOM     26  C   UNL     1       3.823   3.916  20.001  0.00  0.00    +0.000 C 
BRANCH  26  27
ATOM     27  C   UNL     1       2.466   3.277  20.102  0.00  0.00    +0.000 C 
ATOM     28  O   UNL     1       2.392   1.844  20.067  0.00  0.00    +0.000 OA
ATOM     29  C   UNL     1       1.797   2.524  18.951  0.00  0.00    +0.000 C 
ATOM     30  C   UNL     1       0.300   2.489  18.922  0.00  0.00    +0.000 C 
ATOM     31  C   UNL     1       2.484   2.198  17.659  0.00  0.00    +0.000 C 
ENDBRANCH  26  27
BRANCH  26  32
ATOM     32  O   UNL     1       4.744   2.845  19.706  0.00  0.00    +0.000 OA
ATOM     33  C   UNL     1       5.007   1.984  20.806  0.00  0.00    +0.000 C 
ENDBRANCH  26  32
ENDBRANCH  11  26
BRANCH  20  34
ATOM     34  O   UNL     1       2.232  11.501  18.918  0.00  0.00    +0.000 OA
BRANCH  34  35
ATOM     35  C   UNL     1       2.389  12.791  18.520  0.00  0.00    +0.000 C 
ATOM     36  C   UNL     1       2.916  13.607  19.668  0.00  0.00    +0.000 C 
ATOM     37  O   UNL     1       2.183  13.221  17.396  0.00  0.00    +0.000 OA
ENDBRANCH  34  35
ENDBRANCH  20  34
TORSDOF 7
ENDMDL
MODEL 4
REMARK VINA RESULT:      -5.9      2.427      7.179
REMARK  Name = 
REMARK  13 active torsions:
REMARK  status: ('A' for Active; 'I' for Inactive)
REMARK    1  A    between atoms: C_2  and  C_3
REMARK    2  A    between atoms: C_2  and  C_4
REMARK    3  A    between atoms: C_8  and  C_9
REMARK    4  A    between atoms: C_14  and  C_15
REMARK    5  A    between atoms: C_15  and  O_16
REMARK    6  A    between atoms: C_15  and  C_18
REMARK    7  A    between atoms: O_16  and  C_17
REMARK    8  A    between atoms: C_20  and  C_21
REMARK    9  A    between atoms: C_20  and  C_22
REMARK   10  A    between atoms: C_25  and  O_26
REMARK   11  A    between atoms: C_32  and  O_33
REMARK   12  A    between atoms: O_33  and  C_34
REMARK   13  A    between atoms: C_34  and  C_35
REMARK                            x       y       z     vdW  Elec       q    Type
REMARK                         _______ _______ _______ _____ _____    ______ ____
ROOT
ATOM      1  C   UNL     1      -6.792  13.289  20.358  0.00  0.00    +0.000 C 
ATOM      2  C   UNL     1      -6.569  11.812  20.030  0.00  0.00    +0.000 C 
ATOM      3  O   UNL     1      -5.375  11.552  19.292  0.00  0.00    +0.000 OA
ATOM      4  C   UNL     1      -4.250  12.247  19.657  0.00  0.00    +0.000 A 
ATOM      5  C   UNL     1      -3.056  11.825  19.048  0.00  0.00    +0.000 A 
ATOM      6  C   UNL     1      -3.030  10.753  17.992  0.00  0.00    +0.000 C 
ATOM      7  C   UNL     1      -1.848  12.425  19.432  0.00  0.00    +0.000 A 
ATOM      8  C   UNL     1      -1.828  13.455  20.374  0.00  0.00    +0.000 A 
ATOM      9  O   UNL     1      -0.587  13.946  20.700  0.00  0.00    +0.000 OA
ATOM     10  C   UNL     1      -0.482  14.925  21.663  0.00  0.00    +0.000 A 
ATOM     11  C   UNL     1       0.811  15.373  21.998  0.00  0.00    +0.000 A 
ATOM     12  C   UNL     1       0.937  16.409  22.950  0.00  0.00    +0.000 A 
ATOM     13  C   UNL     1      -0.170  16.911  23.628  0.00  0.00    +0.000 A 
ATOM     14  C   UNL     1      -1.433  16.425  23.322  0.00  0.00    +0.000 A 
ATOM     15  C   UNL     1      -1.595  15.473  22.304  0.00  0.00    +0.000 A 
ATOM     16  C   UNL     1      -2.928  15.064  21.839  0.00  0.00    +0.000 A 
ATOM     17  O   UNL     1      -3.918  15.703  22.166  0.00  0.00    +0.000 OA
ATOM     18  C   UNL     1      -3.027  13.925  20.906  0.00  0.00    +0.000 A 
ATOM     19  C   UNL     1      -4.263  13.329  20.550  0.00  0.00    +0.000 A 
ATOM     20  C   UNL     1      -5.574  13.774  21.163  0.00  0.00    +0.000 C 
ENDROOT
BRANCH   1  22
ATOM     21  C   UNL     1      -6.700  15.487  19.027  0.00  0.00    +0.000 C 
ATOM     22  C   UNL     1      -7.097  14.207  19.155  0.00  0.00    +0.000 C 
ATOM     23  C   UNL     1      -7.913  13.575  18.055  0.00  0.00    +0.000 C 
ENDBRANCH   1  22
BRANCH  14  24
ATOM     24  O   UNL     1      -2.498  16.860  24.056  0.00  0.00    +0.000 OA
ATOM     25  H   UNL     1      -2.262  16.927  24.994  0.00  0.00    +0.000 HD
ENDBRANCH  14  24
BRANCH  11  26
ATOM     26  C   UNL     1       2.054  14.749  21.373  0.00  0.00    +0.000 C 
BRANCH  26  27
ATOM     27  C   UNL     1       2.539  15.585  20.223  0.00  0.00    +0.000 C 
ATOM     28  O   UNL     1       1.582  15.986  19.232  0.00  0.00    +0.000 OA
ATOM     29  C   UNL     1       2.603  15.084  18.779  0.00  0.00    +0.000 C 
ATOM     30  C   UNL     1       3.627  15.698  17.875  0.00  0.00    +0.000 C 
ATOM     31  C   UNL     1       2.036  13.771  18.329  0.00  0.00    +0.000 C 
ENDBRANCH  26  27
BRANCH  26  32
ATOM     32  O   UNL     1       3.143  14.707  22.319  0.00  0.00    +0.000 OA
ATOM     33  C   UNL     1       4.232  13.886  21.917  0.00  0.00    +0.000 C 
ENDBRANCH  26  32
ENDBRANCH  11  26
BRANCH  20  34
ATOM     34  O   UNL     1      -5.534  13.189  22.483  0.00  0.00    +0.000 OA
BRANCH  34  35
ATOM     35  C   UNL     1      -6.612  13.418  23.278  0.00  0.00    +0.000 C 
ATOM     36  C   UNL     1      -7.173  12.105  23.751  0.00  0.00    +0.000 C 
ATOM     37  O   UNL     1      -7.038  14.516  23.604  0.00  0.00    +0.000 OA
ENDBRANCH  34  35
ENDBRANCH  20  34
TORSDOF 7
ENDMDL
MODEL 5
REMARK VINA RESULT:      -5.9      3.923     10.196
REMARK  Name = 
REMARK  13 active torsions:
REMARK  status: ('A' for Active; 'I' for Inactive)
REMARK    1  A    between atoms: C_2  and  C_3
REMARK    2  A    between atoms: C_2  and  C_4
REMARK    3  A    between atoms: C_8  and  C_9
REMARK    4  A    between atoms: C_14  and  C_15
REMARK    5  A    between atoms: C_15  and  O_16
REMARK    6  A    between atoms: C_15  and  C_18
REMARK    7  A    between atoms: O_16  and  C_17
REMARK    8  A    between atoms: C_20  and  C_21
REMARK    9  A    between atoms: C_20  and  C_22
REMARK   10  A    between atoms: C_25  and  O_26
REMARK   11  A    between atoms: C_32  and  O_33
REMARK   12  A    between atoms: O_33  and  C_34
REMARK   13  A    between atoms: C_34  and  C_35
REMARK                            x       y       z     vdW  Elec       q    Type
REMARK                         _______ _______ _______ _____ _____    ______ ____
ROOT
ATOM      1  C   UNL     1      -0.119  12.163  19.295  0.00  0.00    +0.000 C 
ATOM      2  C   UNL     1      -0.110  12.299  20.818  0.00  0.00    +0.000 C 
ATOM      3  O   UNL     1      -0.329  11.074  21.515  0.00  0.00    +0.000 OA
ATOM      4  C   UNL     1       0.294   9.955  21.024  0.00  0.00    +0.000 A 
ATOM      5  C   UNL     1       0.220   8.815  21.843  0.00  0.00    +0.000 A 
ATOM      6  C   UNL     1      -0.576   8.795  23.120  0.00  0.00    +0.000 C 
ATOM      7  C   UNL     1       0.906   7.654  21.456  0.00  0.00    +0.000 A 
ATOM      8  C   UNL     1       1.620   7.611  20.257  0.00  0.00    +0.000 A 
ATOM      9  O   UNL     1       2.280   6.435  19.994  0.00  0.00    +0.000 OA
ATOM     10  C   UNL     1       3.052   6.337  18.858  0.00  0.00    +0.000 A 
ATOM     11  C   UNL     1       3.746   5.129  18.644  0.00  0.00    +0.000 A 
ATOM     12  C   UNL     1       4.506   4.991  17.462  0.00  0.00    +0.000 A 
ATOM     13  C   UNL     1       4.662   6.049  16.571  0.00  0.00    +0.000 A 
ATOM     14  C   UNL     1       4.011   7.248  16.819  0.00  0.00    +0.000 A 
ATOM     15  C   UNL     1       3.164   7.375  17.931  0.00  0.00    +0.000 A 
ATOM     16  C   UNL     1       2.330   8.569  18.130  0.00  0.00    +0.000 A 
ATOM     17  O   UNL     1       2.182   9.376  17.223  0.00  0.00    +0.000 OA
ATOM     18  C   UNL     1       1.614   8.719  19.411  0.00  0.00    +0.000 A 
ATOM     19  C   UNL     1       0.943   9.911  19.781  0.00  0.00    +0.000 A 
ATOM     20  C   UNL     1       0.977  11.152  18.914  0.00  0.00    +0.000 C 
ENDROOT
BRANCH   1  22
ATOM     21  C   UNL     1      -1.655  11.188  17.478  0.00  0.00    +0.000 C 
ATOM     22  C   UNL     1      -1.480  11.812  18.658  0.00  0.00    +0.000 C 
ATOM     23  C   UNL     1      -2.690  12.222  19.460  0.00  0.00    +0.000 C 
ENDBRANCH   1  22
BRANCH  14  24
ATOM     24  O   UNL     1       4.244   8.304  15.987  0.00  0.00    +0.000 OA
ATOM     25  H   UNL     1       4.910   8.898  16.366  0.00  0.00    +0.000 HD
ENDBRANCH  14  24
BRANCH  11  26
ATOM     26  C   UNL     1       3.706   3.999  19.668  0.00  0.00    +0.000 C 
BRANCH  26  27
ATOM     27  C   UNL     1       2.808   2.892  19.192  0.00  0.00    +0.000 C 
ATOM     28  O   UNL     1       1.762   3.224  18.268  0.00  0.00    +0.000 OA
ATOM     29  C   UNL     1       1.329   2.783  19.564  0.00  0.00    +0.000 C 
ATOM     30  C   UNL     1       0.718   1.416  19.589  0.00  0.00    +0.000 C 
ATOM     31  C   UNL     1       0.575   3.850  20.300  0.00  0.00    +0.000 C 
ENDBRANCH  26  27
BRANCH  26  32
ATOM     32  O   UNL     1       5.011   3.407  19.836  0.00  0.00    +0.000 OA
ATOM     33  C   UNL     1       4.987   2.084  20.356  0.00  0.00    +0.000 C 
ENDBRANCH  26  32
ENDBRANCH  11  26
BRANCH  20  34
ATOM     34  O   UNL     1       2.301  11.680  19.148  0.00  0.00    +0.000 OA
BRANCH  34  35
ATOM     35  C   UNL     1       2.577  12.888  18.589  0.00  0.00    +0.000 C 
ATOM     36  C   UNL     1       3.089  13.824  19.649  0.00  0.00    +0.000 C 
ATOM     37  O   UNL     1       2.475  13.165  17.404  0.00  0.00    +0.000 OA
ENDBRANCH  34  35
ENDBRANCH  20  34
TORSDOF 7
ENDMDL
MODEL 6
REMARK VINA RESULT:      -5.9      3.304      8.269
REMARK  Name = 
REMARK  13 active torsions:
REMARK  status: ('A' for Active; 'I' for Inactive)
REMARK    1  A    between atoms: C_2  and  C_3
REMARK    2  A    between atoms: C_2  and  C_4
REMARK    3  A    between atoms: C_8  and  C_9
REMARK    4  A    between atoms: C_14  and  C_15
REMARK    5  A    between atoms: C_15  and  O_16
REMARK    6  A    between atoms: C_15  and  C_18
REMARK    7  A    between atoms: O_16  and  C_17
REMARK    8  A    between atoms: C_20  and  C_21
REMARK    9  A    between atoms: C_20  and  C_22
REMARK   10  A    between atoms: C_25  and  O_26
REMARK   11  A    between atoms: C_32  and  O_33
REMARK   12  A    between atoms: O_33  and  C_34
REMARK   13  A    between atoms: C_34  and  C_35
REMARK                            x       y       z     vdW  Elec       q    Type
REMARK                         _______ _______ _______ _____ _____    ______ ____
ROOT
ATOM      1  C   UNL     1       0.780  17.697  21.515  0.00  0.00    +0.000 C 
ATOM      2  C   UNL     1       0.816  18.205  20.073  0.00  0.00    +0.000 C 
ATOM      3  O   UNL     1       1.680  17.463  19.214  0.00  0.00    +0.000 OA
ATOM      4  C   UNL     1       1.679  16.097  19.353  0.00  0.00    +0.000 A 
ATOM      5  C   UNL     1       2.384  15.389  18.365  0.00  0.00    +0.000 A 
ATOM      6  C   UNL     1       3.172  16.086  17.288  0.00  0.00    +0.000 C 
ATOM      7  C   UNL     1       2.358  13.987  18.384  0.00  0.00    +0.000 A 
ATOM      8  C   UNL     1       1.679  13.298  19.390  0.00  0.00    +0.000 A 
ATOM      9  O   UNL     1       1.692  11.928  19.292  0.00  0.00    +0.000 OA
ATOM     10  C   UNL     1       0.996  11.181  20.216  0.00  0.00    +0.000 A 
ATOM     11  C   UNL     1       0.999   9.780  20.058  0.00  0.00    +0.000 A 
ATOM     12  C   UNL     1       0.331   8.994  21.021  0.00  0.00    +0.000 A 
ATOM     13  C   UNL     1      -0.408   9.575  22.047  0.00  0.00    +0.000 A 
ATOM     14  C   UNL     1      -0.443  10.956  22.162  0.00  0.00    +0.000 A 
ATOM     15  C   UNL     1       0.301  11.757  21.282  0.00  0.00    +0.000 A 
ATOM     16  C   UNL     1       0.424  13.208  21.479  0.00  0.00    +0.000 A 
ATOM     17  O   UNL     1       0.072  13.719  22.533  0.00  0.00    +0.000 OA
ATOM     18  C   UNL     1       1.057  14.010  20.414  0.00  0.00    +0.000 A 
ATOM     19  C   UNL     1       1.052  15.427  20.414  0.00  0.00    +0.000 A 
ATOM     20  C   UNL     1       0.327  16.227  21.476  0.00  0.00    +0.000 C 
ENDROOT
BRANCH   1  22
ATOM     21  C   UNL     1       3.135  18.630  21.957  0.00  0.00    +0.000 C 
ATOM     22  C   UNL     1       2.078  17.883  22.328  0.00  0.00    +0.000 C 
ATOM     23  C   UNL     1       2.123  17.149  23.645  0.00  0.00    +0.000 C 
ENDBRANCH   1  22
BRANCH  14  24
ATOM     24  O   UNL     1      -1.243  11.515  23.117  0.00  0.00    +0.000 OA
ATOM     25  H   UNL     1      -1.486  10.858  23.787  0.00  0.00    +0.000 HD
ENDBRANCH  14  24
BRANCH  11  26
ATOM     26  C   UNL     1       1.685   9.118  18.867  0.00  0.00    +0.000 C 
BRANCH  26  27
ATOM     27  C   UNL     1       1.694   7.624  19.031  0.00  0.00    +0.000 C 
ATOM     28  O   UNL     1       2.796   7.030  19.731  0.00  0.00    +0.000 OA
ATOM     29  C   UNL     1       2.697   6.702  18.336  0.00  0.00    +0.000 C 
ATOM     30  C   UNL     1       2.266   5.296  18.052  0.00  0.00    +0.000 C 
ATOM     31  C   UNL     1       3.878   7.196  17.555  0.00  0.00    +0.000 C 
ENDBRANCH  26  27
BRANCH  26  32
ATOM     32  O   UNL     1       0.965   9.379  17.645  0.00  0.00    +0.000 OA
ATOM     33  C   UNL     1      -0.430   9.587  17.824  0.00  0.00    +0.000 C 
ENDBRANCH  26  32
ENDBRANCH  11  26
BRANCH  20  34
ATOM     34  O   UNL     1      -1.060  16.101  21.091  0.00  0.00    +0.000 OA
BRANCH  34  35
ATOM     35  C   UNL     1      -1.977  16.569  21.978  0.00  0.00    +0.000 C 
ATOM     36  C   UNL     1      -2.936  17.486  21.270  0.00  0.00    +0.000 C 
ATOM     37  O   UNL     1      -2.051  16.260  23.158  0.00  0.00    +0.000 OA
ENDBRANCH  34  35
ENDBRANCH  20  34
TORSDOF 7
ENDMDL
MODEL 7
REMARK VINA RESULT:      -5.8      2.473      7.080
REMARK  Name = 
REMARK  13 active torsions:
REMARK  status: ('A' for Active; 'I' for Inactive)
REMARK    1  A    between atoms: C_2  and  C_3
REMARK    2  A    between atoms: C_2  and  C_4
REMARK    3  A    between atoms: C_8  and  C_9
REMARK    4  A    between atoms: C_14  and  C_15
REMARK    5  A    between atoms: C_15  and  O_16
REMARK    6  A    between atoms: C_15  and  C_18
REMARK    7  A    between atoms: O_16  and  C_17
REMARK    8  A    between atoms: C_20  and  C_21
REMARK    9  A    between atoms: C_20  and  C_22
REMARK   10  A    between atoms: C_25  and  O_26
REMARK   11  A    between atoms: C_32  and  O_33
REMARK   12  A    between atoms: O_33  and  C_34
REMARK   13  A    between atoms: C_34  and  C_35
REMARK                            x       y       z     vdW  Elec       q    Type
REMARK                         _______ _______ _______ _____ _____    ______ ____
ROOT
ATOM      1  C   UNL     1      -6.714  12.595  20.140  0.00  0.00    +0.000 C 
ATOM      2  C   UNL     1      -6.441  11.192  19.599  0.00  0.00    +0.000 C 
ATOM      3  O   UNL     1      -5.299  11.105  18.748  0.00  0.00    +0.000 OA
ATOM      4  C   UNL     1      -4.186  11.815  19.121  0.00  0.00    +0.000 A 
ATOM      5  C   UNL     1      -3.024  11.552  18.376  0.00  0.00    +0.000 A 
ATOM      6  C   UNL     1      -3.028  10.632  17.184  0.00  0.00    +0.000 C 
ATOM      7  C   UNL     1      -1.822  12.169  18.749  0.00  0.00    +0.000 A 
ATOM      8  C   UNL     1      -1.780  13.065  19.819  0.00  0.00    +0.000 A 
ATOM      9  O   UNL     1      -0.544  13.585  20.118  0.00  0.00    +0.000 OA
ATOM     10  C   UNL     1      -0.413  14.432  21.196  0.00  0.00    +0.000 A 
ATOM     11  C   UNL     1       0.878  14.912  21.494  0.00  0.00    +0.000 A 
ATOM     12  C   UNL     1       1.027  15.818  22.567  0.00  0.00    +0.000 A 
ATOM     13  C   UNL     1      -0.047  16.157  23.385  0.00  0.00    +0.000 A 
ATOM     14  C   UNL     1      -1.303  15.638  23.109  0.00  0.00    +0.000 A 
ATOM     15  C   UNL     1      -1.498  14.821  21.984  0.00  0.00    +0.000 A 
ATOM     16  C   UNL     1      -2.841  14.395  21.566  0.00  0.00    +0.000 A 
ATOM     17  O   UNL     1      -3.833  14.923  22.048  0.00  0.00    +0.000 OA
ATOM     18  C   UNL     1      -2.955  13.385  20.496  0.00  0.00    +0.000 A 
ATOM     19  C   UNL     1      -4.183  12.766  20.152  0.00  0.00    +0.000 A 
ATOM     20  C   UNL     1      -5.462  13.044  20.914  0.00  0.00    +0.000 C 
ENDROOT
BRANCH   1  22
ATOM     21  C   UNL     1      -7.598  13.376  17.856  0.00  0.00    +0.000 C 
ATOM     22  C   UNL     1      -7.162  13.644  19.100  0.00  0.00    +0.000 C 
ATOM     23  C   UNL     1      -7.088  15.078  19.561  0.00  0.00    +0.000 C 
ENDBRANCH   1  22
BRANCH  14  24
ATOM     24  O   UNL     1      -2.327  15.905  23.970  0.00  0.00    +0.000 OA
ATOM     25  H   UNL     1      -2.044  16.532  24.654  0.00  0.00    +0.000 HD
ENDBRANCH  14  24
BRANCH  11  26
ATOM     26  C   UNL     1       2.098  14.454  20.701  0.00  0.00    +0.000 C 
BRANCH  26  27
ATOM     27  C   UNL     1       2.953  15.632  20.328  0.00  0.00    +0.000 C 
ATOM     28  O   UNL     1       2.383  16.633  19.472  0.00  0.00    +0.000 OA
ATOM     29  C   UNL     1       3.474  15.885  18.912  0.00  0.00    +0.000 C 
ATOM     30  C   UNL     1       4.752  16.652  18.769  0.00  0.00    +0.000 C 
ATOM     31  C   UNL     1       3.054  15.085  17.716  0.00  0.00    +0.000 C 
ENDBRANCH  26  27
BRANCH  26  32
ATOM     32  O   UNL     1       2.938  13.591  21.496  0.00  0.00    +0.000 OA
ATOM     33  C   UNL     1       4.182  14.169  21.866  0.00  0.00    +0.000 C 
ENDBRANCH  26  32
ENDBRANCH  11  26
BRANCH  20  34
ATOM     34  O   UNL     1      -5.285  12.293  22.135  0.00  0.00    +0.000 OA
BRANCH  34  35
ATOM     35  C   UNL     1      -5.669  12.911  23.284  0.00  0.00    +0.000 C 
ATOM     36  C   UNL     1      -7.036  13.509  23.099  0.00  0.00    +0.000 C 
ATOM     37  O   UNL     1      -5.031  12.939  24.326  0.00  0.00    +0.000 OA
ENDBRANCH  34  35
ENDBRANCH  20  34
TORSDOF 7
ENDMDL
MODEL 8
REMARK VINA RESULT:      -5.7      4.835     10.789
REMARK  Name = 
REMARK  13 active torsions:
REMARK  status: ('A' for Active; 'I' for Inactive)
REMARK    1  A    between atoms: C_2  and  C_3
REMARK    2  A    between atoms: C_2  and  C_4
REMARK    3  A    between atoms: C_8  and  C_9
REMARK    4  A    between atoms: C_14  and  C_15
REMARK    5  A    between atoms: C_15  and  O_16
REMARK    6  A    between atoms: C_15  and  C_18
REMARK    7  A    between atoms: O_16  and  C_17
REMARK    8  A    between atoms: C_20  and  C_21
REMARK    9  A    between atoms: C_20  and  C_22
REMARK   10  A    between atoms: C_25  and  O_26
REMARK   11  A    between atoms: C_32  and  O_33
REMARK   12  A    between atoms: O_33  and  C_34
REMARK   13  A    between atoms: C_34  and  C_35
REMARK                            x       y       z     vdW  Elec       q    Type
REMARK                         _______ _______ _______ _____ _____    ______ ____
ROOT
ATOM      1  C   UNL     1       0.110  16.043  20.920  0.00  0.00    +0.000 C 
ATOM      2  C   UNL     1      -0.185  15.917  19.425  0.00  0.00    +0.000 C 
ATOM      3  O   UNL     1       0.858  16.403  18.582  0.00  0.00    +0.000 OA
ATOM      4  C   UNL     1       2.148  16.112  18.950  0.00  0.00    +0.000 A 
ATOM      5  C   UNL     1       3.133  16.430  18.000  0.00  0.00    +0.000 A 
ATOM      6  C   UNL     1       2.806  17.135  16.711  0.00  0.00    +0.000 C 
ATOM      7  C   UNL     1       4.467  16.084  18.263  0.00  0.00    +0.000 A 
ATOM      8  C   UNL     1       4.824  15.470  19.464  0.00  0.00    +0.000 A 
ATOM      9  O   UNL     1       6.152  15.146  19.601  0.00  0.00    +0.000 OA
ATOM     10  C   UNL     1       6.570  14.487  20.736  0.00  0.00    +0.000 A 
ATOM     11  C   UNL     1       7.933  14.135  20.820  0.00  0.00    +0.000 A 
ATOM     12  C   UNL     1       8.391  13.501  21.995  0.00  0.00    +0.000 A 
ATOM     13  C   UNL     1       7.513  13.129  23.009  0.00  0.00    +0.000 A 
ATOM     14  C   UNL     1       6.166  13.438  22.891  0.00  0.00    +0.000 A 
ATOM     15  C   UNL     1       5.704  14.164  21.782  0.00  0.00    +0.000 A 
ATOM     16  C   UNL     1       4.321  14.656  21.707  0.00  0.00    +0.000 A 
ATOM     17  O   UNL     1       3.607  14.642  22.700  0.00  0.00    +0.000 OA
ATOM     18  C   UNL     1       3.851  15.240  20.436  0.00  0.00    +0.000 A 
ATOM     19  C   UNL     1       2.493  15.564  20.194  0.00  0.00    +0.000 A 
ATOM     20  C   UNL     1       1.405  15.262  21.204  0.00  0.00    +0.000 C 
ENDROOT
BRANCH   1  22
ATOM     21  C   UNL     1      -0.429  18.557  20.929  0.00  0.00    +0.000 C 
ATOM     22  C   UNL     1       0.164  17.481  21.478  0.00  0.00    +0.000 C 
ATOM     23  C   UNL     1       0.960  17.648  22.749  0.00  0.00    +0.000 C 
ENDBRANCH   1  22
BRANCH  14  24
ATOM     24  O   UNL     1       5.304  12.990  23.848  0.00  0.00    +0.000 OA
ATOM     25  H   UNL     1       5.329  13.565  24.628  0.00  0.00    +0.000 HD
ENDBRANCH  14  24
BRANCH  11  26
ATOM     26  C   UNL     1       8.894  14.406  19.668  0.00  0.00    +0.000 C 
BRANCH  26  27
ATOM     27  C   UNL     1       9.756  15.599  19.974  0.00  0.00    +0.000 C 
ATOM     28  O   UNL     1       9.204  16.904  19.750  0.00  0.00    +0.000 OA
ATOM     29  C   UNL     1      10.307  16.542  18.904  0.00  0.00    +0.000 C 
ATOM     30  C   UNL     1      11.587  17.260  19.203  0.00  0.00    +0.000 C 
ATOM     31  C   UNL     1       9.913  16.481  17.459  0.00  0.00    +0.000 C 
ENDBRANCH  26  27
BRANCH  26  32
ATOM     32  O   UNL     1       9.802  13.299  19.481  0.00  0.00    +0.000 OA
ATOM     33  C   UNL     1       9.596  12.576  18.274  0.00  0.00    +0.000 C 
ENDBRANCH  26  32
ENDBRANCH  11  26
BRANCH  20  34
ATOM     34  O   UNL     1       1.216  13.837  21.066  0.00  0.00    +0.000 OA
BRANCH  34  35
ATOM     35  C   UNL     1       0.176  13.297  21.754  0.00  0.00    +0.000 C 
ATOM     36  C   UNL     1      -0.618  12.403  20.842  0.00  0.00    +0.000 C 
ATOM     37  O   UNL     1      -0.059  13.466  22.941  0.00  0.00    +0.000 OA
ENDBRANCH  34  35
ENDBRANCH  20  34
TORSDOF 7
ENDMDL
MODEL 9
REMARK VINA RESULT:      -5.7      2.397      6.543
REMARK  Name = 
REMARK  13 active torsions:
REMARK  status: ('A' for Active; 'I' for Inactive)
REMARK    1  A    between atoms: C_2  and  C_3
REMARK    2  A    between atoms: C_2  and  C_4
REMARK    3  A    between atoms: C_8  and  C_9
REMARK    4  A    between atoms: C_14  and  C_15
REMARK    5  A    between atoms: C_15  and  O_16
REMARK    6  A    between atoms: C_15  and  C_18
REMARK    7  A    between atoms: O_16  and  C_17
REMARK    8  A    between atoms: C_20  and  C_21
REMARK    9  A    between atoms: C_20  and  C_22
REMARK   10  A    between atoms: C_25  and  O_26
REMARK   11  A    between atoms: C_32  and  O_33
REMARK   12  A    between atoms: O_33  and  C_34
REMARK   13  A    between atoms: C_34  and  C_35
REMARK                            x       y       z     vdW  Elec       q    Type
REMARK                         _______ _______ _______ _____ _____    ______ ____
ROOT
ATOM      1  C   UNL     1      -6.389  10.787  18.432  0.00  0.00    +0.000 C 
ATOM      2  C   UNL     1      -7.245  11.950  17.933  0.00  0.00    +0.000 C 
ATOM      3  O   UNL     1      -7.319  13.051  18.839  0.00  0.00    +0.000 OA
ATOM      4  C   UNL     1      -6.162  13.409  19.483  0.00  0.00    +0.000 A 
ATOM      5  C   UNL     1      -6.224  14.612  20.209  0.00  0.00    +0.000 A 
ATOM      6  C   UNL     1      -7.500  15.396  20.353  0.00  0.00    +0.000 C 
ATOM      7  C   UNL     1      -5.059  15.095  20.824  0.00  0.00    +0.000 A 
ATOM      8  C   UNL     1      -3.864  14.377  20.755  0.00  0.00    +0.000 A 
ATOM      9  O   UNL     1      -2.779  14.960  21.366  0.00  0.00    +0.000 OA
ATOM     10  C   UNL     1      -1.552  14.339  21.292  0.00  0.00    +0.000 A 
ATOM     11  C   UNL     1      -0.456  14.989  21.895  0.00  0.00    +0.000 A 
ATOM     12  C   UNL     1       0.801  14.346  21.871  0.00  0.00    +0.000 A 
ATOM     13  C   UNL     1       0.994  13.153  21.181  0.00  0.00    +0.000 A 
ATOM     14  C   UNL     1      -0.084  12.550  20.551  0.00  0.00    +0.000 A 
ATOM     15  C   UNL     1      -1.366  13.112  20.651  0.00  0.00    +0.000 A 
ATOM     16  C   UNL     1      -2.555  12.413  20.143  0.00  0.00    +0.000 A 
ATOM     17  O   UNL     1      -2.489  11.234  19.827  0.00  0.00    +0.000 OA
ATOM     18  C   UNL     1      -3.837  13.144  20.108  0.00  0.00    +0.000 A 
ATOM     19  C   UNL     1      -4.993  12.636  19.464  0.00  0.00    +0.000 A 
ATOM     20  C   UNL     1      -4.974  11.332  18.695  0.00  0.00    +0.000 C 
ENDROOT
BRANCH   1  22
ATOM     21  C   UNL     1      -6.907   8.674  19.803  0.00  0.00    +0.000 C 
ATOM     22  C   UNL     1      -6.947  10.010  19.643  0.00  0.00    +0.000 C 
ATOM     23  C   UNL     1      -7.581  10.860  20.715  0.00  0.00    +0.000 C 
ENDBRANCH   1  22
BRANCH  14  24
ATOM     24  O   UNL     1       0.136  11.429  19.804  0.00  0.00    +0.000 OA
ATOM     25  H   UNL     1      -0.072  10.631  20.314  0.00  0.00    +0.000 HD
ENDBRANCH  14  24
BRANCH  11  26
ATOM     26  C   UNL     1      -0.605  16.362  22.540  0.00  0.00    +0.000 C 
BRANCH  26  27
ATOM     27  C   UNL     1      -0.354  16.276  24.020  0.00  0.00    +0.000 C 
ATOM     28  O   UNL     1      -0.773  15.087  24.705  0.00  0.00    +0.000 OA
ATOM     29  C   UNL     1      -1.466  16.290  25.069  0.00  0.00    +0.000 C 
ATOM     30  C   UNL     1      -1.131  16.820  26.429  0.00  0.00    +0.000 C 
ATOM     31  C   UNL     1      -2.926  16.223  24.735  0.00  0.00    +0.000 C 
ENDBRANCH  26  27
BRANCH  26  32
ATOM     32  O   UNL     1       0.377  17.285  22.025  0.00  0.00    +0.000 OA
ATOM     33  C   UNL     1       0.031  17.864  20.773  0.00  0.00    +0.000 C 
ENDBRANCH  26  32
ENDBRANCH  11  26
BRANCH  20  34
ATOM     34  O   UNL     1      -4.296  11.683  17.469  0.00  0.00    +0.000 OA
BRANCH  34  35
ATOM     35  C   UNL     1      -3.676  10.669  16.809  0.00  0.00    +0.000 C 
ATOM     36  C   UNL     1      -3.388  11.093  15.396  0.00  0.00    +0.000 C 
ATOM     37  O   UNL     1      -3.354   9.595  17.294  0.00  0.00    +0.000 OA
ENDBRANCH  34  35
ENDBRANCH  20  34
TORSDOF 7
ENDMDL
