MODEL 1
REMARK VINA RESULT:      -7.8      0.000      0.000
REMARK  Name = 
REMARK  9 active torsions:
REMARK  status: ('A' for Active; 'I' for Inactive)
REMARK    1  A    between atoms: C_1  and  C_2
REMARK    2  A    between atoms: C_3  and  C_4
REMARK    3  A    between atoms: C_4  and  O_5
REMARK    4  A    between atoms: O_5  and  C_6
REMARK    5  A    between atoms: C_9  and  S_10
REMARK    6  A    between atoms: S_10  and  N_13
REMARK    7  A    between atoms: C_18  and  C_20
REMARK    8  A    between atoms: C_26  and  C_27
REMARK    9  A    between atoms: N_29  and  O_30
REMARK                            x       y       z     vdW  Elec       q    Type
REMARK                         _______ _______ _______ _____ _____    ______ ____
ROOT
ATOM      1  N   UNL     1       5.175   6.052  17.006  0.00  0.00    +0.000 NA
ATOM      2  C   UNL     1       5.231   7.200  17.987  0.00  0.00    +0.000 C 
ATOM      3  C   UNL     1       4.069   8.166  17.902  0.00  0.00    +0.000 C 
ATOM      4  C   UNL     1       2.644   7.654  18.165  0.00  0.00    +0.000 C 
ATOM      5  N   UNL     1       2.475   6.285  18.658  0.00  0.00    +0.000 N 
ATOM      6  C   UNL     1       2.025   6.031  19.992  0.00  0.00    +0.000 C 
ATOM      7  O   UNL     1       1.774   7.011  20.731  0.00  0.00    +0.000 OA
ATOM      8  C   UNL     1       2.804   5.263  17.669  0.00  0.00    +0.000 C 
ATOM      9  C   UNL     1       4.294   4.885  17.515  0.00  0.00    +0.000 C 
ENDROOT
BRANCH   6  10
ATOM     10  C   UNL     1       1.846   4.636  20.478  0.00  0.00    +0.000 A 
ATOM     11  C   UNL     1       2.289   3.976  21.610  0.00  0.00    +0.000 A 
ATOM     12  C   UNL     1       1.993   2.599  21.692  0.00  0.00    +0.000 A 
ATOM     13  C   UNL     1       1.156   2.237  20.683  0.00  0.00    +0.000 A 
ATOM     14  S   UNL     1       0.840   3.533  19.597  0.00  0.00    +0.000 S 
ENDBRANCH   6  10
BRANCH   9  15
ATOM     15  C   UNL     1       4.811   4.372  18.841  0.00  0.00    +0.000 C 
ATOM     16  O   UNL     1       5.211   5.114  19.734  0.00  0.00    +0.000 OA
ATOM     17  N   UNL     1       4.868   3.013  19.011  0.00  0.00    +0.000 N 
ATOM     18  H   UNL     1       5.248   2.486  18.228  0.00  0.00    +0.000 HD
BRANCH  17  19
ATOM     19  O   UNL     1       5.487   2.697  20.256  0.00  0.00    +0.000 OA
ATOM     20  H   UNL     1       4.715   2.530  20.845  0.00  0.00    +0.000 HD
ENDBRANCH  17  19
ENDBRANCH   9  15
BRANCH   1  21
ATOM     21  S   UNL     1       6.808   5.527  16.559  0.00  0.00    +0.000 S 
ATOM     22  O   UNL     1       7.249   4.626  17.642  0.00  0.00    +0.000 OA
ATOM     23  O   UNL     1       7.572   6.695  16.260  0.00  0.00    +0.000 OA
BRANCH  21  27
ATOM     24  C   UNL     1       5.983   3.560  12.464  0.00  0.00    +0.000 A 
ATOM     25  C   UNL     1       6.966   4.550  12.626  0.00  0.00    +0.000 A 
ATOM     26  C   UNL     1       7.342   5.023  13.904  0.00  0.00    +0.000 A 
ATOM     27  C   UNL     1       6.679   4.551  15.044  0.00  0.00    +0.000 A 
ATOM     28  C   UNL     1       5.821   3.461  14.897  0.00  0.00    +0.000 A 
ATOM     29  C   UNL     1       5.447   3.003  13.613  0.00  0.00    +0.000 A 
BRANCH  24  30
ATOM     30  O   UNL     1       5.609   3.225  11.189  0.00  0.00    +0.000 OA
BRANCH  30  31
ATOM     31  C   UNL     1       4.322   2.577  10.964  0.00  0.00    +0.000 C 
BRANCH  31  34
ATOM     32  C   UNL     1       1.950   5.358   8.617  0.00  0.00    +0.000 C 
ATOM     33  C   UNL     1       2.780   4.385   9.439  0.00  0.00    +0.000 C 
ATOM     34  C   UNL     1       3.492   3.550  10.143  0.00  0.00    +0.000 C 
ENDBRANCH  31  34
ENDBRANCH  30  31
ENDBRANCH  24  30
ENDBRANCH  21  27
ENDBRANCH   1  21
TORSDOF 8
ENDMDL
MODEL 2
REMARK VINA RESULT:      -7.5      5.347      7.948
REMARK  Name = 
REMARK  9 active torsions:
REMARK  status: ('A' for Active; 'I' for Inactive)
REMARK    1  A    between atoms: C_1  and  C_2
REMARK    2  A    between atoms: C_3  and  C_4
REMARK    3  A    between atoms: C_4  and  O_5
REMARK    4  A    between atoms: O_5  and  C_6
REMARK    5  A    between atoms: C_9  and  S_10
REMARK    6  A    between atoms: S_10  and  N_13
REMARK    7  A    between atoms: C_18  and  C_20
REMARK    8  A    between atoms: C_26  and  C_27
REMARK    9  A    between atoms: N_29  and  O_30
REMARK                            x       y       z     vdW  Elec       q    Type
REMARK                         _______ _______ _______ _____ _____    ______ ____
ROOT
ATOM      1  N   UNL     1       1.213   9.601  19.670  0.00  0.00    +0.000 NA
ATOM      2  C   UNL     1      -0.026   8.911  20.190  0.00  0.00    +0.000 C 
ATOM      3  C   UNL     1      -0.040   8.670  21.684  0.00  0.00    +0.000 C 
ATOM      4  C   UNL     1       0.024   9.871  22.641  0.00  0.00    +0.000 C 
ATOM      5  N   UNL     1      -0.079  11.218  22.076  0.00  0.00    +0.000 N 
ATOM      6  C   UNL     1      -1.234  12.029  22.307  0.00  0.00    +0.000 C 
ATOM      7  O   UNL     1      -2.159  11.560  23.010  0.00  0.00    +0.000 OA
ATOM      8  C   UNL     1       1.086  11.612  21.289  0.00  0.00    +0.000 C 
ATOM      9  C   UNL     1       1.136  11.140  19.820  0.00  0.00    +0.000 C 
ENDROOT
BRANCH   6  10
ATOM     10  C   UNL     1      -1.322  13.401  21.737  0.00  0.00    +0.000 A 
ATOM     11  C   UNL     1      -0.425  14.452  21.686  0.00  0.00    +0.000 A 
ATOM     12  C   UNL     1      -0.900  15.660  21.133  0.00  0.00    +0.000 A 
ATOM     13  C   UNL     1      -2.133  15.475  20.591  0.00  0.00    +0.000 A 
ATOM     14  S   UNL     1      -2.737  13.888  20.861  0.00  0.00    +0.000 S 
ENDBRANCH   6  10
BRANCH   9  15
ATOM     15  C   UNL     1      -0.071  11.683  19.087  0.00  0.00    +0.000 C 
ATOM     16  O   UNL     1      -1.179  11.156  19.143  0.00  0.00    +0.000 OA
ATOM     17  N   UNL     1       0.116  12.786  18.296  0.00  0.00    +0.000 N 
ATOM     18  H   UNL     1       0.942  12.768  17.701  0.00  0.00    +0.000 HD
BRANCH  17  19
ATOM     19  O   UNL     1      -1.082  13.094  17.587  0.00  0.00    +0.000 OA
ATOM     20  H   UNL     1      -1.735  13.226  18.312  0.00  0.00    +0.000 HD
ENDBRANCH  17  19
ENDBRANCH   9  15
BRANCH   1  21
ATOM     21  S   UNL     1       1.563   9.096  18.008  0.00  0.00    +0.000 S 
ATOM     22  O   UNL     1       2.409  10.162  17.435  0.00  0.00    +0.000 OA
ATOM     23  O   UNL     1       0.322   8.770  17.383  0.00  0.00    +0.000 OA
BRANCH  21  27
ATOM     24  C   UNL     1       4.026   5.230  17.453  0.00  0.00    +0.000 A 
ATOM     25  C   UNL     1       4.620   6.501  17.393  0.00  0.00    +0.000 A 
ATOM     26  C   UNL     1       3.906   7.672  17.738  0.00  0.00    +0.000 A 
ATOM     27  C   UNL     1       2.553   7.585  18.086  0.00  0.00    +0.000 A 
ATOM     28  C   UNL     1       2.012   6.317  18.298  0.00  0.00    +0.000 A 
ATOM     29  C   UNL     1       2.732   5.155  17.941  0.00  0.00    +0.000 A 
BRANCH  24  30
ATOM     30  O   UNL     1       4.755   4.156  17.012  0.00  0.00    +0.000 OA
BRANCH  30  31
ATOM     31  C   UNL     1       6.096   4.368  16.480  0.00  0.00    +0.000 C 
BRANCH  31  34
ATOM     32  C   UNL     1       5.896   3.408  12.248  0.00  0.00    +0.000 C 
ATOM     33  C   UNL     1       5.966   3.744  13.729  0.00  0.00    +0.000 C 
ATOM     34  C   UNL     1       6.026   4.032  14.999  0.00  0.00    +0.000 C 
ENDBRANCH  31  34
ENDBRANCH  30  31
ENDBRANCH  24  30
ENDBRANCH  21  27
ENDBRANCH   1  21
TORSDOF 8
ENDMDL
MODEL 3
REMARK VINA RESULT:      -7.3      6.106      9.286
REMARK  Name = 
REMARK  9 active torsions:
REMARK  status: ('A' for Active; 'I' for Inactive)
REMARK    1  A    between atoms: C_1  and  C_2
REMARK    2  A    between atoms: C_3  and  C_4
REMARK    3  A    between atoms: C_4  and  O_5
REMARK    4  A    between atoms: O_5  and  C_6
REMARK    5  A    between atoms: C_9  and  S_10
REMARK    6  A    between atoms: S_10  and  N_13
REMARK    7  A    between atoms: C_18  and  C_20
REMARK    8  A    between atoms: C_26  and  C_27
REMARK    9  A    between atoms: N_29  and  O_30
REMARK                            x       y       z     vdW  Elec       q    Type
REMARK                         _______ _______ _______ _____ _____    ______ ____
ROOT
ATOM      1  N   UNL     1       0.624  10.470  20.267  0.00  0.00    +0.000 NA
ATOM      2  C   UNL     1      -0.560   9.628  20.682  0.00  0.00    +0.000 C 
ATOM      3  C   UNL     1      -0.677   9.387  22.171  0.00  0.00    +0.000 C 
ATOM      4  C   UNL     1      -0.852  10.586  23.117  0.00  0.00    +0.000 C 
ATOM      5  N   UNL     1      -1.072  11.909  22.530  0.00  0.00    +0.000 N 
ATOM      6  C   UNL     1      -2.337  12.567  22.647  0.00  0.00    +0.000 C 
ATOM      7  O   UNL     1      -3.255  11.984  23.270  0.00  0.00    +0.000 OA
ATOM      8  C   UNL     1       0.099  12.448  21.846  0.00  0.00    +0.000 C 
ATOM      9  C   UNL     1       0.340  11.987  20.392  0.00  0.00    +0.000 C 
ENDROOT
BRANCH   6  10
ATOM     10  C   UNL     1      -2.546  13.918  22.057  0.00  0.00    +0.000 A 
ATOM     11  C   UNL     1      -1.773  15.064  22.048  0.00  0.00    +0.000 A 
ATOM     12  C   UNL     1      -2.348  16.207  21.453  0.00  0.00    +0.000 A 
ATOM     13  C   UNL     1      -3.517  15.879  20.840  0.00  0.00    +0.000 A 
ATOM     14  S   UNL     1      -3.951  14.234  21.093  0.00  0.00    +0.000 S 
ENDBRANCH   6  10
BRANCH   9  15
ATOM     15  C   UNL     1      -0.855  12.373  19.549  0.00  0.00    +0.000 C 
ATOM     16  O   UNL     1      -0.988  13.486  19.048  0.00  0.00    +0.000 OA
ATOM     17  N   UNL     1      -1.842  11.435  19.390  0.00  0.00    +0.000 N 
ATOM     18  H   UNL     1      -2.120  10.940  20.234  0.00  0.00    +0.000 HD
BRANCH  17  19
ATOM     19  O   UNL     1      -2.943  11.994  18.677  0.00  0.00    +0.000 OA
ATOM     20  H   UNL     1      -2.707  11.812  17.738  0.00  0.00    +0.000 HD
ENDBRANCH  17  19
ENDBRANCH   9  15
BRANCH   1  21
ATOM     21  S   UNL     1       1.184  10.014  18.648  0.00  0.00    +0.000 S 
ATOM     22  O   UNL     1       2.118  11.079  18.233  0.00  0.00    +0.000 OA
ATOM     23  O   UNL     1       0.031   9.740  17.853  0.00  0.00    +0.000 OA
BRANCH  21  27
ATOM     24  C   UNL     1       3.037   5.785  18.619  0.00  0.00    +0.000 A 
ATOM     25  C   UNL     1       3.298   6.715  17.600  0.00  0.00    +0.000 A 
ATOM     26  C   UNL     1       2.879   8.062  17.697  0.00  0.00    +0.000 A 
ATOM     27  C   UNL     1       2.125   8.479  18.801  0.00  0.00    +0.000 A 
ATOM     28  C   UNL     1       2.005   7.603  19.879  0.00  0.00    +0.000 A 
ATOM     29  C   UNL     1       2.420   6.256  19.766  0.00  0.00    +0.000 A 
BRANCH  24  30
ATOM     30  O   UNL     1       3.393   4.479  18.407  0.00  0.00    +0.000 OA
BRANCH  30  31
ATOM     31  C   UNL     1       4.430   3.873  19.234  0.00  0.00    +0.000 C 
BRANCH  31  34
ATOM     32  C   UNL     1       7.956   6.372  18.796  0.00  0.00    +0.000 C 
ATOM     33  C   UNL     1       6.722   5.498  18.949  0.00  0.00    +0.000 C 
ATOM     34  C   UNL     1       5.664   4.748  19.081  0.00  0.00    +0.000 C 
ENDBRANCH  31  34
ENDBRANCH  30  31
ENDBRANCH  24  30
ENDBRANCH  21  27
ENDBRANCH   1  21
TORSDOF 8
ENDMDL
MODEL 4
REMARK VINA RESULT:      -7.2      5.936      8.721
REMARK  Name = 
REMARK  9 active torsions:
REMARK  status: ('A' for Active; 'I' for Inactive)
REMARK    1  A    between atoms: C_1  and  C_2
REMARK    2  A    between atoms: C_3  and  C_4
REMARK    3  A    between atoms: C_4  and  O_5
REMARK    4  A    between atoms: O_5  and  C_6
REMARK    5  A    between atoms: C_9  and  S_10
REMARK    6  A    between atoms: S_10  and  N_13
REMARK    7  A    between atoms: C_18  and  C_20
REMARK    8  A    between atoms: C_26  and  C_27
REMARK    9  A    between atoms: N_29  and  O_30
REMARK                            x       y       z     vdW  Elec       q    Type
REMARK                         _______ _______ _______ _____ _____    ______ ____
ROOT
ATOM      1  N   UNL     1       0.736  10.329  20.181  0.00  0.00    +0.000 NA
ATOM      2  C   UNL     1      -0.413   9.463  20.641  0.00  0.00    +0.000 C 
ATOM      3  C   UNL     1      -0.468   9.221  22.134  0.00  0.00    +0.000 C 
ATOM      4  C   UNL     1      -0.633  10.417  23.085  0.00  0.00    +0.000 C 
ATOM      5  N   UNL     1      -0.904  11.734  22.506  0.00  0.00    +0.000 N 
ATOM      6  C   UNL     1      -2.178  12.365  22.671  0.00  0.00    +0.000 C 
ATOM      7  O   UNL     1      -3.059  11.763  23.328  0.00  0.00    +0.000 OA
ATOM      8  C   UNL     1       0.229  12.298  21.778  0.00  0.00    +0.000 C 
ATOM      9  C   UNL     1       0.424  11.840  20.316  0.00  0.00    +0.000 C 
ENDROOT
BRANCH   6  10
ATOM     10  C   UNL     1      -2.438  13.710  22.088  0.00  0.00    +0.000 A 
ATOM     11  C   UNL     1      -1.689  14.871  22.045  0.00  0.00    +0.000 A 
ATOM     12  C   UNL     1      -2.311  16.001  21.474  0.00  0.00    +0.000 A 
ATOM     13  C   UNL     1      -3.498  15.649  20.912  0.00  0.00    +0.000 A 
ATOM     14  S   UNL     1      -3.889  13.997  21.185  0.00  0.00    +0.000 S 
ENDBRANCH   6  10
BRANCH   9  15
ATOM     15  C   UNL     1      -0.810  12.199  19.519  0.00  0.00    +0.000 C 
ATOM     16  O   UNL     1      -0.992  13.313  19.034  0.00  0.00    +0.000 OA
ATOM     17  N   UNL     1      -1.775  11.235  19.385  0.00  0.00    +0.000 N 
ATOM     18  H   UNL     1      -2.009  10.724  20.233  0.00  0.00    +0.000 HD
BRANCH  17  19
ATOM     19  O   UNL     1      -2.916  11.768  18.716  0.00  0.00    +0.000 OA
ATOM     20  H   UNL     1      -3.423  12.184  19.450  0.00  0.00    +0.000 HD
ENDBRANCH  17  19
ENDBRANCH   9  15
BRANCH   1  21
ATOM     21  S   UNL     1       1.244   9.884  18.542  0.00  0.00    +0.000 S 
ATOM     22  O   UNL     1       2.087  10.998  18.067  0.00  0.00    +0.000 OA
ATOM     23  O   UNL     1       0.073   9.525  17.809  0.00  0.00    +0.000 OA
BRANCH  21  27
ATOM     24  C   UNL     1       3.437   5.825  18.352  0.00  0.00    +0.000 A 
ATOM     25  C   UNL     1       3.735   6.870  17.463  0.00  0.00    +0.000 A 
ATOM     26  C   UNL     1       3.196   8.167  17.631  0.00  0.00    +0.000 A 
ATOM     27  C   UNL     1       2.287   8.413  18.667  0.00  0.00    +0.000 A 
ATOM     28  C   UNL     1       2.116   7.425  19.637  0.00  0.00    +0.000 A 
ATOM     29  C   UNL     1       2.653   6.130  19.451  0.00  0.00    +0.000 A 
BRANCH  24  30
ATOM     30  O   UNL     1       3.923   4.576  18.065  0.00  0.00    +0.000 OA
BRANCH  30  31
ATOM     31  C   UNL     1       5.362   4.379  17.931  0.00  0.00    +0.000 C 
BRANCH  31  34
ATOM     32  C   UNL     1       6.133   3.856  13.688  0.00  0.00    +0.000 C 
ATOM     33  C   UNL     1       5.863   4.039  15.173  0.00  0.00    +0.000 C 
ATOM     34  C   UNL     1       5.632   4.196  16.446  0.00  0.00    +0.000 C 
ENDBRANCH  31  34
ENDBRANCH  30  31
ENDBRANCH  24  30
ENDBRANCH  21  27
ENDBRANCH   1  21
TORSDOF 8
ENDMDL
MODEL 5
REMARK VINA RESULT:      -7.2      5.511      8.704
REMARK  Name = 
REMARK  9 active torsions:
REMARK  status: ('A' for Active; 'I' for Inactive)
REMARK    1  A    between atoms: C_1  and  C_2
REMARK    2  A    between atoms: C_3  and  C_4
REMARK    3  A    between atoms: C_4  and  O_5
REMARK    4  A    between atoms: O_5  and  C_6
REMARK    5  A    between atoms: C_9  and  S_10
REMARK    6  A    between atoms: S_10  and  N_13
REMARK    7  A    between atoms: C_18  and  C_20
REMARK    8  A    between atoms: C_26  and  C_27
REMARK    9  A    between atoms: N_29  and  O_30
REMARK                            x       y       z     vdW  Elec       q    Type
REMARK                         _______ _______ _______ _____ _____    ______ ____
ROOT
ATOM      1  N   UNL     1       1.146   9.658  19.728  0.00  0.00    +0.000 NA
ATOM      2  C   UNL     1      -0.125   8.998  20.211  0.00  0.00    +0.000 C 
ATOM      3  C   UNL     1      -0.181   8.741  21.701  0.00  0.00    +0.000 C 
ATOM      4  C   UNL     1      -0.107   9.928  22.673  0.00  0.00    +0.000 C 
ATOM      5  N   UNL     1      -0.157  11.284  22.122  0.00  0.00    +0.000 N 
ATOM      6  C   UNL     1      -1.294  12.126  22.335  0.00  0.00    +0.000 C 
ATOM      7  O   UNL     1      -2.249  11.675  23.010  0.00  0.00    +0.000 OA
ATOM      8  C   UNL     1       1.037  11.653  21.368  0.00  0.00    +0.000 C 
ATOM      9  C   UNL     1       1.109  11.197  19.894  0.00  0.00    +0.000 C 
ENDROOT
BRANCH   6  10
ATOM     10  C   UNL     1      -1.329  13.506  21.779  0.00  0.00    +0.000 A 
ATOM     11  C   UNL     1      -2.168  14.129  20.873  0.00  0.00    +0.000 A 
ATOM     12  C   UNL     1      -1.833  15.450  20.509  0.00  0.00    +0.000 A 
ATOM     13  C   UNL     1      -0.815  15.907  21.286  0.00  0.00    +0.000 A 
ATOM     14  S   UNL     1      -0.211  14.700  22.353  0.00  0.00    +0.000 S 
ENDBRANCH   6  10
BRANCH   9  15
ATOM     15  C   UNL     1      -0.064  11.782  19.140  0.00  0.00    +0.000 C 
ATOM     16  O   UNL     1      -1.190  11.292  19.170  0.00  0.00    +0.000 OA
ATOM     17  N   UNL     1       0.176  12.882  18.358  0.00  0.00    +0.000 N 
ATOM     18  H   UNL     1       1.012  12.839  17.780  0.00  0.00    +0.000 HD
BRANCH  17  19
ATOM     19  O   UNL     1      -0.996  13.232  17.626  0.00  0.00    +0.000 OA
ATOM     20  H   UNL     1      -1.302  14.048  18.085  0.00  0.00    +0.000 HD
ENDBRANCH  17  19
ENDBRANCH   9  15
BRANCH   1  21
ATOM     21  S   UNL     1       1.521   9.161  18.069  0.00  0.00    +0.000 S 
ATOM     22  O   UNL     1       2.387  10.223  17.520  0.00  0.00    +0.000 OA
ATOM     23  O   UNL     1       0.288   8.853  17.420  0.00  0.00    +0.000 OA
BRANCH  21  27
ATOM     24  C   UNL     1       4.517   5.697  18.654  0.00  0.00    +0.000 A 
ATOM     25  C   UNL     1       3.553   6.014  19.624  0.00  0.00    +0.000 A 
ATOM     26  C   UNL     1       2.525   6.951  19.373  0.00  0.00    +0.000 A 
ATOM     27  C   UNL     1       2.494   7.640  18.154  0.00  0.00    +0.000 A 
ATOM     28  C   UNL     1       3.350   7.213  17.139  0.00  0.00    +0.000 A 
ATOM     29  C   UNL     1       4.380   6.282  17.406  0.00  0.00    +0.000 A 
BRANCH  24  30
ATOM     30  O   UNL     1       5.535   4.850  19.009  0.00  0.00    +0.000 OA
BRANCH  30  31
ATOM     31  C   UNL     1       6.735   4.783  18.183  0.00  0.00    +0.000 C 
BRANCH  31  34
ATOM     32  C   UNL     1       8.348   8.814  18.044  0.00  0.00    +0.000 C 
ATOM     33  C   UNL     1       7.783   7.403  18.093  0.00  0.00    +0.000 C 
ATOM     34  C   UNL     1       7.299   6.193  18.134  0.00  0.00    +0.000 C 
ENDBRANCH  31  34
ENDBRANCH  30  31
ENDBRANCH  24  30
ENDBRANCH  21  27
ENDBRANCH   1  21
TORSDOF 8
ENDMDL
MODEL 6
REMARK VINA RESULT:      -7.1      5.724      8.883
REMARK  Name = 
REMARK  9 active torsions:
REMARK  status: ('A' for Active; 'I' for Inactive)
REMARK    1  A    between atoms: C_1  and  C_2
REMARK    2  A    between atoms: C_3  and  C_4
REMARK    3  A    between atoms: C_4  and  O_5
REMARK    4  A    between atoms: O_5  and  C_6
REMARK    5  A    between atoms: C_9  and  S_10
REMARK    6  A    between atoms: S_10  and  N_13
REMARK    7  A    between atoms: C_18  and  C_20
REMARK    8  A    between atoms: C_26  and  C_27
REMARK    9  A    between atoms: N_29  and  O_30
REMARK                            x       y       z     vdW  Elec       q    Type
REMARK                         _______ _______ _______ _____ _____    ______ ____
ROOT
ATOM      1  N   UNL     1       0.979   9.977  20.005  0.00  0.00    +0.000 NA
ATOM      2  C   UNL     1      -0.314   9.298  20.396  0.00  0.00    +0.000 C 
ATOM      3  C   UNL     1      -0.447   8.987  21.871  0.00  0.00    +0.000 C 
ATOM      4  C   UNL     1      -0.427  10.139  22.889  0.00  0.00    +0.000 C 
ATOM      5  N   UNL     1      -0.453  11.514  22.384  0.00  0.00    +0.000 N 
ATOM      6  C   UNL     1      -1.603  12.345  22.567  0.00  0.00    +0.000 C 
ATOM      7  O   UNL     1      -2.590  11.869  23.175  0.00  0.00    +0.000 OA
ATOM      8  C   UNL     1       0.778  11.912  21.707  0.00  0.00    +0.000 C 
ATOM      9  C   UNL     1       0.928  11.509  20.224  0.00  0.00    +0.000 C 
ENDROOT
BRANCH   6  10
ATOM     10  C   UNL     1      -1.613  13.745  22.061  0.00  0.00    +0.000 A 
ATOM     11  C   UNL     1      -0.704  14.782  22.160  0.00  0.00    +0.000 A 
ATOM     12  C   UNL     1      -1.103  16.023  21.620  0.00  0.00    +0.000 A 
ATOM     13  C   UNL     1      -2.272  15.885  20.940  0.00  0.00    +0.000 A 
ATOM     14  S   UNL     1      -2.920  14.296  21.065  0.00  0.00    +0.000 S 
ENDBRANCH   6  10
BRANCH   9  15
ATOM     15  C   UNL     1      -0.206  12.119  19.431  0.00  0.00    +0.000 C 
ATOM     16  O   UNL     1      -1.307  11.585  19.320  0.00  0.00    +0.000 OA
ATOM     17  N   UNL     1       0.045  13.298  18.778  0.00  0.00    +0.000 N 
ATOM     18  H   UNL     1       0.927  13.343  18.272  0.00  0.00    +0.000 HD
BRANCH  17  19
ATOM     19  O   UNL     1      -1.079  13.673  17.985  0.00  0.00    +0.000 OA
ATOM     20  H   UNL     1      -0.662  14.135  17.222  0.00  0.00    +0.000 HD
ENDBRANCH  17  19
ENDBRANCH   9  15
BRANCH   1  21
ATOM     21  S   UNL     1       1.442   9.541  18.351  0.00  0.00    +0.000 S 
ATOM     22  O   UNL     1       2.428  10.556  17.931  0.00  0.00    +0.000 OA
ATOM     23  O   UNL     1       0.243   9.371  17.596  0.00  0.00    +0.000 OA
BRANCH  21  27
ATOM     24  C   UNL     1       4.072   5.801  18.990  0.00  0.00    +0.000 A 
ATOM     25  C   UNL     1       3.003   6.109  19.847  0.00  0.00    +0.000 A 
ATOM     26  C   UNL     1       2.090   7.148  19.552  0.00  0.00    +0.000 A 
ATOM     27  C   UNL     1       2.283   7.943  18.415  0.00  0.00    +0.000 A 
ATOM     28  C   UNL     1       3.244   7.537  17.489  0.00  0.00    +0.000 A 
ATOM     29  C   UNL     1       4.156   6.503  17.800  0.00  0.00    +0.000 A 
BRANCH  24  30
ATOM     30  O   UNL     1       4.966   4.843  19.394  0.00  0.00    +0.000 OA
BRANCH  30  31
ATOM     31  C   UNL     1       4.940   3.526  18.768  0.00  0.00    +0.000 C 
BRANCH  31  34
ATOM     32  C   UNL     1       0.789   2.247  18.789  0.00  0.00    +0.000 C 
ATOM     33  C   UNL     1       2.242   2.695  18.782  0.00  0.00    +0.000 C 
ATOM     34  C   UNL     1       3.487   3.079  18.775  0.00  0.00    +0.000 C 
ENDBRANCH  31  34
ENDBRANCH  30  31
ENDBRANCH  24  30
ENDBRANCH  21  27
ENDBRANCH   1  21
TORSDOF 8
ENDMDL
MODEL 7
REMARK VINA RESULT:      -7.1      5.560      8.500
REMARK  Name = 
REMARK  9 active torsions:
REMARK  status: ('A' for Active; 'I' for Inactive)
REMARK    1  A    between atoms: C_1  and  C_2
REMARK    2  A    between atoms: C_3  and  C_4
REMARK    3  A    between atoms: C_4  and  O_5
REMARK    4  A    between atoms: O_5  and  C_6
REMARK    5  A    between atoms: C_9  and  S_10
REMARK    6  A    between atoms: S_10  and  N_13
REMARK    7  A    between atoms: C_18  and  C_20
REMARK    8  A    between atoms: C_26  and  C_27
REMARK    9  A    between atoms: N_29  and  O_30
REMARK                            x       y       z     vdW  Elec       q    Type
REMARK                         _______ _______ _______ _____ _____    ______ ____
ROOT
ATOM      1  N   UNL     1       1.084   9.781  19.887  0.00  0.00    +0.000 NA
ATOM      2  C   UNL     1      -0.174   9.089  20.359  0.00  0.00    +0.000 C 
ATOM      3  C   UNL     1      -0.261   8.882  21.856  0.00  0.00    +0.000 C 
ATOM      4  C   UNL     1      -0.259  10.105  22.786  0.00  0.00    +0.000 C 
ATOM      5  N   UNL     1      -0.345  11.438  22.185  0.00  0.00    +0.000 N 
ATOM      6  C   UNL     1      -1.519  12.241  22.337  0.00  0.00    +0.000 C 
ATOM      7  O   UNL     1      -2.475  11.778  23.003  0.00  0.00    +0.000 OA
ATOM      8  C   UNL     1       0.854  11.827  21.450  0.00  0.00    +0.000 C 
ATOM      9  C   UNL     1       0.984  11.322  19.996  0.00  0.00    +0.000 C 
ENDROOT
BRANCH   6  10
ATOM     10  C   UNL     1      -1.592  13.599  21.732  0.00  0.00    +0.000 A 
ATOM     11  C   UNL     1      -0.675  14.630  21.633  0.00  0.00    +0.000 A 
ATOM     12  C   UNL     1      -1.137  15.831  21.057  0.00  0.00    +0.000 A 
ATOM     13  C   UNL     1      -2.384  15.657  20.546  0.00  0.00    +0.000 A 
ATOM     14  S   UNL     1      -3.015  14.091  20.873  0.00  0.00    +0.000 S 
ENDBRANCH   6  10
BRANCH   9  15
ATOM     15  C   UNL     1      -0.189  11.835  19.191  0.00  0.00    +0.000 C 
ATOM     16  O   UNL     1      -1.310  11.336  19.252  0.00  0.00    +0.000 OA
ATOM     17  N   UNL     1       0.046  12.872  18.326  0.00  0.00    +0.000 N 
ATOM     18  H   UNL     1       0.887  12.793  17.760  0.00  0.00    +0.000 HD
BRANCH  17  19
ATOM     19  O   UNL     1      -1.124  13.152  17.562  0.00  0.00    +0.000 OA
ATOM     20  H   UNL     1      -1.684  13.653  18.198  0.00  0.00    +0.000 HD
ENDBRANCH  17  19
ENDBRANCH   9  15
BRANCH   1  21
ATOM     21  S   UNL     1       1.524   9.241  18.257  0.00  0.00    +0.000 S 
ATOM     22  O   UNL     1       2.174  10.400  17.614  0.00  0.00    +0.000 OA
ATOM     23  O   UNL     1       0.361   8.668  17.662  0.00  0.00    +0.000 OA
BRANCH  21  27
ATOM     24  C   UNL     1       4.253   5.518  18.186  0.00  0.00    +0.000 A 
ATOM     25  C   UNL     1       4.399   6.561  17.257  0.00  0.00    +0.000 A 
ATOM     26  C   UNL     1       3.688   7.776  17.386  0.00  0.00    +0.000 A 
ATOM     27  C   UNL     1       2.760   7.933  18.422  0.00  0.00    +0.000 A 
ATOM     28  C   UNL     1       2.732   6.967  19.428  0.00  0.00    +0.000 A 
ATOM     29  C   UNL     1       3.441   5.753  19.283  0.00  0.00    +0.000 A 
BRANCH  24  30
ATOM     30  O   UNL     1       4.905   4.338  17.938  0.00  0.00    +0.000 OA
BRANCH  30  31
ATOM     31  C   UNL     1       4.311   3.367  17.026  0.00  0.00    +0.000 C 
BRANCH  31  34
ATOM     32  C   UNL     1       0.542   2.158  18.815  0.00  0.00    +0.000 C 
ATOM     33  C   UNL     1       1.861   2.581  18.189  0.00  0.00    +0.000 C 
ATOM     34  C   UNL     1       2.992   2.944  17.652  0.00  0.00    +0.000 C 
ENDBRANCH  31  34
ENDBRANCH  30  31
ENDBRANCH  24  30
ENDBRANCH  21  27
ENDBRANCH   1  21
TORSDOF 8
ENDMDL
MODEL 8
REMARK VINA RESULT:      -7.1      5.902      8.724
REMARK  Name = 
REMARK  9 active torsions:
REMARK  status: ('A' for Active; 'I' for Inactive)
REMARK    1  A    between atoms: C_1  and  C_2
REMARK    2  A    between atoms: C_3  and  C_4
REMARK    3  A    between atoms: C_4  and  O_5
REMARK    4  A    between atoms: O_5  and  C_6
REMARK    5  A    between atoms: C_9  and  S_10
REMARK    6  A    between atoms: S_10  and  N_13
REMARK    7  A    between atoms: C_18  and  C_20
REMARK    8  A    between atoms: C_26  and  C_27
REMARK    9  A    between atoms: N_29  and  O_30
REMARK                            x       y       z     vdW  Elec       q    Type
REMARK                         _______ _______ _______ _____ _____    ______ ____
ROOT
ATOM      1  N   UNL     1       0.741  10.229  20.261  0.00  0.00    +0.000 NA
ATOM      2  C   UNL     1      -0.239   9.266  20.889  0.00  0.00    +0.000 C 
ATOM      3  C   UNL     1      -0.174   9.187  22.399  0.00  0.00    +0.000 C 
ATOM      4  C   UNL     1      -0.462  10.447  23.231  0.00  0.00    +0.000 C 
ATOM      5  N   UNL     1      -0.957  11.640  22.540  0.00  0.00    +0.000 N 
ATOM      6  C   UNL     1      -2.299  12.098  22.731  0.00  0.00    +0.000 C 
ATOM      7  O   UNL     1      -3.043  11.455  23.508  0.00  0.00    +0.000 OA
ATOM      8  C   UNL     1       0.037  12.272  21.679  0.00  0.00    +0.000 C 
ATOM      9  C   UNL     1       0.216  11.686  20.262  0.00  0.00    +0.000 C 
ENDROOT
BRANCH   6  10
ATOM     10  C   UNL     1      -2.789  13.318  22.033  0.00  0.00    +0.000 A 
ATOM     11  C   UNL     1      -3.831  13.536  21.150  0.00  0.00    +0.000 A 
ATOM     12  C   UNL     1      -3.939  14.836  20.612  0.00  0.00    +0.000 A 
ATOM     13  C   UNL     1      -3.065  15.674  21.231  0.00  0.00    +0.000 A 
ATOM     14  S   UNL     1      -2.057  14.855  22.359  0.00  0.00    +0.000 S 
ENDBRANCH   6  10
BRANCH   9  15
ATOM     15  C   UNL     1      -1.100  11.774  19.522  0.00  0.00    +0.000 C 
ATOM     16  O   UNL     1      -2.017  10.975  19.692  0.00  0.00    +0.000 OA
ATOM     17  N   UNL     1      -1.233  12.772  18.592  0.00  0.00    +0.000 N 
ATOM     18  H   UNL     1      -0.441  12.902  17.968  0.00  0.00    +0.000 HD
BRANCH  17  19
ATOM     19  O   UNL     1      -2.476  12.642  17.904  0.00  0.00    +0.000 OA
ATOM     20  H   UNL     1      -2.194  12.419  16.987  0.00  0.00    +0.000 HD
ENDBRANCH  17  19
ENDBRANCH   9  15
BRANCH   1  21
ATOM     21  S   UNL     1       1.217   9.678  18.645  0.00  0.00    +0.000 S 
ATOM     22  O   UNL     1       2.069  10.750  18.092  0.00  0.00    +0.000 OA
ATOM     23  O   UNL     1       0.030   9.295  17.951  0.00  0.00    +0.000 OA
BRANCH  21  27
ATOM     24  C   UNL     1       3.329   5.573  18.694  0.00  0.00    +0.000 A 
ATOM     25  C   UNL     1       3.596   6.531  17.703  0.00  0.00    +0.000 A 
ATOM     26  C   UNL     1       3.088   7.848  17.786  0.00  0.00    +0.000 A 
ATOM     27  C   UNL     1       2.241   8.202  18.843  0.00  0.00    +0.000 A 
ATOM     28  C   UNL     1       2.107   7.306  19.903  0.00  0.00    +0.000 A 
ATOM     29  C   UNL     1       2.611   5.989  19.803  0.00  0.00    +0.000 A 
BRANCH  24  30
ATOM     30  O   UNL     1       3.778   4.294  18.493  0.00  0.00    +0.000 OA
BRANCH  30  31
ATOM     31  C   UNL     1       3.488   3.620  17.232  0.00  0.00    +0.000 C 
BRANCH  31  34
ATOM     32  C   UNL     1       6.819   4.494  14.585  0.00  0.00    +0.000 C 
ATOM     33  C   UNL     1       5.653   4.188  15.512  0.00  0.00    +0.000 C 
ATOM     34  C   UNL     1       4.653   3.926  16.306  0.00  0.00    +0.000 C 
ENDBRANCH  31  34
ENDBRANCH  30  31
ENDBRANCH  24  30
ENDBRANCH  21  27
ENDBRANCH   1  21
TORSDOF 8
ENDMDL
MODEL 9
REMARK VINA RESULT:      -7.0      5.539      8.131
REMARK  Name = 
REMARK  9 active torsions:
REMARK  status: ('A' for Active; 'I' for Inactive)
REMARK    1  A    between atoms: C_1  and  C_2
REMARK    2  A    between atoms: C_3  and  C_4
REMARK    3  A    between atoms: C_4  and  O_5
REMARK    4  A    between atoms: O_5  and  C_6
REMARK    5  A    between atoms: C_9  and  S_10
REMARK    6  A    between atoms: S_10  and  N_13
REMARK    7  A    between atoms: C_18  and  C_20
REMARK    8  A    between atoms: C_26  and  C_27
REMARK    9  A    between atoms: N_29  and  O_30
REMARK                            x       y       z     vdW  Elec       q    Type
REMARK                         _______ _______ _______ _____ _____    ______ ____
ROOT
ATOM      1  N   UNL     1       1.068   9.839  19.769  0.00  0.00    +0.000 NA
ATOM      2  C   UNL     1      -0.145   9.097  20.283  0.00  0.00    +0.000 C 
ATOM      3  C   UNL     1      -0.139   8.822  21.770  0.00  0.00    +0.000 C 
ATOM      4  C   UNL     1      -0.106  10.002  22.755  0.00  0.00    +0.000 C 
ATOM      5  N   UNL     1      -0.257  11.358  22.221  0.00  0.00    +0.000 N 
ATOM      6  C   UNL     1      -1.436  12.125  22.479  0.00  0.00    +0.000 C 
ATOM      7  O   UNL     1      -2.340  11.610  23.178  0.00  0.00    +0.000 OA
ATOM      8  C   UNL     1       0.889  11.807  21.436  0.00  0.00    +0.000 C 
ATOM      9  C   UNL     1       0.942  11.371  19.956  0.00  0.00    +0.000 C 
ENDROOT
BRANCH   6  10
ATOM     10  C   UNL     1      -1.573  13.507  21.942  0.00  0.00    +0.000 A 
ATOM     11  C   UNL     1      -2.531  14.112  21.150  0.00  0.00    +0.000 A 
ATOM     12  C   UNL     1      -2.276  15.442  20.757  0.00  0.00    +0.000 A 
ATOM     13  C   UNL     1      -1.182  15.922  21.407  0.00  0.00    +0.000 A 
ATOM     14  S   UNL     1      -0.422  14.726  22.382  0.00  0.00    +0.000 S 
ENDBRANCH   6  10
BRANCH   9  15
ATOM     15  C   UNL     1      -0.288  11.891  19.245  0.00  0.00    +0.000 C 
ATOM     16  O   UNL     1      -0.349  13.014  18.750  0.00  0.00    +0.000 OA
ATOM     17  N   UNL     1      -1.385  11.072  19.205  0.00  0.00    +0.000 N 
ATOM     18  H   UNL     1      -1.622  10.608  20.079  0.00  0.00    +0.000 HD
BRANCH  17  19
ATOM     19  O   UNL     1      -2.488  11.752  18.611  0.00  0.00    +0.000 OA
ATOM     20  H   UNL     1      -2.610  12.528  19.206  0.00  0.00    +0.000 HD
ENDBRANCH  17  19
ENDBRANCH   9  15
BRANCH   1  21
ATOM     21  S   UNL     1       1.421   9.384  18.093  0.00  0.00    +0.000 S 
ATOM     22  O   UNL     1       2.259  10.471  17.551  0.00  0.00    +0.000 OA
ATOM     23  O   UNL     1       0.182   9.068  17.460  0.00  0.00    +0.000 OA
BRANCH  21  27
ATOM     24  C   UNL     1       3.830   5.499  17.441  0.00  0.00    +0.000 A 
ATOM     25  C   UNL     1       4.407   6.767  17.263  0.00  0.00    +0.000 A 
ATOM     26  C   UNL     1       3.729   7.951  17.633  0.00  0.00    +0.000 A 
ATOM     27  C   UNL     1       2.421   7.878  18.129  0.00  0.00    +0.000 A 
ATOM     28  C   UNL     1       1.912   6.621  18.452  0.00  0.00    +0.000 A 
ATOM     29  C   UNL     1       2.596   5.444  18.068  0.00  0.00    +0.000 A 
BRANCH  24  30
ATOM     30  O   UNL     1       4.512   4.408  16.970  0.00  0.00    +0.000 OA
BRANCH  30  31
ATOM     31  C   UNL     1       5.894   4.560  16.529  0.00  0.00    +0.000 C 
BRANCH  31  34
ATOM     32  C   UNL     1       5.974   3.405  12.343  0.00  0.00    +0.000 C 
ATOM     33  C   UNL     1       5.946   3.810  13.808  0.00  0.00    +0.000 C 
ATOM     34  C   UNL     1       5.922   4.156  15.064  0.00  0.00    +0.000 C 
ENDBRANCH  31  34
ENDBRANCH  30  31
ENDBRANCH  24  30
ENDBRANCH  21  27
ENDBRANCH   1  21
TORSDOF 8
ENDMDL
