MODEL 1
REMARK VINA RESULT:      -8.2      0.000      0.000
REMARK  Name = 
REMARK  7 active torsions:
REMARK  status: ('A' for Active; 'I' for Inactive)
REMARK    1  A    between atoms: C_1  and  O_2
REMARK    2  A    between atoms: O_2  and  C_3
REMARK    3  A    between atoms: C_3  and  C_5
REMARK    4  A    between atoms: C_10  and  C_11
REMARK    5  A    between atoms: N_13  and  C_14
REMARK    6  A    between atoms: C_17  and  C_18
REMARK    7  A    between atoms: C_18  and  O_20
REMARK                            x       y       z     vdW  Elec       q    Type
REMARK                         _______ _______ _______ _____ _____    ______ ____
ROOT
ATOM      1  C   UNL     1      -1.603  11.787  22.181  0.00  0.00    +0.000 A 
ATOM      2  C   UNL     1      -1.651  12.212  20.850  0.00  0.00    +0.000 A 
ATOM      3  C   UNL     1      -0.927  11.528  19.873  0.00  0.00    +0.000 A 
ATOM      4  C   UNL     1      -0.149  10.410  20.209  0.00  0.00    +0.000 A 
ATOM      5  C   UNL     1       0.600   9.741  19.236  0.00  0.00    +0.000 A 
ATOM      6  C   UNL     1       1.397   8.632  19.563  0.00  0.00    +0.000 A 
ATOM      7  C   UNL     1       1.444   8.177  20.880  0.00  0.00    +0.000 A 
ATOM      8  C   UNL     1       0.698   8.842  21.865  0.00  0.00    +0.000 A 
ATOM      9  C   UNL     1      -0.097   9.961  21.547  0.00  0.00    +0.000 A 
ATOM     10  C   UNL     1      -0.830  10.663  22.521  0.00  0.00    +0.000 A 
ENDROOT
BRANCH   6  11
ATOM     11  C   UNL     1       2.243   8.079  18.476  0.00  0.00    +0.000 C 
ATOM     12  O   UNL     1       2.208   8.669  17.397  0.00  0.00    +0.000 OA
ATOM     13  N   UNL     1       2.953   6.915  18.738  0.00  0.00    +0.000 N 
ATOM     14  H   UNL     1       2.733   6.406  19.585  0.00  0.00    +0.000 HD
BRANCH  13  15
ATOM     15  C   UNL     1       3.818   6.283  17.809  0.00  0.00    +0.000 A 
ATOM     16  C   UNL     1       3.683   4.935  17.457  0.00  0.00    +0.000 A 
ATOM     17  C   UNL     1       4.556   4.325  16.553  0.00  0.00    +0.000 A 
ATOM     18  C   UNL     1       5.597   5.060  15.990  0.00  0.00    +0.000 A 
ATOM     19  C   UNL     1       5.724   6.420  16.304  0.00  0.00    +0.000 A 
ATOM     20  C   UNL     1       4.835   7.031  17.204  0.00  0.00    +0.000 A 
BRANCH  18  21
ATOM     21  C   UNL     1       6.535   4.453  15.013  0.00  0.00    +0.000 C 
ATOM     22  O   UNL     1       7.645   4.906  14.797  0.00  0.00    +0.000 OA
BRANCH  21  23
ATOM     23  O   UNL     1       6.062   3.341  14.408  0.00  0.00    +0.000 OA
ATOM     24  H   UNL     1       5.868   3.430  13.457  0.00  0.00    +0.000 HD
ENDBRANCH  21  23
ENDBRANCH  18  21
ENDBRANCH  13  15
ENDBRANCH   6  11
BRANCH   1  25
ATOM     25  C   UNL     1      -2.337  12.492  23.267  0.00  0.00    +0.000 C 
ATOM     26  O   UNL     1      -1.952  13.536  23.767  0.00  0.00    +0.000 OA
BRANCH  25  28
ATOM     27  C   UNL     1      -4.248  12.459  24.610  0.00  0.00    +0.000 C 
ATOM     28  O   UNL     1      -3.464  11.816  23.606  0.00  0.00    +0.000 OA
ENDBRANCH  25  28
ENDBRANCH   1  25
TORSDOF 6
ENDMDL
MODEL 2
REMARK VINA RESULT:      -7.8      0.519      1.308
REMARK  Name = 
REMARK  7 active torsions:
REMARK  status: ('A' for Active; 'I' for Inactive)
REMARK    1  A    between atoms: C_1  and  O_2
REMARK    2  A    between atoms: O_2  and  C_3
REMARK    3  A    between atoms: C_3  and  C_5
REMARK    4  A    between atoms: C_10  and  C_11
REMARK    5  A    between atoms: N_13  and  C_14
REMARK    6  A    between atoms: C_17  and  C_18
REMARK    7  A    between atoms: C_18  and  O_20
REMARK                            x       y       z     vdW  Elec       q    Type
REMARK                         _______ _______ _______ _____ _____    ______ ____
ROOT
ATOM      1  C   UNL     1      -1.742  11.857  21.988  0.00  0.00    +0.000 A 
ATOM      2  C   UNL     1      -1.680  12.329  20.674  0.00  0.00    +0.000 A 
ATOM      3  C   UNL     1      -0.903  11.659  19.729  0.00  0.00    +0.000 A 
ATOM      4  C   UNL     1      -0.179  10.510  20.080  0.00  0.00    +0.000 A 
ATOM      5  C   UNL     1       0.624   9.855  19.140  0.00  0.00    +0.000 A 
ATOM      6  C   UNL     1       1.366   8.715  19.483  0.00  0.00    +0.000 A 
ATOM      7  C   UNL     1       1.305   8.213  20.784  0.00  0.00    +0.000 A 
ATOM      8  C   UNL     1       0.504   8.863  21.734  0.00  0.00    +0.000 A 
ATOM      9  C   UNL     1      -0.238  10.014  21.400  0.00  0.00    +0.000 A 
ATOM     10  C   UNL     1      -1.024  10.701  22.343  0.00  0.00    +0.000 A 
ENDROOT
BRANCH   6  11
ATOM     11  C   UNL     1       2.278   8.177  18.443  0.00  0.00    +0.000 C 
ATOM     12  O   UNL     1       2.314   8.787  17.375  0.00  0.00    +0.000 OA
ATOM     13  N   UNL     1       2.963   7.004  18.727  0.00  0.00    +0.000 N 
ATOM     14  H   UNL     1       2.688   6.481  19.548  0.00  0.00    +0.000 HD
BRANCH  13  15
ATOM     15  C   UNL     1       3.883   6.384  17.842  0.00  0.00    +0.000 A 
ATOM     16  C   UNL     1       4.956   7.076  17.271  0.00  0.00    +0.000 A 
ATOM     17  C   UNL     1       5.841   6.453  16.388  0.00  0.00    +0.000 A 
ATOM     18  C   UNL     1       5.656   5.114  16.049  0.00  0.00    +0.000 A 
ATOM     19  C   UNL     1       4.606   4.397  16.639  0.00  0.00    +0.000 A 
ATOM     20  C   UNL     1       3.728   5.026  17.537  0.00  0.00    +0.000 A 
BRANCH  18  21
ATOM     21  C   UNL     1       6.583   4.412  15.128  0.00  0.00    +0.000 C 
ATOM     22  O   UNL     1       7.721   4.792  14.922  0.00  0.00    +0.000 OA
BRANCH  21  23
ATOM     23  O   UNL     1       6.062   3.301  14.559  0.00  0.00    +0.000 OA
ATOM     24  H   UNL     1       6.366   2.454  14.934  0.00  0.00    +0.000 HD
ENDBRANCH  21  23
ENDBRANCH  18  21
ENDBRANCH  13  15
ENDBRANCH   6  11
BRANCH   1  25
ATOM     25  C   UNL     1      -2.536  12.543  23.042  0.00  0.00    +0.000 C 
ATOM     26  O   UNL     1      -3.288  11.957  23.804  0.00  0.00    +0.000 OA
BRANCH  25  28
ATOM     27  C   UNL     1      -1.703  14.383  24.218  0.00  0.00    +0.000 C 
ATOM     28  O   UNL     1      -2.306  13.881  23.026  0.00  0.00    +0.000 OA
ENDBRANCH  25  28
ENDBRANCH   1  25
TORSDOF 6
ENDMDL
MODEL 3
REMARK VINA RESULT:      -7.6      1.464     10.359
REMARK  Name = 
REMARK  7 active torsions:
REMARK  status: ('A' for Active; 'I' for Inactive)
REMARK    1  A    between atoms: C_1  and  O_2
REMARK    2  A    between atoms: O_2  and  C_3
REMARK    3  A    between atoms: C_3  and  C_5
REMARK    4  A    between atoms: C_10  and  C_11
REMARK    5  A    between atoms: N_13  and  C_14
REMARK    6  A    between atoms: C_17  and  C_18
REMARK    7  A    between atoms: C_18  and  O_20
REMARK                            x       y       z     vdW  Elec       q    Type
REMARK                         _______ _______ _______ _____ _____    ______ ____
ROOT
ATOM      1  C   UNL     1       5.966   5.145  15.513  0.00  0.00    +0.000 A 
ATOM      2  C   UNL     1       6.222   6.452  15.939  0.00  0.00    +0.000 A 
ATOM      3  C   UNL     1       5.446   7.020  16.950  0.00  0.00    +0.000 A 
ATOM      4  C   UNL     1       4.407   6.293  17.551  0.00  0.00    +0.000 A 
ATOM      5  C   UNL     1       3.611   6.872  18.544  0.00  0.00    +0.000 A 
ATOM      6  C   UNL     1       2.557   6.161  19.140  0.00  0.00    +0.000 A 
ATOM      7  C   UNL     1       2.296   4.848  18.746  0.00  0.00    +0.000 A 
ATOM      8  C   UNL     1       3.088   4.259  17.749  0.00  0.00    +0.000 A 
ATOM      9  C   UNL     1       4.142   4.969  17.139  0.00  0.00    +0.000 A 
ATOM     10  C   UNL     1       4.930   4.410  16.117  0.00  0.00    +0.000 A 
ENDROOT
BRANCH   6  11
ATOM     11  C   UNL     1       1.702   6.914  20.091  0.00  0.00    +0.000 C 
ATOM     12  O   UNL     1       1.142   6.256  20.966  0.00  0.00    +0.000 OA
ATOM     13  N   UNL     1       1.550   8.278  19.883  0.00  0.00    +0.000 N 
ATOM     14  H   UNL     1       1.883   8.665  19.009  0.00  0.00    +0.000 HD
BRANCH  13  15
ATOM     15  C   UNL     1       0.784   9.131  20.719  0.00  0.00    +0.000 A 
ATOM     16  C   UNL     1       0.797   9.023  22.113  0.00  0.00    +0.000 A 
ATOM     17  C   UNL     1       0.022   9.860  22.919  0.00  0.00    +0.000 A 
ATOM     18  C   UNL     1      -0.798  10.823  22.333  0.00  0.00    +0.000 A 
ATOM     19  C   UNL     1      -0.796  10.968  20.939  0.00  0.00    +0.000 A 
ATOM     20  C   UNL     1      -0.003  10.131  20.136  0.00  0.00    +0.000 A 
BRANCH  18  21
ATOM     21  C   UNL     1      -1.624  11.742  23.154  0.00  0.00    +0.000 C 
ATOM     22  O   UNL     1      -2.747  11.460  23.530  0.00  0.00    +0.000 OA
BRANCH  21  23
ATOM     23  O   UNL     1      -1.011  12.905  23.470  0.00  0.00    +0.000 OA
ATOM     24  H   UNL     1      -0.766  13.010  24.408  0.00  0.00    +0.000 HD
ENDBRANCH  21  23
ENDBRANCH  18  21
ENDBRANCH  13  15
ENDBRANCH   6  11
BRANCH   1  25
ATOM     25  C   UNL     1       6.746   4.497  14.424  0.00  0.00    +0.000 C 
ATOM     26  O   UNL     1       7.846   4.886  14.065  0.00  0.00    +0.000 OA
BRANCH  25  28
ATOM     27  C   UNL     1       6.023   3.424  12.479  0.00  0.00    +0.000 C 
ATOM     28  O   UNL     1       6.068   3.442  13.906  0.00  0.00    +0.000 OA
ENDBRANCH  25  28
ENDBRANCH   1  25
TORSDOF 6
ENDMDL
MODEL 4
REMARK VINA RESULT:      -7.6      1.487     10.343
REMARK  Name = 
REMARK  7 active torsions:
REMARK  status: ('A' for Active; 'I' for Inactive)
REMARK    1  A    between atoms: C_1  and  O_2
REMARK    2  A    between atoms: O_2  and  C_3
REMARK    3  A    between atoms: C_3  and  C_5
REMARK    4  A    between atoms: C_10  and  C_11
REMARK    5  A    between atoms: N_13  and  C_14
REMARK    6  A    between atoms: C_17  and  C_18
REMARK    7  A    between atoms: C_18  and  O_20
REMARK                            x       y       z     vdW  Elec       q    Type
REMARK                         _______ _______ _______ _____ _____    ______ ____
ROOT
ATOM      1  C   UNL     1       5.640   5.253  15.679  0.00  0.00    +0.000 A 
ATOM      2  C   UNL     1       5.311   6.602  15.517  0.00  0.00    +0.000 A 
ATOM      3  C   UNL     1       4.490   7.235  16.451  0.00  0.00    +0.000 A 
ATOM      4  C   UNL     1       3.989   6.534  17.558  0.00  0.00    +0.000 A 
ATOM      5  C   UNL     1       3.143   7.160  18.479  0.00  0.00    +0.000 A 
ATOM      6  C   UNL     1       2.621   6.465  19.580  0.00  0.00    +0.000 A 
ATOM      7  C   UNL     1       2.953   5.124  19.774  0.00  0.00    +0.000 A 
ATOM      8  C   UNL     1       3.800   4.485  18.855  0.00  0.00    +0.000 A 
ATOM      9  C   UNL     1       4.321   5.174  17.742  0.00  0.00    +0.000 A 
ATOM     10  C   UNL     1       5.147   4.548  16.790  0.00  0.00    +0.000 A 
ENDROOT
BRANCH   6  11
ATOM     11  C   UNL     1       1.637   7.192  20.420  0.00  0.00    +0.000 C 
ATOM     12  O   UNL     1       0.901   6.503  21.125  0.00  0.00    +0.000 OA
ATOM     13  N   UNL     1       1.580   8.574  20.300  0.00  0.00    +0.000 N 
ATOM     14  H   UNL     1       2.083   9.005  19.534  0.00  0.00    +0.000 HD
BRANCH  13  15
ATOM     15  C   UNL     1       0.709   9.404  21.051  0.00  0.00    +0.000 A 
ATOM     16  C   UNL     1       0.552   9.267  22.435  0.00  0.00    +0.000 A 
ATOM     17  C   UNL     1      -0.324  10.083  23.154  0.00  0.00    +0.000 A 
ATOM     18  C   UNL     1      -1.075  11.051  22.491  0.00  0.00    +0.000 A 
ATOM     19  C   UNL     1      -0.904  11.224  21.111  0.00  0.00    +0.000 A 
ATOM     20  C   UNL     1      -0.010  10.410  20.395  0.00  0.00    +0.000 A 
BRANCH  18  21
ATOM     21  C   UNL     1      -2.005  11.947  23.222  0.00  0.00    +0.000 C 
ATOM     22  O   UNL     1      -3.089  11.577  23.634  0.00  0.00    +0.000 OA
BRANCH  21  23
ATOM     23  O   UNL     1      -1.532  13.200  23.413  0.00  0.00    +0.000 OA
ATOM     24  H   UNL     1      -1.868  13.660  24.203  0.00  0.00    +0.000 HD
ENDBRANCH  21  23
ENDBRANCH  18  21
ENDBRANCH  13  15
ENDBRANCH   6  11
BRANCH   1  25
ATOM     25  C   UNL     1       6.493   4.522  14.703  0.00  0.00    +0.000 C 
ATOM     26  O   UNL     1       6.190   3.440  14.226  0.00  0.00    +0.000 OA
BRANCH  25  28
ATOM     27  C   UNL     1       7.966   5.265  13.049  0.00  0.00    +0.000 C 
ATOM     28  O   UNL     1       7.626   5.219  14.434  0.00  0.00    +0.000 OA
ENDBRANCH  25  28
ENDBRANCH   1  25
TORSDOF 6
ENDMDL
MODEL 5
REMARK VINA RESULT:      -7.4      1.273      1.840
REMARK  Name = 
REMARK  7 active torsions:
REMARK  status: ('A' for Active; 'I' for Inactive)
REMARK    1  A    between atoms: C_1  and  O_2
REMARK    2  A    between atoms: O_2  and  C_3
REMARK    3  A    between atoms: C_3  and  C_5
REMARK    4  A    between atoms: C_10  and  C_11
REMARK    5  A    between atoms: N_13  and  C_14
REMARK    6  A    between atoms: C_17  and  C_18
REMARK    7  A    between atoms: C_18  and  O_20
REMARK                            x       y       z     vdW  Elec       q    Type
REMARK                         _______ _______ _______ _____ _____    ______ ____
ROOT
ATOM      1  C   UNL     1      -2.103  12.053  22.096  0.00  0.00    +0.000 A 
ATOM      2  C   UNL     1      -1.433  11.290  23.057  0.00  0.00    +0.000 A 
ATOM      3  C   UNL     1      -0.450  10.382  22.663  0.00  0.00    +0.000 A 
ATOM      4  C   UNL     1      -0.121  10.223  21.309  0.00  0.00    +0.000 A 
ATOM      5  C   UNL     1       0.844   9.292  20.912  0.00  0.00    +0.000 A 
ATOM      6  C   UNL     1       1.170   9.111  19.559  0.00  0.00    +0.000 A 
ATOM      7  C   UNL     1       0.529   9.876  18.583  0.00  0.00    +0.000 A 
ATOM      8  C   UNL     1      -0.442  10.812  18.971  0.00  0.00    +0.000 A 
ATOM      9  C   UNL     1      -0.781  10.993  20.327  0.00  0.00    +0.000 A 
ATOM     10  C   UNL     1      -1.772  11.903  20.738  0.00  0.00    +0.000 A 
ENDROOT
BRANCH   6  11
ATOM     11  C   UNL     1       2.115   8.011  19.244  0.00  0.00    +0.000 C 
ATOM     12  O   UNL     1       2.266   7.152  20.111  0.00  0.00    +0.000 OA
ATOM     13  N   UNL     1       2.795   8.069  18.035  0.00  0.00    +0.000 N 
ATOM     14  H   UNL     1       2.749   8.930  17.506  0.00  0.00    +0.000 HD
BRANCH  13  15
ATOM     15  C   UNL     1       3.711   7.082  17.588  0.00  0.00    +0.000 A 
ATOM     16  C   UNL     1       3.459   5.712  17.721  0.00  0.00    +0.000 A 
ATOM     17  C   UNL     1       4.381   4.755  17.290  0.00  0.00    +0.000 A 
ATOM     18  C   UNL     1       5.589   5.160  16.725  0.00  0.00    +0.000 A 
ATOM     19  C   UNL     1       5.841   6.527  16.553  0.00  0.00    +0.000 A 
ATOM     20  C   UNL     1       4.903   7.484  16.975  0.00  0.00    +0.000 A 
BRANCH  18  21
ATOM     21  C   UNL     1       6.587   4.174  16.240  0.00  0.00    +0.000 C 
ATOM     22  O   UNL     1       7.783   4.296  16.437  0.00  0.00    +0.000 OA
BRANCH  21  23
ATOM     23  O   UNL     1       6.051   3.118  15.588  0.00  0.00    +0.000 OA
ATOM     24  H   UNL     1       5.787   2.367  16.149  0.00  0.00    +0.000 HD
ENDBRANCH  21  23
ENDBRANCH  18  21
ENDBRANCH  13  15
ENDBRANCH   6  11
BRANCH   1  25
ATOM     25  C   UNL     1      -3.176  13.020  22.456  0.00  0.00    +0.000 C 
ATOM     26  O   UNL     1      -2.998  14.226  22.516  0.00  0.00    +0.000 OA
BRANCH  25  28
ATOM     27  C   UNL     1      -5.443  12.842  21.920  0.00  0.00    +0.000 C 
ATOM     28  O   UNL     1      -4.344  12.376  22.703  0.00  0.00    +0.000 OA
ENDBRANCH  25  28
ENDBRANCH   1  25
TORSDOF 6
ENDMDL
MODEL 6
REMARK VINA RESULT:      -7.4      0.848      1.395
REMARK  Name = 
REMARK  7 active torsions:
REMARK  status: ('A' for Active; 'I' for Inactive)
REMARK    1  A    between atoms: C_1  and  O_2
REMARK    2  A    between atoms: O_2  and  C_3
REMARK    3  A    between atoms: C_3  and  C_5
REMARK    4  A    between atoms: C_10  and  C_11
REMARK    5  A    between atoms: N_13  and  C_14
REMARK    6  A    between atoms: C_17  and  C_18
REMARK    7  A    between atoms: C_18  and  O_20
REMARK                            x       y       z     vdW  Elec       q    Type
REMARK                         _______ _______ _______ _____ _____    ______ ____
ROOT
ATOM      1  C   UNL     1      -2.030  12.207  21.701  0.00  0.00    +0.000 A 
ATOM      2  C   UNL     1      -2.118  12.462  20.329  0.00  0.00    +0.000 A 
ATOM      3  C   UNL     1      -1.345  11.723  19.432  0.00  0.00    +0.000 A 
ATOM      4  C   UNL     1      -0.477  10.722  19.890  0.00  0.00    +0.000 A 
ATOM      5  C   UNL     1       0.320  10.001  18.994  0.00  0.00    +0.000 A 
ATOM      6  C   UNL     1       1.206   9.008  19.442  0.00  0.00    +0.000 A 
ATOM      7  C   UNL     1       1.296   8.723  20.804  0.00  0.00    +0.000 A 
ATOM      8  C   UNL     1       0.503   9.441  21.712  0.00  0.00    +0.000 A 
ATOM      9  C   UNL     1      -0.382  10.445  21.271  0.00  0.00    +0.000 A 
ATOM     10  C   UNL     1      -1.166  11.200  22.164  0.00  0.00    +0.000 A 
ENDROOT
BRANCH   6  11
ATOM     11  C   UNL     1       2.090   8.396  18.418  0.00  0.00    +0.000 C 
ATOM     12  O   UNL     1       2.134   8.957  17.324  0.00  0.00    +0.000 OA
ATOM     13  N   UNL     1       2.742   7.217  18.749  0.00  0.00    +0.000 N 
ATOM     14  H   UNL     1       2.459   6.740  19.596  0.00  0.00    +0.000 HD
BRANCH  13  15
ATOM     15  C   UNL     1       3.633   6.529  17.885  0.00  0.00    +0.000 A 
ATOM     16  C   UNL     1       4.688   7.174  17.231  0.00  0.00    +0.000 A 
ATOM     17  C   UNL     1       5.545   6.484  16.370  0.00  0.00    +0.000 A 
ATOM     18  C   UNL     1       5.349   5.124  16.139  0.00  0.00    +0.000 A 
ATOM     19  C   UNL     1       4.318   4.456  16.814  0.00  0.00    +0.000 A 
ATOM     20  C   UNL     1       3.468   5.153  17.689  0.00  0.00    +0.000 A 
BRANCH  18  21
ATOM     21  C   UNL     1       6.246   4.352  15.244  0.00  0.00    +0.000 C 
ATOM     22  O   UNL     1       5.835   3.699  14.302  0.00  0.00    +0.000 OA
BRANCH  21  23
ATOM     23  O   UNL     1       7.559   4.459  15.550  0.00  0.00    +0.000 OA
ATOM     24  H   UNL     1       7.881   3.849  16.238  0.00  0.00    +0.000 HD
ENDBRANCH  21  23
ENDBRANCH  18  21
ENDBRANCH  13  15
ENDBRANCH   6  11
BRANCH   1  25
ATOM     25  C   UNL     1      -2.813  12.979  22.704  0.00  0.00    +0.000 C 
ATOM     26  O   UNL     1      -2.344  13.381  23.756  0.00  0.00    +0.000 OA
BRANCH  25  28
ATOM     27  C   UNL     1      -4.652  14.420  22.649  0.00  0.00    +0.000 C 
ATOM     28  O   UNL     1      -4.091  13.159  22.283  0.00  0.00    +0.000 OA
ENDBRANCH  25  28
ENDBRANCH   1  25
TORSDOF 6
ENDMDL
MODEL 7
REMARK VINA RESULT:      -7.4      3.284      3.922
REMARK  Name = 
REMARK  7 active torsions:
REMARK  status: ('A' for Active; 'I' for Inactive)
REMARK    1  A    between atoms: C_1  and  O_2
REMARK    2  A    between atoms: O_2  and  C_3
REMARK    3  A    between atoms: C_3  and  C_5
REMARK    4  A    between atoms: C_10  and  C_11
REMARK    5  A    between atoms: N_13  and  C_14
REMARK    6  A    between atoms: C_17  and  C_18
REMARK    7  A    between atoms: C_18  and  O_20
REMARK                            x       y       z     vdW  Elec       q    Type
REMARK                         _______ _______ _______ _____ _____    ______ ____
ROOT
ATOM      1  C   UNL     1      -4.318  11.396  17.477  0.00  0.00    +0.000 A 
ATOM      2  C   UNL     1      -4.019  10.491  16.455  0.00  0.00    +0.000 A 
ATOM      3  C   UNL     1      -2.785   9.841  16.440  0.00  0.00    +0.000 A 
ATOM      4  C   UNL     1      -1.834  10.083  17.442  0.00  0.00    +0.000 A 
ATOM      5  C   UNL     1      -0.585   9.453  17.411  0.00  0.00    +0.000 A 
ATOM      6  C   UNL     1       0.381   9.701  18.399  0.00  0.00    +0.000 A 
ATOM      7  C   UNL     1       0.097  10.585  19.440  0.00  0.00    +0.000 A 
ATOM      8  C   UNL     1      -1.151  11.223  19.480  0.00  0.00    +0.000 A 
ATOM      9  C   UNL     1      -2.124  10.987  18.487  0.00  0.00    +0.000 A 
ATOM     10  C   UNL     1      -3.372  11.637  18.489  0.00  0.00    +0.000 A 
ENDROOT
BRANCH   6  11
ATOM     11  C   UNL     1       1.712   9.076  18.197  0.00  0.00    +0.000 C 
ATOM     12  O   UNL     1       2.588   9.792  17.717  0.00  0.00    +0.000 OA
ATOM     13  N   UNL     1       1.847   7.729  18.504  0.00  0.00    +0.000 N 
ATOM     14  H   UNL     1       1.005   7.197  18.686  0.00  0.00    +0.000 HD
BRANCH  13  15
ATOM     15  C   UNL     1       3.059   7.002  18.385  0.00  0.00    +0.000 A 
ATOM     16  C   UNL     1       3.465   6.061  19.338  0.00  0.00    +0.000 A 
ATOM     17  C   UNL     1       4.671   5.368  19.212  0.00  0.00    +0.000 A 
ATOM     18  C   UNL     1       5.505   5.617  18.124  0.00  0.00    +0.000 A 
ATOM     19  C   UNL     1       5.096   6.530  17.142  0.00  0.00    +0.000 A 
ATOM     20  C   UNL     1       3.875   7.214  17.268  0.00  0.00    +0.000 A 
BRANCH  18  21
ATOM     21  C   UNL     1       6.786   4.889  17.946  0.00  0.00    +0.000 C 
ATOM     22  O   UNL     1       7.749   5.064  18.670  0.00  0.00    +0.000 OA
BRANCH  21  23
ATOM     23  O   UNL     1       6.781   3.999  16.928  0.00  0.00    +0.000 OA
ATOM     24  H   UNL     1       7.433   3.278  16.997  0.00  0.00    +0.000 HD
ENDBRANCH  21  23
ENDBRANCH  18  21
ENDBRANCH  13  15
ENDBRANCH   6  11
BRANCH   1  25
ATOM     25  C   UNL     1      -5.610  12.134  17.532  0.00  0.00    +0.000 C 
ATOM     26  O   UNL     1      -5.902  13.031  16.758  0.00  0.00    +0.000 OA
BRANCH  25  28
ATOM     27  C   UNL     1      -7.437  12.563  18.923  0.00  0.00    +0.000 C 
ATOM     28  O   UNL     1      -6.387  11.674  18.545  0.00  0.00    +0.000 OA
ENDBRANCH  25  28
ENDBRANCH   1  25
TORSDOF 6
ENDMDL
MODEL 8
REMARK VINA RESULT:      -7.3      2.268     10.526
REMARK  Name = 
REMARK  7 active torsions:
REMARK  status: ('A' for Active; 'I' for Inactive)
REMARK    1  A    between atoms: C_1  and  O_2
REMARK    2  A    between atoms: O_2  and  C_3
REMARK    3  A    between atoms: C_3  and  C_5
REMARK    4  A    between atoms: C_10  and  C_11
REMARK    5  A    between atoms: N_13  and  C_14
REMARK    6  A    between atoms: C_17  and  C_18
REMARK    7  A    between atoms: C_18  and  O_20
REMARK                            x       y       z     vdW  Elec       q    Type
REMARK                         _______ _______ _______ _____ _____    ______ ____
ROOT
ATOM      1  C   UNL     1       3.396   5.082  18.307  0.00  0.00    +0.000 A 
ATOM      2  C   UNL     1       3.082   4.706  19.617  0.00  0.00    +0.000 A 
ATOM      3  C   UNL     1       2.429   5.605  20.461  0.00  0.00    +0.000 A 
ATOM      4  C   UNL     1       2.079   6.887  20.011  0.00  0.00    +0.000 A 
ATOM      5  C   UNL     1       1.450   7.798  20.866  0.00  0.00    +0.000 A 
ATOM      6  C   UNL     1       1.111   9.089  20.433  0.00  0.00    +0.000 A 
ATOM      7  C   UNL     1       1.396   9.479  19.124  0.00  0.00    +0.000 A 
ATOM      8  C   UNL     1       2.028   8.574  18.259  0.00  0.00    +0.000 A 
ATOM      9  C   UNL     1       2.380   7.278  18.689  0.00  0.00    +0.000 A 
ATOM     10  C   UNL     1       3.041   6.363  17.849  0.00  0.00    +0.000 A 
ENDROOT
BRANCH   6  11
ATOM     11  C   UNL     1       0.562  10.011  21.459  0.00  0.00    +0.000 C 
ATOM     12  O   UNL     1       0.802   9.732  22.633  0.00  0.00    +0.000 OA
ATOM     13  N   UNL     1      -0.223  11.070  21.024  0.00  0.00    +0.000 N 
ATOM     14  H   UNL     1      -0.526  11.070  20.058  0.00  0.00    +0.000 HD
BRANCH  13  15
ATOM     15  C   UNL     1      -0.796  12.043  21.882  0.00  0.00    +0.000 A 
ATOM     16  C   UNL     1      -0.236  13.313  22.054  0.00  0.00    +0.000 A 
ATOM     17  C   UNL     1      -0.805  14.252  22.918  0.00  0.00    +0.000 A 
ATOM     18  C   UNL     1      -1.951  13.925  23.640  0.00  0.00    +0.000 A 
ATOM     19  C   UNL     1      -2.544  12.670  23.453  0.00  0.00    +0.000 A 
ATOM     20  C   UNL     1      -1.975  11.735  22.573  0.00  0.00    +0.000 A 
BRANCH  18  21
ATOM     21  C   UNL     1      -2.595  14.900  24.556  0.00  0.00    +0.000 C 
ATOM     22  O   UNL     1      -2.442  16.103  24.450  0.00  0.00    +0.000 OA
BRANCH  21  23
ATOM     23  O   UNL     1      -3.385  14.337  25.497  0.00  0.00    +0.000 OA
ATOM     24  H   UNL     1      -3.021  13.546  25.934  0.00  0.00    +0.000 HD
ENDBRANCH  21  23
ENDBRANCH  18  21
ENDBRANCH  13  15
ENDBRANCH   6  11
BRANCH   1  25
ATOM     25  C   UNL     1       4.111   4.173  17.371  0.00  0.00    +0.000 C 
ATOM     26  O   UNL     1       3.987   2.959  17.388  0.00  0.00    +0.000 OA
BRANCH  25  28
ATOM     27  C   UNL     1       6.299   4.679  16.726  0.00  0.00    +0.000 C 
ATOM     28  O   UNL     1       4.901   4.878  16.522  0.00  0.00    +0.000 OA
ENDBRANCH  25  28
ENDBRANCH   1  25
TORSDOF 6
ENDMDL
MODEL 9
REMARK VINA RESULT:      -7.3      2.297     10.584
REMARK  Name = 
REMARK  7 active torsions:
REMARK  status: ('A' for Active; 'I' for Inactive)
REMARK    1  A    between atoms: C_1  and  O_2
REMARK    2  A    between atoms: O_2  and  C_3
REMARK    3  A    between atoms: C_3  and  C_5
REMARK    4  A    between atoms: C_10  and  C_11
REMARK    5  A    between atoms: N_13  and  C_14
REMARK    6  A    between atoms: C_17  and  C_18
REMARK    7  A    between atoms: C_18  and  O_20
REMARK                            x       y       z     vdW  Elec       q    Type
REMARK                         _______ _______ _______ _____ _____    ______ ____
ROOT
ATOM      1  C   UNL     1       3.332   5.533  18.232  0.00  0.00    +0.000 A 
ATOM      2  C   UNL     1       3.018   5.088  19.520  0.00  0.00    +0.000 A 
ATOM      3  C   UNL     1       2.332   5.927  20.399  0.00  0.00    +0.000 A 
ATOM      4  C   UNL     1       1.948   7.217  20.006  0.00  0.00    +0.000 A 
ATOM      5  C   UNL     1       1.285   8.069  20.896  0.00  0.00    +0.000 A 
ATOM      6  C   UNL     1       0.911   9.368  20.521  0.00  0.00    +0.000 A 
ATOM      7  C   UNL     1       1.195   9.827  19.234  0.00  0.00    +0.000 A 
ATOM      8  C   UNL     1       1.861   8.982  18.334  0.00  0.00    +0.000 A 
ATOM      9  C   UNL     1       2.248   7.679  18.706  0.00  0.00    +0.000 A 
ATOM     10  C   UNL     1       2.943   6.823  17.831  0.00  0.00    +0.000 A 
ENDROOT
BRANCH   6  11
ATOM     11  C   UNL     1       0.327  10.225  21.583  0.00  0.00    +0.000 C 
ATOM     12  O   UNL     1       0.580   9.908  22.745  0.00  0.00    +0.000 OA
ATOM     13  N   UNL     1      -0.502  11.266  21.191  0.00  0.00    +0.000 N 
ATOM     14  H   UNL     1      -0.807  11.293  20.226  0.00  0.00    +0.000 HD
BRANCH  13  15
ATOM     15  C   UNL     1      -1.114  12.179  22.089  0.00  0.00    +0.000 A 
ATOM     16  C   UNL     1      -2.336  11.910  22.713  0.00  0.00    +0.000 A 
ATOM     17  C   UNL     1      -2.932  12.829  23.580  0.00  0.00    +0.000 A 
ATOM     18  C   UNL     1      -2.311  14.051  23.829  0.00  0.00    +0.000 A 
ATOM     19  C   UNL     1      -1.069  14.322  23.239  0.00  0.00    +0.000 A 
ATOM     20  C   UNL     1      -0.469  13.387  22.378  0.00  0.00    +0.000 A 
BRANCH  18  21
ATOM     21  C   UNL     1      -2.903  15.048  24.756  0.00  0.00    +0.000 C 
ATOM     22  O   UNL     1      -3.037  16.222  24.463  0.00  0.00    +0.000 OA
BRANCH  21  23
ATOM     23  O   UNL     1      -3.304  14.533  25.940  0.00  0.00    +0.000 OA
ATOM     24  H   UNL     1      -3.106  15.077  26.724  0.00  0.00    +0.000 HD
ENDBRANCH  21  23
ENDBRANCH  18  21
ENDBRANCH  13  15
ENDBRANCH   6  11
BRANCH   1  25
ATOM     25  C   UNL     1       4.081   4.691  17.261  0.00  0.00    +0.000 C 
ATOM     26  O   UNL     1       3.913   3.487  17.148  0.00  0.00    +0.000 OA
BRANCH  25  28
ATOM     27  C   UNL     1       5.376   4.837  15.322  0.00  0.00    +0.000 C 
ATOM     28  O   UNL     1       4.956   5.442  16.544  0.00  0.00    +0.000 OA
ENDBRANCH  25  28
ENDBRANCH   1  25
TORSDOF 6
ENDMDL
