MODEL 1
REMARK VINA RESULT:      -6.0      0.000      0.000
REMARK  Name = 
REMARK  7 active torsions:
REMARK  status: ('A' for Active; 'I' for Inactive)
REMARK    1  A    between atoms: C_1  and  N_2
REMARK    2  A    between atoms: N_2  and  C_3
REMARK    3  A    between atoms: N_2  and  C_4
REMARK    4  A    between atoms: C_4  and  C_5
REMARK    5  A    between atoms: N_10  and  C_11
REMARK    6  A    between atoms: C_11  and  C_12
REMARK    7  A    between atoms: C_14  and  C_15
REMARK                            x       y       z     vdW  Elec       q    Type
REMARK                         _______ _______ _______ _____ _____    ______ ____
ROOT
ATOM      1  C   UNL     1       3.038   5.373  18.903  0.00  0.00    +0.000 A 
ATOM      2  C   UNL     1       3.026   6.695  18.469  0.00  0.00    +0.000 A 
ATOM      3  C   UNL     1       3.905   7.062  17.464  0.00  0.00    +0.000 A 
ATOM      4  N   UNL     1       4.803   6.222  16.895  0.00  0.00    +0.000 NA
ATOM      5  C   UNL     1       4.810   4.945  17.316  0.00  0.00    +0.000 A 
ATOM      6  N   UNL     1       5.746   4.029  16.828  0.00  0.00    +0.000 N 
ATOM      7  C   UNL     1       3.930   4.487  18.292  0.00  0.00    +0.000 A 
ATOM      8  H   UNL     1       5.273   3.273  16.344  0.00  0.00    +0.000 HD
ENDROOT
BRANCH   1   9
ATOM      9  C   UNL     1       2.147   4.897  20.026  0.00  0.00    +0.000 C 
BRANCH   9  11
ATOM     10  C   UNL     1       2.204   3.036  21.588  0.00  0.00    +0.000 C 
ATOM     11  N   UNL     1       2.117   3.433  20.180  0.00  0.00    +0.000 NA
ATOM     12  C   UNL     1       0.878   2.907  19.599  0.00  0.00    +0.000 C 
ENDBRANCH   9  11
ENDBRANCH   1   9
BRANCH   6  13
ATOM     13  C   UNL     1       6.847   4.581  16.056  0.00  0.00    +0.000 C 
BRANCH  13  14
ATOM     14  C   UNL     1       6.625   4.345  14.584  0.00  0.00    +0.000 A 
ATOM     15  C   UNL     1       5.505   3.803  13.979  0.00  0.00    +0.000 A 
ATOM     16  C   UNL     1       5.614   3.766  12.559  0.00  0.00    +0.000 A 
ATOM     17  C   UNL     1       6.814   4.290  12.125  0.00  0.00    +0.000 A 
ATOM     18  S   UNL     1       7.794   4.820  13.427  0.00  0.00    +0.000 S 
BRANCH  16  19
ATOM     19  C   UNL     1       4.612   3.260  11.667  0.00  0.00    +0.000 C 
ATOM     20  N   UNL     1       3.802   2.854  10.946  0.00  0.00    +0.000 NA
ENDBRANCH  16  19
ENDBRANCH  13  14
ENDBRANCH   6  13
TORSDOF 5
ENDMDL
MODEL 2
REMARK VINA RESULT:      -5.8      2.257      7.347
REMARK  Name = 
REMARK  7 active torsions:
REMARK  status: ('A' for Active; 'I' for Inactive)
REMARK    1  A    between atoms: C_1  and  N_2
REMARK    2  A    between atoms: N_2  and  C_3
REMARK    3  A    between atoms: N_2  and  C_4
REMARK    4  A    between atoms: C_4  and  C_5
REMARK    5  A    between atoms: N_10  and  C_11
REMARK    6  A    between atoms: C_11  and  C_12
REMARK    7  A    between atoms: C_14  and  C_15
REMARK                            x       y       z     vdW  Elec       q    Type
REMARK                         _______ _______ _______ _____ _____    ______ ____
ROOT
ATOM      1  C   UNL     1       6.623   4.082  13.376  0.00  0.00    +0.000 A 
ATOM      2  C   UNL     1       7.572   5.065  13.641  0.00  0.00    +0.000 A 
ATOM      3  C   UNL     1       7.749   5.467  14.954  0.00  0.00    +0.000 A 
ATOM      4  N   UNL     1       7.033   4.986  16.000  0.00  0.00    +0.000 NA
ATOM      5  C   UNL     1       6.120   4.033  15.740  0.00  0.00    +0.000 A 
ATOM      6  N   UNL     1       5.295   3.529  16.749  0.00  0.00    +0.000 N 
ATOM      7  C   UNL     1       5.911   3.546  14.453  0.00  0.00    +0.000 A 
ATOM      8  H   UNL     1       5.464   2.536  16.872  0.00  0.00    +0.000 HD
ENDROOT
BRANCH   1   9
ATOM      9  C   UNL     1       6.332   3.618  11.969  0.00  0.00    +0.000 C 
BRANCH   9  11
ATOM     10  C   UNL     1       4.109   3.069  11.155  0.00  0.00    +0.000 C 
ATOM     11  N   UNL     1       5.283   2.588  11.888  0.00  0.00    +0.000 NA
ATOM     12  C   UNL     1       5.820   1.395  11.224  0.00  0.00    +0.000 C 
ENDBRANCH   9  11
ENDBRANCH   1   9
BRANCH   6  13
ATOM     13  C   UNL     1       5.299   4.254  18.008  0.00  0.00    +0.000 C 
BRANCH  13  14
ATOM     14  C   UNL     1       3.963   4.122  18.693  0.00  0.00    +0.000 A 
ATOM     15  C   UNL     1       3.669   3.384  19.827  0.00  0.00    +0.000 A 
ATOM     16  C   UNL     1       2.310   3.519  20.230  0.00  0.00    +0.000 A 
ATOM     17  C   UNL     1       1.611   4.364  19.394  0.00  0.00    +0.000 A 
ATOM     18  S   UNL     1       2.594   4.985  18.136  0.00  0.00    +0.000 S 
BRANCH  16  19
ATOM     19  C   UNL     1       1.718   2.874  21.366  0.00  0.00    +0.000 C 
ATOM     20  N   UNL     1       1.242   2.356  22.285  0.00  0.00    +0.000 NA
ENDBRANCH  16  19
ENDBRANCH  13  14
ENDBRANCH   6  13
TORSDOF 5
ENDMDL
MODEL 3
REMARK VINA RESULT:      -5.8      4.261      8.306
REMARK  Name = 
REMARK  7 active torsions:
REMARK  status: ('A' for Active; 'I' for Inactive)
REMARK    1  A    between atoms: C_1  and  N_2
REMARK    2  A    between atoms: N_2  and  C_3
REMARK    3  A    between atoms: N_2  and  C_4
REMARK    4  A    between atoms: C_4  and  C_5
REMARK    5  A    between atoms: N_10  and  C_11
REMARK    6  A    between atoms: C_11  and  C_12
REMARK    7  A    between atoms: C_14  and  C_15
REMARK                            x       y       z     vdW  Elec       q    Type
REMARK                         _______ _______ _______ _____ _____    ______ ____
ROOT
ATOM      1  C   UNL     1       4.046   4.155  17.286  0.00  0.00    +0.000 A 
ATOM      2  C   UNL     1       2.886   3.400  17.134  0.00  0.00    +0.000 A 
ATOM      3  C   UNL     1       1.756   3.789  17.832  0.00  0.00    +0.000 A 
ATOM      4  N   UNL     1       1.712   4.844  18.681  0.00  0.00    +0.000 NA
ATOM      5  C   UNL     1       2.833   5.573  18.823  0.00  0.00    +0.000 A 
ATOM      6  N   UNL     1       2.893   6.638  19.726  0.00  0.00    +0.000 N 
ATOM      7  C   UNL     1       4.000   5.272  18.126  0.00  0.00    +0.000 A 
ATOM      8  H   UNL     1       3.069   7.505  19.230  0.00  0.00    +0.000 HD
ENDROOT
BRANCH   1   9
ATOM      9  C   UNL     1       5.338   3.776  16.601  0.00  0.00    +0.000 C 
BRANCH   9  11
ATOM     10  C   UNL     1       7.461   4.604  17.441  0.00  0.00    +0.000 C 
ATOM     11  N   UNL     1       6.327   4.865  16.553  0.00  0.00    +0.000 NA
ATOM     12  C   UNL     1       6.809   5.025  15.177  0.00  0.00    +0.000 C 
ENDBRANCH   9  11
ENDBRANCH   1   9
BRANCH   6  13
ATOM     13  C   UNL     1       1.791   6.749  20.667  0.00  0.00    +0.000 C 
BRANCH  13  14
ATOM     14  C   UNL     1       1.246   8.154  20.673  0.00  0.00    +0.000 A 
ATOM     15  C   UNL     1       0.685   8.834  21.740  0.00  0.00    +0.000 A 
ATOM     16  C   UNL     1       0.315  10.167  21.405  0.00  0.00    +0.000 A 
ATOM     17  C   UNL     1       0.613  10.466  20.093  0.00  0.00    +0.000 A 
ATOM     18  S   UNL     1       1.334   9.143  19.279  0.00  0.00    +0.000 S 
BRANCH  16  19
ATOM     19  C   UNL     1      -0.288  11.107  22.306  0.00  0.00    +0.000 C 
ATOM     20  N   UNL     1      -0.771  11.868  23.032  0.00  0.00    +0.000 NA
ENDBRANCH  16  19
ENDBRANCH  13  14
ENDBRANCH   6  13
TORSDOF 5
ENDMDL
MODEL 4
REMARK VINA RESULT:      -5.7      2.712      4.631
REMARK  Name = 
REMARK  7 active torsions:
REMARK  status: ('A' for Active; 'I' for Inactive)
REMARK    1  A    between atoms: C_1  and  N_2
REMARK    2  A    between atoms: N_2  and  C_3
REMARK    3  A    between atoms: N_2  and  C_4
REMARK    4  A    between atoms: C_4  and  C_5
REMARK    5  A    between atoms: N_10  and  C_11
REMARK    6  A    between atoms: C_11  and  C_12
REMARK    7  A    between atoms: C_14  and  C_15
REMARK                            x       y       z     vdW  Elec       q    Type
REMARK                         _______ _______ _______ _____ _____    ______ ____
ROOT
ATOM      1  C   UNL     1       2.265   5.441  19.223  0.00  0.00    +0.000 A 
ATOM      2  C   UNL     1       2.179   6.826  19.114  0.00  0.00    +0.000 A 
ATOM      3  C   UNL     1       2.955   7.456  18.156  0.00  0.00    +0.000 A 
ATOM      4  N   UNL     1       3.819   6.814  17.334  0.00  0.00    +0.000 NA
ATOM      5  C   UNL     1       3.897   5.475  17.440  0.00  0.00    +0.000 A 
ATOM      6  N   UNL     1       4.808   4.742  16.675  0.00  0.00    +0.000 N 
ATOM      7  C   UNL     1       3.120   4.763  18.349  0.00  0.00    +0.000 A 
ATOM      8  H   UNL     1       4.312   4.098  16.067  0.00  0.00    +0.000 HD
ENDROOT
BRANCH   1   9
ATOM      9  C   UNL     1       1.491   4.676  20.270  0.00  0.00    +0.000 C 
BRANCH   9  11
ATOM     10  C   UNL     1       1.679   2.632  21.570  0.00  0.00    +0.000 C 
ATOM     11  N   UNL     1       1.714   3.221  20.229  0.00  0.00    +0.000 NA
ATOM     12  C   UNL     1       0.685   2.595  19.392  0.00  0.00    +0.000 C 
ENDBRANCH   9  11
ENDBRANCH   1   9
BRANCH   6  13
ATOM     13  C   UNL     1       5.821   5.508  15.968  0.00  0.00    +0.000 C 
BRANCH  13  14
ATOM     14  C   UNL     1       6.750   6.177  16.947  0.00  0.00    +0.000 A 
ATOM     15  C   UNL     1       7.119   7.511  16.978  0.00  0.00    +0.000 A 
ATOM     16  C   UNL     1       7.982   7.814  18.069  0.00  0.00    +0.000 A 
ATOM     17  C   UNL     1       8.238   6.701  18.843  0.00  0.00    +0.000 A 
ATOM     18  S   UNL     1       7.439   5.307  18.249  0.00  0.00    +0.000 S 
BRANCH  16  19
ATOM     19  C   UNL     1       8.525   9.110  18.357  0.00  0.00    +0.000 C 
ATOM     20  N   UNL     1       8.963  10.156  18.592  0.00  0.00    +0.000 NA
ENDBRANCH  16  19
ENDBRANCH  13  14
ENDBRANCH   6  13
TORSDOF 5
ENDMDL
MODEL 5
REMARK VINA RESULT:      -5.7      3.817      5.140
REMARK  Name = 
REMARK  7 active torsions:
REMARK  status: ('A' for Active; 'I' for Inactive)
REMARK    1  A    between atoms: C_1  and  N_2
REMARK    2  A    between atoms: N_2  and  C_3
REMARK    3  A    between atoms: N_2  and  C_4
REMARK    4  A    between atoms: C_4  and  C_5
REMARK    5  A    between atoms: N_10  and  C_11
REMARK    6  A    between atoms: C_11  and  C_12
REMARK    7  A    between atoms: C_14  and  C_15
REMARK                            x       y       z     vdW  Elec       q    Type
REMARK                         _______ _______ _______ _____ _____    ______ ____
ROOT
ATOM      1  C   UNL     1       1.004   9.513  19.112  0.00  0.00    +0.000 A 
ATOM      2  C   UNL     1       0.832   9.054  20.415  0.00  0.00    +0.000 A 
ATOM      3  C   UNL     1       1.525   7.921  20.807  0.00  0.00    +0.000 A 
ATOM      4  N   UNL     1       2.339   7.208  19.992  0.00  0.00    +0.000 NA
ATOM      5  C   UNL     1       2.505   7.656  18.734  0.00  0.00    +0.000 A 
ATOM      6  N   UNL     1       3.276   6.946  17.810  0.00  0.00    +0.000 N 
ATOM      7  C   UNL     1       1.876   8.810  18.276  0.00  0.00    +0.000 A 
ATOM      8  H   UNL     1       4.066   7.509  17.511  0.00  0.00    +0.000 HD
ENDROOT
BRANCH   1   9
ATOM      9  C   UNL     1       0.251  10.712  18.586  0.00  0.00    +0.000 C 
BRANCH   9  11
ATOM     10  C   UNL     1      -1.370  12.049  19.805  0.00  0.00    +0.000 C 
ATOM     11  N   UNL     1      -1.136  10.803  19.072  0.00  0.00    +0.000 NA
ATOM     12  C   UNL     1      -2.057  10.724  17.933  0.00  0.00    +0.000 C 
ENDBRANCH   9  11
ENDBRANCH   1   9
BRANCH   6  13
ATOM     13  C   UNL     1       3.666   5.600  18.194  0.00  0.00    +0.000 C 
BRANCH  13  14
ATOM     14  C   UNL     1       4.795   5.113  17.323  0.00  0.00    +0.000 A 
ATOM     15  C   UNL     1       4.741   4.792  15.978  0.00  0.00    +0.000 A 
ATOM     16  C   UNL     1       6.009   4.407  15.456  0.00  0.00    +0.000 A 
ATOM     17  C   UNL     1       6.994   4.453  16.420  0.00  0.00    +0.000 A 
ATOM     18  S   UNL     1       6.385   4.960  17.939  0.00  0.00    +0.000 S 
BRANCH  16  19
ATOM     19  C   UNL     1       6.260   4.021  14.098  0.00  0.00    +0.000 C 
ATOM     20  N   UNL     1       6.460   3.712  13.000  0.00  0.00    +0.000 NA
ENDBRANCH  16  19
ENDBRANCH  13  14
ENDBRANCH   6  13
TORSDOF 5
ENDMDL
MODEL 6
REMARK VINA RESULT:      -5.7      2.868      7.301
REMARK  Name = 
REMARK  7 active torsions:
REMARK  status: ('A' for Active; 'I' for Inactive)
REMARK    1  A    between atoms: C_1  and  N_2
REMARK    2  A    between atoms: N_2  and  C_3
REMARK    3  A    between atoms: N_2  and  C_4
REMARK    4  A    between atoms: C_4  and  C_5
REMARK    5  A    between atoms: N_10  and  C_11
REMARK    6  A    between atoms: C_11  and  C_12
REMARK    7  A    between atoms: C_14  and  C_15
REMARK                            x       y       z     vdW  Elec       q    Type
REMARK                         _______ _______ _______ _____ _____    ______ ____
ROOT
ATOM      1  C   UNL     1       6.127   4.695  15.398  0.00  0.00    +0.000 A 
ATOM      2  C   UNL     1       7.116   5.315  16.156  0.00  0.00    +0.000 A 
ATOM      3  C   UNL     1       7.175   5.036  17.511  0.00  0.00    +0.000 A 
ATOM      4  N   UNL     1       6.309   4.217  18.157  0.00  0.00    +0.000 NA
ATOM      5  C   UNL     1       5.357   3.617  17.421  0.00  0.00    +0.000 A 
ATOM      6  N   UNL     1       4.385   2.809  18.017  0.00  0.00    +0.000 N 
ATOM      7  C   UNL     1       5.256   3.814  16.046  0.00  0.00    +0.000 A 
ATOM      8  H   UNL     1       4.458   1.860  17.664  0.00  0.00    +0.000 HD
ENDROOT
BRANCH   1   9
ATOM      9  C   UNL     1       5.960   4.978  13.924  0.00  0.00    +0.000 C 
BRANCH   9  11
ATOM     10  C   UNL     1       5.246   3.295  12.325  0.00  0.00    +0.000 C 
ATOM     11  N   UNL     1       6.380   3.867  13.055  0.00  0.00    +0.000 NA
ATOM     12  C   UNL     1       7.385   4.347  12.101  0.00  0.00    +0.000 C 
ENDBRANCH   9  11
ENDBRANCH   1   9
BRANCH   6  13
ATOM     13  C   UNL     1       4.305   2.859  19.467  0.00  0.00    +0.000 C 
BRANCH  13  14
ATOM     14  C   UNL     1       3.164   3.744  19.899  0.00  0.00    +0.000 A 
ATOM     15  C   UNL     1       3.178   5.120  20.051  0.00  0.00    +0.000 A 
ATOM     16  C   UNL     1       1.908   5.641  20.431  0.00  0.00    +0.000 A 
ATOM     17  C   UNL     1       0.962   4.645  20.549  0.00  0.00    +0.000 A 
ATOM     18  S   UNL     1       1.609   3.097  20.202  0.00  0.00    +0.000 S 
BRANCH  16  19
ATOM     19  C   UNL     1       1.620   7.027  20.661  0.00  0.00    +0.000 C 
ATOM     20  N   UNL     1       1.384   8.145  20.843  0.00  0.00    +0.000 NA
ENDBRANCH  16  19
ENDBRANCH  13  14
ENDBRANCH   6  13
TORSDOF 5
ENDMDL
MODEL 7
REMARK VINA RESULT:      -5.6      4.730      7.417
REMARK  Name = 
REMARK  7 active torsions:
REMARK  status: ('A' for Active; 'I' for Inactive)
REMARK    1  A    between atoms: C_1  and  N_2
REMARK    2  A    between atoms: N_2  and  C_3
REMARK    3  A    between atoms: N_2  and  C_4
REMARK    4  A    between atoms: C_4  and  C_5
REMARK    5  A    between atoms: N_10  and  C_11
REMARK    6  A    between atoms: C_11  and  C_12
REMARK    7  A    between atoms: C_14  and  C_15
REMARK                            x       y       z     vdW  Elec       q    Type
REMARK                         _______ _______ _______ _____ _____    ______ ____
ROOT
ATOM      1  C   UNL     1       3.668   4.738  17.678  0.00  0.00    +0.000 A 
ATOM      2  C   UNL     1       4.688   5.198  16.850  0.00  0.00    +0.000 A 
ATOM      3  C   UNL     1       4.822   6.564  16.673  0.00  0.00    +0.000 A 
ATOM      4  N   UNL     1       4.002   7.488  17.232  0.00  0.00    +0.000 NA
ATOM      5  C   UNL     1       3.020   7.040  18.034  0.00  0.00    +0.000 A 
ATOM      6  N   UNL     1       2.092   7.919  18.599  0.00  0.00    +0.000 N 
ATOM      7  C   UNL     1       2.844   5.684  18.295  0.00  0.00    +0.000 A 
ATOM      8  H   UNL     1       2.158   7.891  19.611  0.00  0.00    +0.000 HD
ENDROOT
BRANCH   1   9
ATOM      9  C   UNL     1       3.419   3.264  17.890  0.00  0.00    +0.000 C 
BRANCH   9  11
ATOM     10  C   UNL     1       1.784   2.015  19.182  0.00  0.00    +0.000 C 
ATOM     11  N   UNL     1       2.925   2.932  19.236  0.00  0.00    +0.000 NA
ATOM     12  C   UNL     1       4.007   2.321  20.016  0.00  0.00    +0.000 C 
ENDBRANCH   9  11
ENDBRANCH   1   9
BRANCH   6  13
ATOM     13  C   UNL     1       2.088   9.276  18.079  0.00  0.00    +0.000 C 
BRANCH  13  14
ATOM     14  C   UNL     1       0.806   9.976  18.450  0.00  0.00    +0.000 A 
ATOM     15  C   UNL     1      -0.428   9.851  17.836  0.00  0.00    +0.000 A 
ATOM     16  C   UNL     1      -1.437  10.627  18.475  0.00  0.00    +0.000 A 
ATOM     17  C   UNL     1      -0.941  11.314  19.563  0.00  0.00    +0.000 A 
ATOM     18  S   UNL     1       0.729  11.019  19.805  0.00  0.00    +0.000 S 
BRANCH  16  19
ATOM     19  C   UNL     1      -2.809  10.697  18.064  0.00  0.00    +0.000 C 
ATOM     20  N   UNL     1      -3.916  10.750  17.729  0.00  0.00    +0.000 NA
ENDBRANCH  16  19
ENDBRANCH  13  14
ENDBRANCH   6  13
TORSDOF 5
ENDMDL
MODEL 8
REMARK VINA RESULT:      -5.6      2.764      6.966
REMARK  Name = 
REMARK  7 active torsions:
REMARK  status: ('A' for Active; 'I' for Inactive)
REMARK    1  A    between atoms: C_1  and  N_2
REMARK    2  A    between atoms: N_2  and  C_3
REMARK    3  A    between atoms: N_2  and  C_4
REMARK    4  A    between atoms: C_4  and  C_5
REMARK    5  A    between atoms: N_10  and  C_11
REMARK    6  A    between atoms: C_11  and  C_12
REMARK    7  A    between atoms: C_14  and  C_15
REMARK                            x       y       z     vdW  Elec       q    Type
REMARK                         _______ _______ _______ _____ _____    ______ ____
ROOT
ATOM      1  C   UNL     1       6.316   4.465  15.200  0.00  0.00    +0.000 A 
ATOM      2  C   UNL     1       7.340   4.709  16.112  0.00  0.00    +0.000 A 
ATOM      3  C   UNL     1       7.066   4.555  17.460  0.00  0.00    +0.000 A 
ATOM      4  N   UNL     1       5.853   4.211  17.955  0.00  0.00    +0.000 NA
ATOM      5  C   UNL     1       4.868   3.973  17.072  0.00  0.00    +0.000 A 
ATOM      6  N   UNL     1       3.571   3.676  17.499  0.00  0.00    +0.000 N 
ATOM      7  C   UNL     1       5.073   4.066  15.698  0.00  0.00    +0.000 A 
ATOM      8  H   UNL     1       3.305   2.748  17.185  0.00  0.00    +0.000 HD
ENDROOT
BRANCH   1   9
ATOM      9  C   UNL     1       6.513   4.654  13.715  0.00  0.00    +0.000 C 
BRANCH   9  11
ATOM     10  C   UNL     1       4.874   3.560  12.293  0.00  0.00    +0.000 C 
ATOM     11  N   UNL     1       6.196   3.457  12.917  0.00  0.00    +0.000 NA
ATOM     12  C   UNL     1       7.215   3.281  11.878  0.00  0.00    +0.000 C 
ENDBRANCH   9  11
ENDBRANCH   1   9
BRANCH   6  13
ATOM     13  C   UNL     1       3.291   3.887  18.910  0.00  0.00    +0.000 C 
BRANCH  13  14
ATOM     14  C   UNL     1       2.805   5.295  19.143  0.00  0.00    +0.000 A 
ATOM     15  C   UNL     1       2.831   6.352  18.249  0.00  0.00    +0.000 A 
ATOM     16  C   UNL     1       2.247   7.535  18.786  0.00  0.00    +0.000 A 
ATOM     17  C   UNL     1       1.787   7.340  20.071  0.00  0.00    +0.000 A 
ATOM     18  S   UNL     1       2.061   5.740  20.618  0.00  0.00    +0.000 S 
BRANCH  16  19
ATOM     19  C   UNL     1       2.132   8.785  18.093  0.00  0.00    +0.000 C 
ATOM     20  N   UNL     1       2.036   9.794  17.533  0.00  0.00    +0.000 NA
ENDBRANCH  16  19
ENDBRANCH  13  14
ENDBRANCH   6  13
TORSDOF 5
ENDMDL
MODEL 9
REMARK VINA RESULT:      -5.6      2.467      3.680
REMARK  Name = 
REMARK  7 active torsions:
REMARK  status: ('A' for Active; 'I' for Inactive)
REMARK    1  A    between atoms: C_1  and  N_2
REMARK    2  A    between atoms: N_2  and  C_3
REMARK    3  A    between atoms: N_2  and  C_4
REMARK    4  A    between atoms: C_4  and  C_5
REMARK    5  A    between atoms: N_10  and  C_11
REMARK    6  A    between atoms: C_11  and  C_12
REMARK    7  A    between atoms: C_14  and  C_15
REMARK                            x       y       z     vdW  Elec       q    Type
REMARK                         _______ _______ _______ _____ _____    ______ ____
ROOT
ATOM      1  C   UNL     1       1.685   5.858  20.530  0.00  0.00    +0.000 A 
ATOM      2  C   UNL     1       1.185   4.559  20.509  0.00  0.00    +0.000 A 
ATOM      3  C   UNL     1       2.019   3.544  20.071  0.00  0.00    +0.000 A 
ATOM      4  N   UNL     1       3.285   3.737  19.629  0.00  0.00    +0.000 NA
ATOM      5  C   UNL     1       3.765   4.994  19.653  0.00  0.00    +0.000 A 
ATOM      6  N   UNL     1       5.037   5.290  19.156  0.00  0.00    +0.000 N 
ATOM      7  C   UNL     1       3.005   6.063  20.117  0.00  0.00    +0.000 A 
ATOM      8  H   UNL     1       5.624   5.657  19.899  0.00  0.00    +0.000 HD
ENDROOT
BRANCH   1   9
ATOM      9  C   UNL     1       0.830   7.032  20.947  0.00  0.00    +0.000 C 
BRANCH   9  11
ATOM     10  C   UNL     1       1.071   9.151  19.783  0.00  0.00    +0.000 C 
ATOM     11  N   UNL     1       1.534   8.324  20.901  0.00  0.00    +0.000 NA
ATOM     12  C   UNL     1       1.319   9.041  22.162  0.00  0.00    +0.000 C 
ENDBRANCH   9  11
ENDBRANCH   1   9
BRANCH   6  13
ATOM     13  C   UNL     1       5.693   4.241  18.394  0.00  0.00    +0.000 C 
BRANCH  13  14
ATOM     14  C   UNL     1       5.718   4.594  16.929  0.00  0.00    +0.000 A 
ATOM     15  C   UNL     1       5.998   3.753  15.866  0.00  0.00    +0.000 A 
ATOM     16  C   UNL     1       5.888   4.408  14.607  0.00  0.00    +0.000 A 
ATOM     17  C   UNL     1       5.520   5.730  14.748  0.00  0.00    +0.000 A 
ATOM     18  S   UNL     1       5.309   6.167  16.391  0.00  0.00    +0.000 S 
BRANCH  16  19
ATOM     19  C   UNL     1       6.119   3.792  13.333  0.00  0.00    +0.000 C 
ATOM     20  N   UNL     1       6.306   3.297  12.303  0.00  0.00    +0.000 NA
ENDBRANCH  16  19
ENDBRANCH  13  14
ENDBRANCH   6  13
TORSDOF 5
ENDMDL
