MODEL 1
REMARK VINA RESULT:      -8.0      0.000      0.000
REMARK  Name = 
REMARK  3 active torsions:
REMARK  status: ('A' for Active; 'I' for Inactive)
REMARK    1  A    between atoms: C_1  and  O_2
REMARK    2  A    between atoms: O_2  and  C_3
REMARK    3  A    between atoms: C_9  and  C_10
REMARK                            x       y       z     vdW  Elec       q    Type
REMARK                         _______ _______ _______ _____ _____    ______ ____
ROOT
ATOM      1  C   UNL     1       3.447   3.085  19.936  0.00  0.00    +0.000 A 
ATOM      2  C   UNL     1       2.744   2.739  21.092  0.00  0.00    +0.000 A 
ATOM      3  C   UNL     1       1.892   3.669  21.667  0.00  0.00    +0.000 A 
ATOM      4  N   UNL     1       1.674   4.923  21.221  0.00  0.00    +0.000 NA
ATOM      5  C   UNL     1       2.400   5.238  20.121  0.00  0.00    +0.000 A 
ATOM      6  C   UNL     1       3.272   4.395  19.426  0.00  0.00    +0.000 A 
ATOM      7  C   UNL     1       3.777   5.144  18.304  0.00  0.00    +0.000 A 
ATOM      8  C   UNL     1       3.213   6.410  18.374  0.00  0.00    +0.000 A 
ATOM      9  C   UNL     1       3.304   7.612  17.626  0.00  0.00    +0.000 A 
ATOM     10  C   UNL     1       2.608   8.682  18.037  0.00  0.00    +0.000 A 
ATOM     11  N   UNL     1       1.815   8.737  19.157  0.00  0.00    +0.000 NA
ATOM     12  C   UNL     1       1.743   7.658  19.892  0.00  0.00    +0.000 A 
ATOM     13  N   UNL     1       1.016   7.685  21.046  0.00  0.00    +0.000 N 
ATOM     14  N   UNL     1       2.411   6.473  19.500  0.00  0.00    +0.000 N 
ATOM     15  H   UNL     1       0.348   8.436  21.122  0.00  0.00    +0.000 HD
ATOM     16  H   UNL     1       0.742   6.782  21.435  0.00  0.00    +0.000 HD
ENDROOT
BRANCH   7  17
ATOM     17  C   UNL     1       4.770   4.755  17.308  0.00  0.00    +0.000 A 
ATOM     18  C   UNL     1       4.433   4.497  15.996  0.00  0.00    +0.000 A 
ATOM     19  C   UNL     1       5.487   4.251  15.152  0.00  0.00    +0.000 A 
ATOM     20  N   UNL     1       6.767   4.199  15.558  0.00  0.00    +0.000 NA
ATOM     21  C   UNL     1       6.986   4.434  16.853  0.00  0.00    +0.000 A 
ATOM     22  N   UNL     1       8.277   4.298  17.321  0.00  0.00    +0.000 N 
ATOM     23  N   UNL     1       6.042   4.723  17.744  0.00  0.00    +0.000 NA
ATOM     24  H   UNL     1       8.794   3.697  16.698  0.00  0.00    +0.000 HD
ATOM     25  H   UNL     1       8.229   4.025  18.295  0.00  0.00    +0.000 HD
ENDBRANCH   7  17
BRANCH   1  27
ATOM     26  C   UNL     1       3.779   1.337  18.339  0.00  0.00    +0.000 C 
ATOM     27  O   UNL     1       4.312   2.253  19.280  0.00  0.00    +0.000 OA
ENDBRANCH   1  27
TORSDOF 2
ENDMDL
MODEL 2
REMARK VINA RESULT:      -7.4      1.643      5.285
REMARK  Name = 
REMARK  3 active torsions:
REMARK  status: ('A' for Active; 'I' for Inactive)
REMARK    1  A    between atoms: C_1  and  O_2
REMARK    2  A    between atoms: O_2  and  C_3
REMARK    3  A    between atoms: C_9  and  C_10
REMARK                            x       y       z     vdW  Elec       q    Type
REMARK                         _______ _______ _______ _____ _____    ______ ____
ROOT
ATOM      1  C   UNL     1       2.162   3.889  18.505  0.00  0.00    +0.000 A 
ATOM      2  C   UNL     1       2.246   2.516  18.265  0.00  0.00    +0.000 A 
ATOM      3  C   UNL     1       3.393   2.003  17.680  0.00  0.00    +0.000 A 
ATOM      4  N   UNL     1       4.469   2.717  17.289  0.00  0.00    +0.000 NA
ATOM      5  C   UNL     1       4.338   4.049  17.502  0.00  0.00    +0.000 A 
ATOM      6  C   UNL     1       3.255   4.696  18.103  0.00  0.00    +0.000 A 
ATOM      7  C   UNL     1       3.578   6.099  18.156  0.00  0.00    +0.000 A 
ATOM      8  C   UNL     1       4.827   6.250  17.569  0.00  0.00    +0.000 A 
ATOM      9  C   UNL     1       5.694   7.333  17.276  0.00  0.00    +0.000 A 
ATOM     10  C   UNL     1       6.850   7.082  16.644  0.00  0.00    +0.000 A 
ATOM     11  N   UNL     1       7.275   5.848  16.218  0.00  0.00    +0.000 NA
ATOM     12  C   UNL     1       6.480   4.833  16.436  0.00  0.00    +0.000 A 
ATOM     13  N   UNL     1       6.833   3.598  15.976  0.00  0.00    +0.000 N 
ATOM     14  N   UNL     1       5.264   5.009  17.138  0.00  0.00    +0.000 N 
ATOM     15  H   UNL     1       7.808   3.481  15.750  0.00  0.00    +0.000 HD
ATOM     16  H   UNL     1       6.359   2.799  16.399  0.00  0.00    +0.000 HD
ENDROOT
BRANCH   7  17
ATOM     17  C   UNL     1       2.763   7.216  18.622  0.00  0.00    +0.000 A 
ATOM     18  C   UNL     1       2.276   8.179  17.764  0.00  0.00    +0.000 A 
ATOM     19  C   UNL     1       1.435   9.105  18.329  0.00  0.00    +0.000 A 
ATOM     20  N   UNL     1       1.136   9.134  19.639  0.00  0.00    +0.000 NA
ATOM     21  C   UNL     1       1.683   8.176  20.391  0.00  0.00    +0.000 A 
ATOM     22  N   UNL     1       1.470   8.230  21.754  0.00  0.00    +0.000 N 
ATOM     23  N   UNL     1       2.474   7.209  19.935  0.00  0.00    +0.000 NA
ATOM     24  H   UNL     1       1.238   9.177  22.015  0.00  0.00    +0.000 HD
ATOM     25  H   UNL     1       2.267   7.805  22.211  0.00  0.00    +0.000 HD
ENDBRANCH   7  17
BRANCH   1  27
ATOM     26  C   UNL     1       0.776   4.207  20.427  0.00  0.00    +0.000 C 
ATOM     27  O   UNL     1       1.085   4.508  19.077  0.00  0.00    +0.000 OA
ENDBRANCH   1  27
TORSDOF 2
ENDMDL
MODEL 3
REMARK VINA RESULT:      -7.4      0.708      1.361
REMARK  Name = 
REMARK  3 active torsions:
REMARK  status: ('A' for Active; 'I' for Inactive)
REMARK    1  A    between atoms: C_1  and  O_2
REMARK    2  A    between atoms: O_2  and  C_3
REMARK    3  A    between atoms: C_9  and  C_10
REMARK                            x       y       z     vdW  Elec       q    Type
REMARK                         _______ _______ _______ _____ _____    ______ ____
ROOT
ATOM      1  C   UNL     1       3.566   3.161  19.918  0.00  0.00    +0.000 A 
ATOM      2  C   UNL     1       2.778   2.757  20.998  0.00  0.00    +0.000 A 
ATOM      3  C   UNL     1       1.837   3.635  21.513  0.00  0.00    +0.000 A 
ATOM      4  N   UNL     1       1.604   4.889  21.076  0.00  0.00    +0.000 NA
ATOM      5  C   UNL     1       2.411   5.263  20.053  0.00  0.00    +0.000 A 
ATOM      6  C   UNL     1       3.379   4.475  19.423  0.00  0.00    +0.000 A 
ATOM      7  C   UNL     1       3.950   5.272  18.368  0.00  0.00    +0.000 A 
ATOM      8  C   UNL     1       3.326   6.512  18.412  0.00  0.00    +0.000 A 
ATOM      9  C   UNL     1       3.429   7.734  17.701  0.00  0.00    +0.000 A 
ATOM     10  C   UNL     1       2.652   8.763  18.070  0.00  0.00    +0.000 A 
ATOM     11  N   UNL     1       1.760   8.757  19.114  0.00  0.00    +0.000 NA
ATOM     12  C   UNL     1       1.671   7.657  19.817  0.00  0.00    +0.000 A 
ATOM     13  N   UNL     1       0.843   7.624  20.900  0.00  0.00    +0.000 N 
ATOM     14  N   UNL     1       2.423   6.512  19.462  0.00  0.00    +0.000 N 
ATOM     15  H   UNL     1       0.138   8.344  20.931  0.00  0.00    +0.000 HD
ATOM     16  H   UNL     1       0.575   6.701  21.244  0.00  0.00    +0.000 HD
ENDROOT
BRANCH   7  17
ATOM     17  C   UNL     1       5.044   4.951  17.457  0.00  0.00    +0.000 A 
ATOM     18  C   UNL     1       6.357   4.905  17.874  0.00  0.00    +0.000 A 
ATOM     19  C   UNL     1       7.263   4.482  16.933  0.00  0.00    +0.000 A 
ATOM     20  N   UNL     1       6.930   4.183  15.665  0.00  0.00    +0.000 NA
ATOM     21  C   UNL     1       5.637   4.287  15.353  0.00  0.00    +0.000 A 
ATOM     22  N   UNL     1       5.274   4.076  14.038  0.00  0.00    +0.000 N 
ATOM     23  N   UNL     1       4.676   4.646  16.200  0.00  0.00    +0.000 NA
ATOM     24  H   UNL     1       6.076   4.228  13.445  0.00  0.00    +0.000 HD
ATOM     25  H   UNL     1       4.447   4.629  13.850  0.00  0.00    +0.000 HD
ENDBRANCH   7  17
BRANCH   1  27
ATOM     26  C   UNL     1       4.102   1.359  18.442  0.00  0.00    +0.000 C 
ATOM     27  O   UNL     1       4.522   2.383  19.326  0.00  0.00    +0.000 OA
ENDBRANCH   1  27
TORSDOF 2
ENDMDL
MODEL 4
REMARK VINA RESULT:      -7.3      1.860      5.313
REMARK  Name = 
REMARK  3 active torsions:
REMARK  status: ('A' for Active; 'I' for Inactive)
REMARK    1  A    between atoms: C_1  and  O_2
REMARK    2  A    between atoms: O_2  and  C_3
REMARK    3  A    between atoms: C_9  and  C_10
REMARK                            x       y       z     vdW  Elec       q    Type
REMARK                         _______ _______ _______ _____ _____    ______ ____
ROOT
ATOM      1  C   UNL     1       2.180   3.682  18.551  0.00  0.00    +0.000 A 
ATOM      2  C   UNL     1       2.320   2.334  18.215  0.00  0.00    +0.000 A 
ATOM      3  C   UNL     1       3.486   1.910  17.597  0.00  0.00    +0.000 A 
ATOM      4  N   UNL     1       4.531   2.693  17.260  0.00  0.00    +0.000 NA
ATOM      5  C   UNL     1       4.347   4.000  17.566  0.00  0.00    +0.000 A 
ATOM      6  C   UNL     1       3.239   4.559  18.209  0.00  0.00    +0.000 A 
ATOM      7  C   UNL     1       3.506   5.966  18.362  0.00  0.00    +0.000 A 
ATOM      8  C   UNL     1       4.747   6.209  17.790  0.00  0.00    +0.000 A 
ATOM      9  C   UNL     1       5.569   7.344  17.575  0.00  0.00    +0.000 A 
ATOM     10  C   UNL     1       6.734   7.185  16.930  0.00  0.00    +0.000 A 
ATOM     11  N   UNL     1       7.208   6.002  16.418  0.00  0.00    +0.000 NA
ATOM     12  C   UNL     1       6.455   4.943  16.562  0.00  0.00    +0.000 A 
ATOM     13  N   UNL     1       6.857   3.759  16.017  0.00  0.00    +0.000 N 
ATOM     14  N   UNL     1       5.233   5.020  17.273  0.00  0.00    +0.000 N 
ATOM     15  H   UNL     1       7.836   3.698  15.785  0.00  0.00    +0.000 HD
ATOM     16  H   UNL     1       6.415   2.914  16.381  0.00  0.00    +0.000 HD
ENDROOT
BRANCH   7  17
ATOM     17  C   UNL     1       2.647   7.014  18.904  0.00  0.00    +0.000 A 
ATOM     18  C   UNL     1       2.237   7.021  20.220  0.00  0.00    +0.000 A 
ATOM     19  C   UNL     1       1.525   8.128  20.613  0.00  0.00    +0.000 A 
ATOM     20  N   UNL     1       1.184   9.125  19.779  0.00  0.00    +0.000 NA
ATOM     21  C   UNL     1       1.604   9.010  18.517  0.00  0.00    +0.000 A 
ATOM     22  N   UNL     1       1.195   9.969  17.614  0.00  0.00    +0.000 N 
ATOM     23  N   UNL     1       2.334   8.002  18.047  0.00  0.00    +0.000 NA
ATOM     24  H   UNL     1       0.354  10.410  17.956  0.00  0.00    +0.000 HD
ATOM     25  H   UNL     1       1.153   9.539  16.698  0.00  0.00    +0.000 HD
ENDBRANCH   7  17
BRANCH   1  27
ATOM     26  C   UNL     1       0.736   3.745  20.456  0.00  0.00    +0.000 C 
ATOM     27  O   UNL     1       1.080   4.215  19.164  0.00  0.00    +0.000 OA
ENDBRANCH   1  27
TORSDOF 2
ENDMDL
MODEL 5
REMARK VINA RESULT:      -7.1      2.248      5.845
REMARK  Name = 
REMARK  3 active torsions:
REMARK  status: ('A' for Active; 'I' for Inactive)
REMARK    1  A    between atoms: C_1  and  O_2
REMARK    2  A    between atoms: O_2  and  C_3
REMARK    3  A    between atoms: C_9  and  C_10
REMARK                            x       y       z     vdW  Elec       q    Type
REMARK                         _______ _______ _______ _____ _____    ______ ____
ROOT
ATOM      1  C   UNL     1       5.467   6.150  16.996  0.00  0.00    +0.000 A 
ATOM      2  C   UNL     1       6.534   5.447  16.432  0.00  0.00    +0.000 A 
ATOM      3  C   UNL     1       6.468   4.064  16.360  0.00  0.00    +0.000 A 
ATOM      4  N   UNL     1       5.453   3.297  16.806  0.00  0.00    +0.000 NA
ATOM      5  C   UNL     1       4.452   4.008  17.380  0.00  0.00    +0.000 A 
ATOM      6  C   UNL     1       4.376   5.399  17.497  0.00  0.00    +0.000 A 
ATOM      7  C   UNL     1       3.118   5.700  18.131  0.00  0.00    +0.000 A 
ATOM      8  C   UNL     1       2.494   4.488  18.393  0.00  0.00    +0.000 A 
ATOM      9  C   UNL     1       1.286   4.072  19.008  0.00  0.00    +0.000 A 
ATOM     10  C   UNL     1       1.033   2.760  19.112  0.00  0.00    +0.000 A 
ATOM     11  N   UNL     1       1.865   1.750  18.693  0.00  0.00    +0.000 NA
ATOM     12  C   UNL     1       3.006   2.099  18.159  0.00  0.00    +0.000 A 
ATOM     13  N   UNL     1       3.891   1.131  17.784  0.00  0.00    +0.000 N 
ATOM     14  N   UNL     1       3.327   3.465  17.971  0.00  0.00    +0.000 N 
ATOM     15  H   UNL     1       3.503   0.207  17.675  0.00  0.00    +0.000 HD
ATOM     16  H   UNL     1       4.619   1.407  17.125  0.00  0.00    +0.000 HD
ENDROOT
BRANCH   7  17
ATOM     17  C   UNL     1       2.581   6.992  18.547  0.00  0.00    +0.000 A 
ATOM     18  C   UNL     1       2.306   7.998  17.646  0.00  0.00    +0.000 A 
ATOM     19  C   UNL     1       1.702   9.114  18.170  0.00  0.00    +0.000 A 
ATOM     20  N   UNL     1       1.438   9.269  19.479  0.00  0.00    +0.000 NA
ATOM     21  C   UNL     1       1.770   8.249  20.273  0.00  0.00    +0.000 A 
ATOM     22  N   UNL     1       1.597   8.412  21.633  0.00  0.00    +0.000 N 
ATOM     23  N   UNL     1       2.319   7.110  19.861  0.00  0.00    +0.000 NA
ATOM     24  H   UNL     1       1.586   9.397  21.850  0.00  0.00    +0.000 HD
ATOM     25  H   UNL     1       2.287   7.840  22.106  0.00  0.00    +0.000 HD
ENDBRANCH   7  17
BRANCH   1  27
ATOM     26  C   UNL     1       6.617   8.201  17.428  0.00  0.00    +0.000 C 
ATOM     27  O   UNL     1       5.418   7.511  17.119  0.00  0.00    +0.000 OA
ENDBRANCH   1  27
TORSDOF 2
ENDMDL
MODEL 6
REMARK VINA RESULT:      -6.6      1.996      4.103
REMARK  Name = 
REMARK  3 active torsions:
REMARK  status: ('A' for Active; 'I' for Inactive)
REMARK    1  A    between atoms: C_1  and  O_2
REMARK    2  A    between atoms: O_2  and  C_3
REMARK    3  A    between atoms: C_9  and  C_10
REMARK                            x       y       z     vdW  Elec       q    Type
REMARK                         _______ _______ _______ _____ _____    ______ ____
ROOT
ATOM      1  C   UNL     1       2.567   7.315  19.023  0.00  0.00    +0.000 A 
ATOM      2  C   UNL     1       1.541   7.799  19.837  0.00  0.00    +0.000 A 
ATOM      3  C   UNL     1       1.086   7.016  20.886  0.00  0.00    +0.000 A 
ATOM      4  N   UNL     1       1.534   5.785  21.206  0.00  0.00    +0.000 NA
ATOM      5  C   UNL     1       2.503   5.330  20.374  0.00  0.00    +0.000 A 
ATOM      6  C   UNL     1       3.071   6.020  19.299  0.00  0.00    +0.000 A 
ATOM      7  C   UNL     1       4.085   5.165  18.739  0.00  0.00    +0.000 A 
ATOM      8  C   UNL     1       4.078   3.989  19.477  0.00  0.00    +0.000 A 
ATOM      9  C   UNL     1       4.779   2.756  19.442  0.00  0.00    +0.000 A 
ATOM     10  C   UNL     1       4.459   1.807  20.333  0.00  0.00    +0.000 A 
ATOM     11  N   UNL     1       3.474   1.904  21.285  0.00  0.00    +0.000 NA
ATOM     12  C   UNL     1       2.781   3.013  21.317  0.00  0.00    +0.000 A 
ATOM     13  N   UNL     1       1.753   3.131  22.206  0.00  0.00    +0.000 N 
ATOM     14  N   UNL     1       3.089   4.080  20.441  0.00  0.00    +0.000 N 
ATOM     15  H   UNL     1       1.766   2.480  22.975  0.00  0.00    +0.000 HD
ATOM     16  H   UNL     1       1.429   4.078  22.408  0.00  0.00    +0.000 HD
ENDROOT
BRANCH   7  17
ATOM     17  C   UNL     1       4.924   5.376  17.563  0.00  0.00    +0.000 A 
ATOM     18  C   UNL     1       4.659   4.773  16.353  0.00  0.00    +0.000 A 
ATOM     19  C   UNL     1       5.469   5.152  15.312  0.00  0.00    +0.000 A 
ATOM     20  N   UNL     1       6.498   6.006  15.446  0.00  0.00    +0.000 NA
ATOM     21  C   UNL     1       6.690   6.513  16.665  0.00  0.00    +0.000 A 
ATOM     22  N   UNL     1       7.792   7.321  16.858  0.00  0.00    +0.000 N 
ATOM     23  N   UNL     1       5.938   6.244  17.728  0.00  0.00    +0.000 NA
ATOM     24  H   UNL     1       8.480   7.119  16.148  0.00  0.00    +0.000 HD
ATOM     25  H   UNL     1       8.082   7.229  17.824  0.00  0.00    +0.000 HD
ENDBRANCH   7  17
BRANCH   1  27
ATOM     26  C   UNL     1       2.470   9.199  17.554  0.00  0.00    +0.000 C 
ATOM     27  O   UNL     1       3.098   7.996  17.962  0.00  0.00    +0.000 OA
ENDBRANCH   1  27
TORSDOF 2
ENDMDL
MODEL 7
REMARK VINA RESULT:      -6.4      8.129     11.532
REMARK  Name = 
REMARK  3 active torsions:
REMARK  status: ('A' for Active; 'I' for Inactive)
REMARK    1  A    between atoms: C_1  and  O_2
REMARK    2  A    between atoms: O_2  and  C_3
REMARK    3  A    between atoms: C_9  and  C_10
REMARK                            x       y       z     vdW  Elec       q    Type
REMARK                         _______ _______ _______ _____ _____    ______ ____
ROOT
ATOM      1  C   UNL     1      -1.083  11.451  20.318  0.00  0.00    +0.000 A 
ATOM      2  C   UNL     1      -0.340  10.715  19.393  0.00  0.00    +0.000 A 
ATOM      3  C   UNL     1      -0.883  10.455  18.144  0.00  0.00    +0.000 A 
ATOM      4  N   UNL     1      -2.105  10.838  17.719  0.00  0.00    +0.000 NA
ATOM      5  C   UNL     1      -2.813  11.517  18.654  0.00  0.00    +0.000 A 
ATOM      6  C   UNL     1      -2.381  11.869  19.935  0.00  0.00    +0.000 A 
ATOM      7  C   UNL     1      -3.447  12.619  20.549  0.00  0.00    +0.000 A 
ATOM      8  C   UNL     1      -4.487  12.672  19.629  0.00  0.00    +0.000 A 
ATOM      9  C   UNL     1      -5.799  13.209  19.601  0.00  0.00    +0.000 A 
ATOM     10  C   UNL     1      -6.549  13.023  18.505  0.00  0.00    +0.000 A 
ATOM     11  N   UNL     1      -6.169  12.321  17.387  0.00  0.00    +0.000 NA
ATOM     12  C   UNL     1      -4.980  11.777  17.398  0.00  0.00    +0.000 A 
ATOM     13  N   UNL     1      -4.583  11.019  16.335  0.00  0.00    +0.000 N 
ATOM     14  N   UNL     1      -4.111  11.967  18.499  0.00  0.00    +0.000 N 
ATOM     15  H   UNL     1      -5.108  11.155  15.485  0.00  0.00    +0.000 HD
ATOM     16  H   UNL     1      -3.580  10.857  16.238  0.00  0.00    +0.000 HD
ENDROOT
BRANCH   7  17
ATOM     17  C   UNL     1      -3.537  13.157  21.902  0.00  0.00    +0.000 A 
ATOM     18  C   UNL     1      -3.005  14.382  22.243  0.00  0.00    +0.000 A 
ATOM     19  C   UNL     1      -3.263  14.805  23.523  0.00  0.00    +0.000 A 
ATOM     20  N   UNL     1      -3.936  14.070  24.425  0.00  0.00    +0.000 NA
ATOM     21  C   UNL     1      -4.385  12.885  24.006  0.00  0.00    +0.000 A 
ATOM     22  N   UNL     1      -4.999  12.067  24.932  0.00  0.00    +0.000 N 
ATOM     23  N   UNL     1      -4.226  12.403  22.777  0.00  0.00    +0.000 NA
ATOM     24  H   UNL     1      -4.699  12.331  25.858  0.00  0.00    +0.000 HD
ATOM     25  H   UNL     1      -4.846  11.106  24.651  0.00  0.00    +0.000 HD
ENDBRANCH   7  17
BRANCH   1  27
ATOM     26  C   UNL     1      -0.791  10.802  22.600  0.00  0.00    +0.000 C 
ATOM     27  O   UNL     1      -0.651  11.771  21.575  0.00  0.00    +0.000 OA
ENDBRANCH   1  27
TORSDOF 2
ENDMDL
MODEL 8
REMARK VINA RESULT:      -6.3      8.093     11.511
REMARK  Name = 
REMARK  3 active torsions:
REMARK  status: ('A' for Active; 'I' for Inactive)
REMARK    1  A    between atoms: C_1  and  O_2
REMARK    2  A    between atoms: O_2  and  C_3
REMARK    3  A    between atoms: C_9  and  C_10
REMARK                            x       y       z     vdW  Elec       q    Type
REMARK                         _______ _______ _______ _____ _____    ______ ____
ROOT
ATOM      1  C   UNL     1      -0.471  12.534  21.298  0.00  0.00    +0.000 A 
ATOM      2  C   UNL     1       0.755  12.089  20.799  0.00  0.00    +0.000 A 
ATOM      3  C   UNL     1       0.809  11.551  19.523  0.00  0.00    +0.000 A 
ATOM      4  N   UNL     1      -0.237  11.393  18.686  0.00  0.00    +0.000 NA
ATOM      5  C   UNL     1      -1.417  11.800  19.216  0.00  0.00    +0.000 A 
ATOM      6  C   UNL     1      -1.612  12.381  20.472  0.00  0.00    +0.000 A 
ATOM      7  C   UNL     1      -3.015  12.690  20.580  0.00  0.00    +0.000 A 
ATOM      8  C   UNL     1      -3.616  12.268  19.402  0.00  0.00    +0.000 A 
ATOM      9  C   UNL     1      -4.934  12.242  18.879  0.00  0.00    +0.000 A 
ATOM     10  C   UNL     1      -5.138  11.702  17.669  0.00  0.00    +0.000 A 
ATOM     11  N   UNL     1      -4.172  11.131  16.876  0.00  0.00    +0.000 NA
ATOM     12  C   UNL     1      -2.953  11.101  17.347  0.00  0.00    +0.000 A 
ATOM     13  N   UNL     1      -1.972  10.490  16.622  0.00  0.00    +0.000 N 
ATOM     14  N   UNL     1      -2.648  11.692  18.596  0.00  0.00    +0.000 N 
ATOM     15  H   UNL     1      -2.178  10.350  15.644  0.00  0.00    +0.000 HD
ATOM     16  H   UNL     1      -1.009  10.729  16.861  0.00  0.00    +0.000 HD
ENDROOT
BRANCH   7  17
ATOM     17  C   UNL     1      -3.754  13.241  21.712  0.00  0.00    +0.000 A 
ATOM     18  C   UNL     1      -4.169  14.555  21.750  0.00  0.00    +0.000 A 
ATOM     19  C   UNL     1      -4.948  14.899  22.826  0.00  0.00    +0.000 A 
ATOM     20  N   UNL     1      -5.252  14.050  23.823  0.00  0.00    +0.000 NA
ATOM     21  C   UNL     1      -4.778  12.808  23.707  0.00  0.00    +0.000 A 
ATOM     22  N   UNL     1      -4.995  11.938  24.756  0.00  0.00    +0.000 N 
ATOM     23  N   UNL     1      -4.052  12.363  22.686  0.00  0.00    +0.000 NA
ATOM     24  H   UNL     1      -5.164  12.468  25.598  0.00  0.00    +0.000 HD
ATOM     25  H   UNL     1      -4.232  11.272  24.773  0.00  0.00    +0.000 HD
ENDBRANCH   7  17
BRANCH   1  27
ATOM     26  C   UNL     1      -0.421  14.473  22.696  0.00  0.00    +0.000 C 
ATOM     27  O   UNL     1      -0.647  13.083  22.538  0.00  0.00    +0.000 OA
ENDBRANCH   1  27
TORSDOF 2
ENDMDL
MODEL 9
REMARK VINA RESULT:      -6.3      2.280      5.905
REMARK  Name = 
REMARK  3 active torsions:
REMARK  status: ('A' for Active; 'I' for Inactive)
REMARK    1  A    between atoms: C_1  and  O_2
REMARK    2  A    between atoms: O_2  and  C_3
REMARK    3  A    between atoms: C_9  and  C_10
REMARK                            x       y       z     vdW  Elec       q    Type
REMARK                         _______ _______ _______ _____ _____    ______ ____
ROOT
ATOM      1  C   UNL     1       5.047   6.105  17.088  0.00  0.00    +0.000 A 
ATOM      2  C   UNL     1       6.068   5.450  16.397  0.00  0.00    +0.000 A 
ATOM      3  C   UNL     1       6.048   4.066  16.315  0.00  0.00    +0.000 A 
ATOM      4  N   UNL     1       5.121   3.255  16.866  0.00  0.00    +0.000 NA
ATOM      5  C   UNL     1       4.166   3.921  17.561  0.00  0.00    +0.000 A 
ATOM      6  C   UNL     1       4.051   5.307  17.703  0.00  0.00    +0.000 A 
ATOM      7  C   UNL     1       2.864   5.553  18.482  0.00  0.00    +0.000 A 
ATOM      8  C   UNL     1       2.322   4.314  18.799  0.00  0.00    +0.000 A 
ATOM      9  C   UNL     1       1.211   3.846  19.544  0.00  0.00    +0.000 A 
ATOM     10  C   UNL     1       1.023   2.523  19.660  0.00  0.00    +0.000 A 
ATOM     11  N   UNL     1       1.839   1.551  19.136  0.00  0.00    +0.000 NA
ATOM     12  C   UNL     1       2.897   1.950  18.478  0.00  0.00    +0.000 A 
ATOM     13  N   UNL     1       3.769   1.021  17.991  0.00  0.00    +0.000 N 
ATOM     14  N   UNL     1       3.140   3.329  18.271  0.00  0.00    +0.000 N 
ATOM     15  H   UNL     1       3.407   0.083  17.916  0.00  0.00    +0.000 HD
ATOM     16  H   UNL     1       4.404   1.331  17.255  0.00  0.00    +0.000 HD
ENDROOT
BRANCH   7  17
ATOM     17  C   UNL     1       2.329   6.819  18.973  0.00  0.00    +0.000 A 
ATOM     18  C   UNL     1       2.050   7.031  20.306  0.00  0.00    +0.000 A 
ATOM     19  C   UNL     1       1.657   8.305  20.633  0.00  0.00    +0.000 A 
ATOM     20  N   UNL     1       1.488   9.284  19.729  0.00  0.00    +0.000 NA
ATOM     21  C   UNL     1       1.756   8.970  18.460  0.00  0.00    +0.000 A 
ATOM     22  N   UNL     1       1.507   9.924  17.495  0.00  0.00    +0.000 N 
ATOM     23  N   UNL     1       2.183   7.781  18.045  0.00  0.00    +0.000 NA
ATOM     24  H   UNL     1       0.827  10.582  17.847  0.00  0.00    +0.000 HD
ATOM     25  H   UNL     1       1.284   9.445  16.632  0.00  0.00    +0.000 HD
ENDBRANCH   7  17
BRANCH   1  27
ATOM     26  C   UNL     1       6.159   8.197  17.411  0.00  0.00    +0.000 C 
ATOM     27  O   UNL     1       4.960   7.462  17.234  0.00  0.00    +0.000 OA
ENDBRANCH   1  27
TORSDOF 2
ENDMDL
