MODEL 1
REMARK VINA RESULT:      -3.3      0.000      0.000
REMARK  Name = 
REMARK  5 active torsions:
REMARK  status: ('A' for Active; 'I' for Inactive)
REMARK    1  A    between atoms: C_1  and  N_2
REMARK    2  A    between atoms: N_2  and  C_3
REMARK    3  A    between atoms: N_2  and  C_4
REMARK    4  A    between atoms: C_4  and  C_5
REMARK    5  A    between atoms: C_5  and  O_6
REMARK                            x       y       z     vdW  Elec       q    Type
REMARK                         _______ _______ _______ _____ _____    ______ ____
ROOT
ATOM      1  C   UNL     1       9.946   3.965  27.314  0.00  0.00    +0.000 C 
ENDROOT
BRANCH   1   3
ATOM      2  C   UNL     1      11.764   3.100  28.700  0.00  0.00    +0.000 C 
ATOM      3  N   UNL     1      10.958   4.275  28.351  0.00  0.00    +0.000 NA
ATOM      4  C   UNL     1      11.841   5.340  27.861  0.00  0.00    +0.000 C 
ENDBRANCH   1   3
BRANCH   1   5
ATOM      5  C   UNL     1       8.550   4.525  27.636  0.00  0.00    +0.000 C 
BRANCH   5   6
ATOM      6  O   UNL     1       7.590   4.019  26.714  0.00  0.00    +0.000 OA
ATOM      7  H   UNL     1       7.795   3.066  26.632  0.00  0.00    +0.000 HD
ENDBRANCH   5   6
ENDBRANCH   1   5
TORSDOF 3
ENDMDL
MODEL 2
REMARK VINA RESULT:      -3.1     11.281     12.291
REMARK  Name = 
REMARK  5 active torsions:
REMARK  status: ('A' for Active; 'I' for Inactive)
REMARK    1  A    between atoms: C_1  and  N_2
REMARK    2  A    between atoms: N_2  and  C_3
REMARK    3  A    between atoms: N_2  and  C_4
REMARK    4  A    between atoms: C_4  and  C_5
REMARK    5  A    between atoms: C_5  and  O_6
REMARK                            x       y       z     vdW  Elec       q    Type
REMARK                         _______ _______ _______ _____ _____    ______ ____
ROOT
ATOM      1  C   UNL     1       3.212   2.177  17.944  0.00  0.00    +0.000 C 
ENDROOT
BRANCH   1   3
ATOM      2  C   UNL     1       0.927   2.431  18.774  0.00  0.00    +0.000 C 
ATOM      3  N   UNL     1       1.895   2.827  17.745  0.00  0.00    +0.000 NA
ATOM      4  C   UNL     1       2.067   4.284  17.776  0.00  0.00    +0.000 C 
ENDBRANCH   1   3
BRANCH   1   5
ATOM      5  C   UNL     1       3.786   2.380  19.357  0.00  0.00    +0.000 C 
BRANCH   5   6
ATOM      6  O   UNL     1       5.136   2.828  19.282  0.00  0.00    +0.000 OA
ATOM      7  H   UNL     1       5.478   2.755  20.197  0.00  0.00    +0.000 HD
ENDBRANCH   5   6
ENDBRANCH   1   5
TORSDOF 3
ENDMDL
MODEL 3
REMARK VINA RESULT:      -3.1      9.730     10.474
REMARK  Name = 
REMARK  5 active torsions:
REMARK  status: ('A' for Active; 'I' for Inactive)
REMARK    1  A    between atoms: C_1  and  N_2
REMARK    2  A    between atoms: N_2  and  C_3
REMARK    3  A    between atoms: N_2  and  C_4
REMARK    4  A    between atoms: C_4  and  C_5
REMARK    5  A    between atoms: C_5  and  O_6
REMARK                            x       y       z     vdW  Elec       q    Type
REMARK                         _______ _______ _______ _____ _____    ______ ____
ROOT
ATOM      1  C   UNL     1       6.305   5.372  19.076  0.00  0.00    +0.000 C 
ENDROOT
BRANCH   1   3
ATOM      2  C   UNL     1       5.426   6.047  16.898  0.00  0.00    +0.000 C 
ATOM      3  N   UNL     1       6.035   4.964  17.677  0.00  0.00    +0.000 NA
ATOM      4  C   UNL     1       7.294   4.558  17.041  0.00  0.00    +0.000 C 
ENDBRANCH   1   3
BRANCH   1   5
ATOM      5  C   UNL     1       7.773   5.751  19.329  0.00  0.00    +0.000 C 
BRANCH   5   6
ATOM      6  O   UNL     1       8.148   5.415  20.662  0.00  0.00    +0.000 OA
ATOM      7  H   UNL     1       9.126   5.464  20.670  0.00  0.00    +0.000 HD
ENDBRANCH   5   6
ENDBRANCH   1   5
TORSDOF 3
ENDMDL
MODEL 4
REMARK VINA RESULT:      -3.0     11.364     11.989
REMARK  Name = 
REMARK  5 active torsions:
REMARK  status: ('A' for Active; 'I' for Inactive)
REMARK    1  A    between atoms: C_1  and  N_2
REMARK    2  A    between atoms: N_2  and  C_3
REMARK    3  A    between atoms: N_2  and  C_4
REMARK    4  A    between atoms: C_4  and  C_5
REMARK    5  A    between atoms: C_5  and  O_6
REMARK                            x       y       z     vdW  Elec       q    Type
REMARK                         _______ _______ _______ _____ _____    ______ ____
ROOT
ATOM      1  C   UNL     1       3.106   2.574  19.397  0.00  0.00    +0.000 C 
ENDROOT
BRANCH   1   3
ATOM      2  C   UNL     1       1.398   3.045  21.081  0.00  0.00    +0.000 C 
ATOM      3  N   UNL     1       1.764   2.225  19.920  0.00  0.00    +0.000 NA
ATOM      4  C   UNL     1       0.767   2.415  18.859  0.00  0.00    +0.000 C 
ENDBRANCH   1   3
BRANCH   1   5
ATOM      5  C   UNL     1       3.489   1.793  18.130  0.00  0.00    +0.000 C 
BRANCH   5   6
ATOM      6  O   UNL     1       4.307   0.676  18.466  0.00  0.00    +0.000 OA
ATOM      7  H   UNL     1       3.678  -0.041  18.686  0.00  0.00    +0.000 HD
ENDBRANCH   5   6
ENDBRANCH   1   5
TORSDOF 3
ENDMDL
MODEL 5
REMARK VINA RESULT:      -3.0      9.561     10.183
REMARK  Name = 
REMARK  5 active torsions:
REMARK  status: ('A' for Active; 'I' for Inactive)
REMARK    1  A    between atoms: C_1  and  N_2
REMARK    2  A    between atoms: N_2  and  C_3
REMARK    3  A    between atoms: N_2  and  C_4
REMARK    4  A    between atoms: C_4  and  C_5
REMARK    5  A    between atoms: C_5  and  O_6
REMARK                            x       y       z     vdW  Elec       q    Type
REMARK                         _______ _______ _______ _____ _____    ______ ____
ROOT
ATOM      1  C   UNL     1       5.166   4.528  18.226  0.00  0.00    +0.000 C 
ENDROOT
BRANCH   1   3
ATOM      2  C   UNL     1       7.383   4.554  17.198  0.00  0.00    +0.000 C 
ATOM      3  N   UNL     1       6.629   4.466  18.454  0.00  0.00    +0.000 NA
ATOM      4  C   UNL     1       7.028   5.569  19.337  0.00  0.00    +0.000 C 
ENDBRANCH   1   3
BRANCH   1   5
ATOM      5  C   UNL     1       4.387   3.424  18.959  0.00  0.00    +0.000 C 
BRANCH   5   6
ATOM      6  O   UNL     1       5.278   2.607  19.713  0.00  0.00    +0.000 OA
ATOM      7  H   UNL     1       5.784   2.101  19.045  0.00  0.00    +0.000 HD
ENDBRANCH   5   6
ENDBRANCH   1   5
TORSDOF 3
ENDMDL
MODEL 6
REMARK VINA RESULT:      -3.0     10.424     11.119
REMARK  Name = 
REMARK  5 active torsions:
REMARK  status: ('A' for Active; 'I' for Inactive)
REMARK    1  A    between atoms: C_1  and  N_2
REMARK    2  A    between atoms: N_2  and  C_3
REMARK    3  A    between atoms: N_2  and  C_4
REMARK    4  A    between atoms: C_4  and  C_5
REMARK    5  A    between atoms: C_5  and  O_6
REMARK                            x       y       z     vdW  Elec       q    Type
REMARK                         _______ _______ _______ _____ _____    ______ ____
ROOT
ATOM      1  C   UNL     1       3.199   3.656  19.887  0.00  0.00    +0.000 C 
ENDROOT
BRANCH   1   3
ATOM      2  C   UNL     1       1.575   2.713  21.451  0.00  0.00    +0.000 C 
ATOM      3  N   UNL     1       2.290   2.524  20.184  0.00  0.00    +0.000 NA
ATOM      4  C   UNL     1       1.317   2.387  19.093  0.00  0.00    +0.000 C 
ENDBRANCH   1   3
BRANCH   1   5
ATOM      5  C   UNL     1       4.559   3.215  19.321  0.00  0.00    +0.000 C 
BRANCH   5   6
ATOM      6  O   UNL     1       4.995   2.016  19.957  0.00  0.00    +0.000 OA
ATOM      7  H   UNL     1       5.422   1.495  19.247  0.00  0.00    +0.000 HD
ENDBRANCH   5   6
ENDBRANCH   1   5
TORSDOF 3
ENDMDL
MODEL 7
REMARK VINA RESULT:      -3.0     12.203     12.523
REMARK  Name = 
REMARK  5 active torsions:
REMARK  status: ('A' for Active; 'I' for Inactive)
REMARK    1  A    between atoms: C_1  and  N_2
REMARK    2  A    between atoms: N_2  and  C_3
REMARK    3  A    between atoms: N_2  and  C_4
REMARK    4  A    between atoms: C_4  and  C_5
REMARK    5  A    between atoms: C_5  and  O_6
REMARK                            x       y       z     vdW  Elec       q    Type
REMARK                         _______ _______ _______ _____ _____    ______ ____
ROOT
ATOM      1  C   UNL     1       1.884   1.904  18.933  0.00  0.00    +0.000 C 
ENDROOT
BRANCH   1   3
ATOM      2  C   UNL     1       1.011   3.837  20.145  0.00  0.00    +0.000 C 
ATOM      3  N   UNL     1       1.103   3.160  18.847  0.00  0.00    +0.000 NA
ATOM      4  C   UNL     1       1.739   4.059  17.876  0.00  0.00    +0.000 C 
ENDBRANCH   1   3
BRANCH   1   5
ATOM      5  C   UNL     1       3.175   1.928  18.097  0.00  0.00    +0.000 C 
BRANCH   5   6
ATOM      6  O   UNL     1       3.960   0.771  18.366  0.00  0.00    +0.000 OA
ATOM      7  H   UNL     1       3.317   0.086  18.640  0.00  0.00    +0.000 HD
ENDBRANCH   5   6
ENDBRANCH   1   5
TORSDOF 3
ENDMDL
MODEL 8
REMARK VINA RESULT:      -2.9     10.419     11.504
REMARK  Name = 
REMARK  5 active torsions:
REMARK  status: ('A' for Active; 'I' for Inactive)
REMARK    1  A    between atoms: C_1  and  N_2
REMARK    2  A    between atoms: N_2  and  C_3
REMARK    3  A    between atoms: N_2  and  C_4
REMARK    4  A    between atoms: C_4  and  C_5
REMARK    5  A    between atoms: C_5  and  O_6
REMARK                            x       y       z     vdW  Elec       q    Type
REMARK                         _______ _______ _______ _____ _____    ______ ____
ROOT
ATOM      1  C   UNL     1       3.101   2.095  19.133  0.00  0.00    +0.000 C 
ENDROOT
BRANCH   1   3
ATOM      2  C   UNL     1       0.700   2.432  18.825  0.00  0.00    +0.000 C 
ATOM      3  N   UNL     1       1.894   2.830  19.580  0.00  0.00    +0.000 NA
ATOM      4  C   UNL     1       1.672   2.574  21.008  0.00  0.00    +0.000 C 
ENDBRANCH   1   3
BRANCH   1   5
ATOM      5  C   UNL     1       4.405   2.635  19.745  0.00  0.00    +0.000 C 
BRANCH   5   6
ATOM      6  O   UNL     1       5.225   1.558  20.190  0.00  0.00    +0.000 OA
ATOM      7  H   UNL     1       5.655   1.216  19.380  0.00  0.00    +0.000 HD
ENDBRANCH   5   6
ENDBRANCH   1   5
TORSDOF 3
ENDMDL
MODEL 9
REMARK VINA RESULT:      -2.9     11.064     12.015
REMARK  Name = 
REMARK  5 active torsions:
REMARK  status: ('A' for Active; 'I' for Inactive)
REMARK    1  A    between atoms: C_1  and  N_2
REMARK    2  A    between atoms: N_2  and  C_3
REMARK    3  A    between atoms: N_2  and  C_4
REMARK    4  A    between atoms: C_4  and  C_5
REMARK    5  A    between atoms: C_5  and  O_6
REMARK                            x       y       z     vdW  Elec       q    Type
REMARK                         _______ _______ _______ _____ _____    ______ ____
ROOT
ATOM      1  C   UNL     1       3.283   1.920  18.228  0.00  0.00    +0.000 C 
ENDROOT
BRANCH   1   3
ATOM      2  C   UNL     1       1.696   3.763  17.989  0.00  0.00    +0.000 C 
ATOM      3  N   UNL     1       2.805   3.028  17.369  0.00  0.00    +0.000 NA
ATOM      4  C   UNL     1       3.915   3.953  17.111  0.00  0.00    +0.000 C 
ENDBRANCH   1   3
BRANCH   1   5
ATOM      5  C   UNL     1       3.761   2.384  19.614  0.00  0.00    +0.000 C 
BRANCH   5   6
ATOM      6  O   UNL     1       5.072   1.890  19.876  0.00  0.00    +0.000 OA
ATOM      7  H   UNL     1       5.420   2.463  20.589  0.00  0.00    +0.000 HD
ENDBRANCH   5   6
ENDBRANCH   1   5
TORSDOF 3
ENDMDL
