MODEL 1
REMARK VINA RESULT:      -6.0      0.000      0.000
REMARK  Name = 
REMARK  8 active torsions:
REMARK  status: ('A' for Active; 'I' for Inactive)
REMARK    1  A    between atoms: C_1  and  C_2
REMARK    2  A    between atoms: C_2  and  C_3
REMARK    3  A    between atoms: C_2  and  C_4
REMARK    4  A    between atoms: C_2  and  N_5
REMARK    5  A    between atoms: C_7  and  C_8
REMARK    6  A    between atoms: C_8  and  O_10
REMARK    7  A    between atoms: C_15  and  N_16
REMARK    8  A    between atoms: C_19  and  N_20
REMARK                            x       y       z     vdW  Elec       q    Type
REMARK                         _______ _______ _______ _____ _____    ______ ____
ROOT
ATOM      1  N   UNL     1      -4.861  12.193  18.504  0.00  0.00    +0.000 N 
ATOM      2  C   UNL     1      -4.523  11.594  17.282  0.00  0.00    +0.000 A 
ATOM      3  C   UNL     1      -3.355  11.026  16.934  0.00  0.00    +0.000 A 
ATOM      4  C   UNL     1      -2.297  11.021  17.948  0.00  0.00    +0.000 A 
ATOM      5  O   UNL     1      -1.223  10.462  17.721  0.00  0.00    +0.000 OA
ATOM      6  C   UNL     1      -2.552  11.724  19.218  0.00  0.00    +0.000 A 
ATOM      7  C   UNL     1      -1.502  11.811  20.138  0.00  0.00    +0.000 A 
ATOM      8  C   UNL     1      -1.687  12.513  21.336  0.00  0.00    +0.000 A 
ATOM      9  C   UNL     1      -2.899  13.145  21.656  0.00  0.00    +0.000 A 
ATOM     10  C   UNL     1      -3.921  12.983  20.688  0.00  0.00    +0.000 A 
ATOM     11  C   UNL     1      -3.814  12.297  19.466  0.00  0.00    +0.000 A 
ENDROOT
BRANCH   9  12
ATOM     12  N   UNL     1      -3.174  13.919  22.775  0.00  0.00    +0.000 N 
ATOM     13  C   UNL     1      -2.527  15.220  23.033  0.00  0.00    +0.000 C 
ATOM     14  C   UNL     1      -3.538  16.373  23.027  0.00  0.00    +0.000 C 
ATOM     15  S   UNL     1      -4.852  16.180  24.275  0.00  0.00    +0.000 S 
ATOM     16  C   UNL     1      -5.379  14.501  23.804  0.00  0.00    +0.000 C 
ATOM     17  C   UNL     1      -4.200  13.521  23.767  0.00  0.00    +0.000 C 
ENDBRANCH   9  12
BRANCH   1  19
ATOM     18  C   UNL     1      -7.207  12.618  17.555  0.00  0.00    +0.000 C 
ATOM     19  C   UNL     1      -6.283  12.678  18.806  0.00  0.00    +0.000 C 
ATOM     20  C   UNL     1      -6.315  14.169  19.214  0.00  0.00    +0.000 C 
ATOM     21  C   UNL     1      -6.972  11.761  19.845  0.00  0.00    +0.000 C 
ENDBRANCH   1  19
BRANCH   8  22
ATOM     22  N   UNL     1      -0.560  12.493  22.248  0.00  0.00    +0.000 N 
ATOM     23  O   UNL     1      -0.597  11.658  23.163  0.00  0.00    +0.000 OA
ATOM     24  O   UNL     1       0.342  13.322  22.067  0.00  0.00    +0.000 OA
ENDBRANCH   8  22
BRANCH   3  25
ATOM     25  C   UNL     1      -3.185  10.464  15.578  0.00  0.00    +0.000 C 
ATOM     26  O   UNL     1      -3.504  11.060  14.560  0.00  0.00    +0.000 OA
BRANCH  25  27
ATOM     27  O   UNL     1      -2.638   9.228  15.542  0.00  0.00    +0.000 OA
ATOM     28  H   UNL     1      -3.070   8.575  16.145  0.00  0.00    +0.000 HD
ENDBRANCH  25  27
ENDBRANCH   3  25
TORSDOF 5
ENDMDL
MODEL 2
REMARK VINA RESULT:      -6.0      2.424      5.060
REMARK  Name = 
REMARK  8 active torsions:
REMARK  status: ('A' for Active; 'I' for Inactive)
REMARK    1  A    between atoms: C_1  and  C_2
REMARK    2  A    between atoms: C_2  and  C_3
REMARK    3  A    between atoms: C_2  and  C_4
REMARK    4  A    between atoms: C_2  and  N_5
REMARK    5  A    between atoms: C_7  and  C_8
REMARK    6  A    between atoms: C_8  and  O_10
REMARK    7  A    between atoms: C_15  and  N_16
REMARK    8  A    between atoms: C_19  and  N_20
REMARK                            x       y       z     vdW  Elec       q    Type
REMARK                         _______ _______ _______ _____ _____    ______ ____
ROOT
ATOM      1  N   UNL     1      -0.981  12.373  20.369  0.00  0.00    +0.000 N 
ATOM      2  C   UNL     1       0.033  11.544  19.867  0.00  0.00    +0.000 A 
ATOM      3  C   UNL     1      -0.041  10.672  18.847  0.00  0.00    +0.000 A 
ATOM      4  C   UNL     1      -1.332  10.567  18.161  0.00  0.00    +0.000 A 
ATOM      5  O   UNL     1      -1.456   9.835  17.179  0.00  0.00    +0.000 OA
ATOM      6  C   UNL     1      -2.468  11.336  18.703  0.00  0.00    +0.000 A 
ATOM      7  C   UNL     1      -3.722  11.148  18.114  0.00  0.00    +0.000 A 
ATOM      8  C   UNL     1      -4.838  11.822  18.631  0.00  0.00    +0.000 A 
ATOM      9  C   UNL     1      -4.747  12.688  19.731  0.00  0.00    +0.000 A 
ATOM     10  C   UNL     1      -3.438  12.849  20.249  0.00  0.00    +0.000 A 
ATOM     11  C   UNL     1      -2.274  12.209  19.789  0.00  0.00    +0.000 A 
ENDROOT
BRANCH   9  12
ATOM     12  N   UNL     1      -5.788  13.353  20.365  0.00  0.00    +0.000 N 
ATOM     13  C   UNL     1      -6.643  12.721  21.387  0.00  0.00    +0.000 C 
ATOM     14  C   UNL     1      -6.496  13.398  22.756  0.00  0.00    +0.000 C 
ATOM     15  S   UNL     1      -6.926  15.169  22.729  0.00  0.00    +0.000 S 
ATOM     16  C   UNL     1      -5.841  15.654  21.348  0.00  0.00    +0.000 C 
ATOM     17  C   UNL     1      -6.073  14.784  20.106  0.00  0.00    +0.000 C 
ENDBRANCH   9  12
BRANCH   1  19
ATOM     18  C   UNL     1       0.803  13.748  21.598  0.00  0.00    +0.000 C 
ATOM     19  C   UNL     1      -0.711  13.422  21.453  0.00  0.00    +0.000 C 
ATOM     20  C   UNL     1      -1.114  12.922  22.860  0.00  0.00    +0.000 C 
ATOM     21  C   UNL     1      -1.369  14.775  21.090  0.00  0.00    +0.000 C 
ENDBRANCH   1  19
BRANCH   8  22
ATOM     22  N   UNL     1      -6.079  11.608  17.912  0.00  0.00    +0.000 N 
ATOM     23  O   UNL     1      -6.335  12.398  16.993  0.00  0.00    +0.000 OA
ATOM     24  O   UNL     1      -6.805  10.675  18.282  0.00  0.00    +0.000 OA
ENDBRANCH   8  22
BRANCH   3  25
ATOM     25  C   UNL     1       1.142   9.865  18.481  0.00  0.00    +0.000 C 
ATOM     26  O   UNL     1       1.535   8.914  19.140  0.00  0.00    +0.000 OA
BRANCH  25  27
ATOM     27  O   UNL     1       1.763  10.255  17.346  0.00  0.00    +0.000 OA
ATOM     28  H   UNL     1       1.461  11.128  16.997  0.00  0.00    +0.000 HD
ENDBRANCH  25  27
ENDBRANCH   3  25
TORSDOF 5
ENDMDL
MODEL 3
REMARK VINA RESULT:      -6.0      3.185      4.795
REMARK  Name = 
REMARK  8 active torsions:
REMARK  status: ('A' for Active; 'I' for Inactive)
REMARK    1  A    between atoms: C_1  and  C_2
REMARK    2  A    between atoms: C_2  and  C_3
REMARK    3  A    between atoms: C_2  and  C_4
REMARK    4  A    between atoms: C_2  and  N_5
REMARK    5  A    between atoms: C_7  and  C_8
REMARK    6  A    between atoms: C_8  and  O_10
REMARK    7  A    between atoms: C_15  and  N_16
REMARK    8  A    between atoms: C_19  and  N_20
REMARK                            x       y       z     vdW  Elec       q    Type
REMARK                         _______ _______ _______ _____ _____    ______ ____
ROOT
ATOM      1  N   UNL     1      -1.186  11.047  19.920  0.00  0.00    +0.000 N 
ATOM      2  C   UNL     1      -0.121  10.192  20.237  0.00  0.00    +0.000 A 
ATOM      3  C   UNL     1       0.291   9.801  21.456  0.00  0.00    +0.000 A 
ATOM      4  C   UNL     1      -0.458  10.320  22.604  0.00  0.00    +0.000 A 
ATOM      5  O   UNL     1      -0.176   9.955  23.745  0.00  0.00    +0.000 OA
ATOM      6  C   UNL     1      -1.525  11.304  22.346  0.00  0.00    +0.000 A 
ATOM      7  C   UNL     1      -2.163  11.878  23.449  0.00  0.00    +0.000 A 
ATOM      8  C   UNL     1      -3.149  12.854  23.249  0.00  0.00    +0.000 A 
ATOM      9  C   UNL     1      -3.527  13.287  21.969  0.00  0.00    +0.000 A 
ATOM     10  C   UNL     1      -2.858  12.634  20.905  0.00  0.00    +0.000 A 
ATOM     11  C   UNL     1      -1.861  11.650  21.023  0.00  0.00    +0.000 A 
ENDROOT
BRANCH   9  12
ATOM     12  N   UNL     1      -4.438  14.287  21.654  0.00  0.00    +0.000 N 
ATOM     13  C   UNL     1      -5.899  14.083  21.685  0.00  0.00    +0.000 C 
ATOM     14  C   UNL     1      -6.577  14.963  22.743  0.00  0.00    +0.000 C 
ATOM     15  S   UNL     1      -6.298  16.744  22.479  0.00  0.00    +0.000 S 
ATOM     16  C   UNL     1      -4.480  16.684  22.371  0.00  0.00    +0.000 C 
ATOM     17  C   UNL     1      -4.004  15.665  21.328  0.00  0.00    +0.000 C 
ENDBRANCH   9  12
BRANCH   1  19
ATOM     18  C   UNL     1      -1.171  10.159  17.513  0.00  0.00    +0.000 C 
ATOM     19  C   UNL     1      -1.628  11.294  18.474  0.00  0.00    +0.000 C 
ATOM     20  C   UNL     1      -0.978  12.564  17.876  0.00  0.00    +0.000 C 
ATOM     21  C   UNL     1      -3.171  11.305  18.360  0.00  0.00    +0.000 C 
ENDBRANCH   1  19
BRANCH   8  22
ATOM     22  N   UNL     1      -3.792  13.342  24.454  0.00  0.00    +0.000 N 
ATOM     23  O   UNL     1      -4.661  12.616  24.957  0.00  0.00    +0.000 OA
ATOM     24  O   UNL     1      -3.451  14.455  24.878  0.00  0.00    +0.000 OA
ENDBRANCH   8  22
BRANCH   3  25
ATOM     25  C   UNL     1       1.460   8.906  21.585  0.00  0.00    +0.000 C 
ATOM     26  O   UNL     1       1.727   8.030  20.775  0.00  0.00    +0.000 OA
BRANCH  25  27
ATOM     27  O   UNL     1       2.227   9.130  22.675  0.00  0.00    +0.000 OA
ATOM     28  H   UNL     1       2.701   9.998  22.666  0.00  0.00    +0.000 HD
ENDBRANCH  25  27
ENDBRANCH   3  25
TORSDOF 5
ENDMDL
MODEL 4
REMARK VINA RESULT:      -6.0      3.176      4.870
REMARK  Name = 
REMARK  8 active torsions:
REMARK  status: ('A' for Active; 'I' for Inactive)
REMARK    1  A    between atoms: C_1  and  C_2
REMARK    2  A    between atoms: C_2  and  C_3
REMARK    3  A    between atoms: C_2  and  C_4
REMARK    4  A    between atoms: C_2  and  N_5
REMARK    5  A    between atoms: C_7  and  C_8
REMARK    6  A    between atoms: C_8  and  O_10
REMARK    7  A    between atoms: C_15  and  N_16
REMARK    8  A    between atoms: C_19  and  N_20
REMARK                            x       y       z     vdW  Elec       q    Type
REMARK                         _______ _______ _______ _____ _____    ______ ____
ROOT
ATOM      1  N   UNL     1      -1.150  11.128  19.979  0.00  0.00    +0.000 N 
ATOM      2  C   UNL     1      -0.092  10.255  20.272  0.00  0.00    +0.000 A 
ATOM      3  C   UNL     1       0.319   9.829  21.480  0.00  0.00    +0.000 A 
ATOM      4  C   UNL     1      -0.423  10.325  22.642  0.00  0.00    +0.000 A 
ATOM      5  O   UNL     1      -0.143   9.928  23.773  0.00  0.00    +0.000 OA
ATOM      6  C   UNL     1      -1.482  11.325  22.411  0.00  0.00    +0.000 A 
ATOM      7  C   UNL     1      -2.113  11.877  23.530  0.00  0.00    +0.000 A 
ATOM      8  C   UNL     1      -3.090  12.867  23.357  0.00  0.00    +0.000 A 
ATOM      9  C   UNL     1      -3.466  13.336  22.089  0.00  0.00    +0.000 A 
ATOM     10  C   UNL     1      -2.805  12.704  21.006  0.00  0.00    +0.000 A 
ATOM     11  C   UNL     1      -1.817  11.708  21.098  0.00  0.00    +0.000 A 
ENDROOT
BRANCH   9  12
ATOM     12  N   UNL     1      -4.368  14.352  21.801  0.00  0.00    +0.000 N 
ATOM     13  C   UNL     1      -4.018  15.783  21.875  0.00  0.00    +0.000 C 
ATOM     14  C   UNL     1      -4.103  16.465  20.503  0.00  0.00    +0.000 C 
ATOM     15  S   UNL     1      -5.762  16.365  19.756  0.00  0.00    +0.000 S 
ATOM     16  C   UNL     1      -5.974  14.560  19.894  0.00  0.00    +0.000 C 
ATOM     17  C   UNL     1      -5.742  14.066  21.327  0.00  0.00    +0.000 C 
ENDBRANCH   9  12
BRANCH   1  19
ATOM     18  C   UNL     1      -3.126  11.635  18.424  0.00  0.00    +0.000 C 
ATOM     19  C   UNL     1      -1.591  11.415  18.540  0.00  0.00    +0.000 C 
ATOM     20  C   UNL     1      -1.320  10.219  17.598  0.00  0.00    +0.000 C 
ATOM     21  C   UNL     1      -0.967  12.734  18.022  0.00  0.00    +0.000 C 
ENDBRANCH   1  19
BRANCH   8  22
ATOM     22  N   UNL     1      -3.726  13.331  24.575  0.00  0.00    +0.000 N 
ATOM     23  O   UNL     1      -4.622  12.614  25.045  0.00  0.00    +0.000 OA
ATOM     24  O   UNL     1      -3.354  14.415  25.042  0.00  0.00    +0.000 OA
ENDBRANCH   8  22
BRANCH   3  25
ATOM     25  C   UNL     1       1.479   8.920  21.584  0.00  0.00    +0.000 C 
ATOM     26  O   UNL     1       1.708   8.029  20.778  0.00  0.00    +0.000 OA
BRANCH  25  27
ATOM     27  O   UNL     1       2.285   9.149  22.645  0.00  0.00    +0.000 OA
ATOM     28  H   UNL     1       2.445  10.106  22.834  0.00  0.00    +0.000 HD
ENDBRANCH  25  27
ENDBRANCH   3  25
TORSDOF 5
ENDMDL
MODEL 5
REMARK VINA RESULT:      -6.0      3.161      4.839
REMARK  Name = 
REMARK  8 active torsions:
REMARK  status: ('A' for Active; 'I' for Inactive)
REMARK    1  A    between atoms: C_1  and  C_2
REMARK    2  A    between atoms: C_2  and  C_3
REMARK    3  A    between atoms: C_2  and  C_4
REMARK    4  A    between atoms: C_2  and  N_5
REMARK    5  A    between atoms: C_7  and  C_8
REMARK    6  A    between atoms: C_8  and  O_10
REMARK    7  A    between atoms: C_15  and  N_16
REMARK    8  A    between atoms: C_19  and  N_20
REMARK                            x       y       z     vdW  Elec       q    Type
REMARK                         _______ _______ _______ _____ _____    ______ ____
ROOT
ATOM      1  N   UNL     1      -1.192  11.167  19.975  0.00  0.00    +0.000 N 
ATOM      2  C   UNL     1      -0.134  10.293  20.262  0.00  0.00    +0.000 A 
ATOM      3  C   UNL     1       0.284   9.867  21.467  0.00  0.00    +0.000 A 
ATOM      4  C   UNL     1      -0.451  10.364  22.634  0.00  0.00    +0.000 A 
ATOM      5  O   UNL     1      -0.165   9.967  23.763  0.00  0.00    +0.000 OA
ATOM      6  C   UNL     1      -1.510  11.365  22.409  0.00  0.00    +0.000 A 
ATOM      7  C   UNL     1      -2.133  11.918  23.532  0.00  0.00    +0.000 A 
ATOM      8  C   UNL     1      -3.110  12.909  23.364  0.00  0.00    +0.000 A 
ATOM      9  C   UNL     1      -3.493  13.379  22.099  0.00  0.00    +0.000 A 
ATOM     10  C   UNL     1      -2.839  12.746  21.012  0.00  0.00    +0.000 A 
ATOM     11  C   UNL     1      -1.852  11.749  21.098  0.00  0.00    +0.000 A 
ENDROOT
BRANCH   9  12
ATOM     12  N   UNL     1      -4.395  14.396  21.816  0.00  0.00    +0.000 N 
ATOM     13  C   UNL     1      -4.042  15.826  21.886  0.00  0.00    +0.000 C 
ATOM     14  C   UNL     1      -4.136  16.507  20.515  0.00  0.00    +0.000 C 
ATOM     15  S   UNL     1      -5.800  16.409  19.779  0.00  0.00    +0.000 S 
ATOM     16  C   UNL     1      -6.014  14.605  19.919  0.00  0.00    +0.000 C 
ATOM     17  C   UNL     1      -5.773  14.111  21.351  0.00  0.00    +0.000 C 
ENDBRANCH   9  12
BRANCH   1  19
ATOM     18  C   UNL     1      -1.264  10.308  17.559  0.00  0.00    +0.000 C 
ATOM     19  C   UNL     1      -1.641  11.455  18.539  0.00  0.00    +0.000 C 
ATOM     20  C   UNL     1      -0.930  12.693  17.944  0.00  0.00    +0.000 C 
ATOM     21  C   UNL     1      -3.183  11.555  18.450  0.00  0.00    +0.000 C 
ENDBRANCH   1  19
BRANCH   8  22
ATOM     22  N   UNL     1      -3.738  13.374  24.586  0.00  0.00    +0.000 N 
ATOM     23  O   UNL     1      -3.336  14.452  25.046  0.00  0.00    +0.000 OA
ATOM     24  O   UNL     1      -4.607  12.654  25.096  0.00  0.00    +0.000 OA
ENDBRANCH   8  22
BRANCH   3  25
ATOM     25  C   UNL     1       1.443   8.956  21.565  0.00  0.00    +0.000 C 
ATOM     26  O   UNL     1       1.685   8.087  20.739  0.00  0.00    +0.000 OA
BRANCH  25  27
ATOM     27  O   UNL     1       2.233   9.158  22.643  0.00  0.00    +0.000 OA
ATOM     28  H   UNL     1       2.788   9.974  22.593  0.00  0.00    +0.000 HD
ENDBRANCH  25  27
ENDBRANCH   3  25
TORSDOF 5
ENDMDL
MODEL 6
REMARK VINA RESULT:      -6.0      3.196      4.886
REMARK  Name = 
REMARK  8 active torsions:
REMARK  status: ('A' for Active; 'I' for Inactive)
REMARK    1  A    between atoms: C_1  and  C_2
REMARK    2  A    between atoms: C_2  and  C_3
REMARK    3  A    between atoms: C_2  and  C_4
REMARK    4  A    between atoms: C_2  and  N_5
REMARK    5  A    between atoms: C_7  and  C_8
REMARK    6  A    between atoms: C_8  and  O_10
REMARK    7  A    between atoms: C_15  and  N_16
REMARK    8  A    between atoms: C_19  and  N_20
REMARK                            x       y       z     vdW  Elec       q    Type
REMARK                         _______ _______ _______ _____ _____    ______ ____
ROOT
ATOM      1  N   UNL     1      -1.114  11.081  19.951  0.00  0.00    +0.000 N 
ATOM      2  C   UNL     1      -0.073  10.198  20.274  0.00  0.00    +0.000 A 
ATOM      3  C   UNL     1       0.316   9.789  21.494  0.00  0.00    +0.000 A 
ATOM      4  C   UNL     1      -0.434  10.317  22.637  0.00  0.00    +0.000 A 
ATOM      5  O   UNL     1      -0.174   9.937  23.779  0.00  0.00    +0.000 OA
ATOM      6  C   UNL     1      -1.475  11.328  22.374  0.00  0.00    +0.000 A 
ATOM      7  C   UNL     1      -2.111  11.909  23.475  0.00  0.00    +0.000 A 
ATOM      8  C   UNL     1      -3.071  12.910  23.272  0.00  0.00    +0.000 A 
ATOM      9  C   UNL     1      -3.424  13.361  21.991  0.00  0.00    +0.000 A 
ATOM     10  C   UNL     1      -2.759  12.699  20.929  0.00  0.00    +0.000 A 
ATOM     11  C   UNL     1      -1.787  11.691  21.051  0.00  0.00    +0.000 A 
ENDROOT
BRANCH   9  12
ATOM     12  N   UNL     1      -4.307  14.384  21.673  0.00  0.00    +0.000 N 
ATOM     13  C   UNL     1      -5.757  14.172  21.504  0.00  0.00    +0.000 C 
ATOM     14  C   UNL     1      -6.574  14.932  22.557  0.00  0.00    +0.000 C 
ATOM     15  S   UNL     1      -6.295  16.733  22.516  0.00  0.00    +0.000 S 
ATOM     16  C   UNL     1      -4.477  16.692  22.625  0.00  0.00    +0.000 C 
ATOM     17  C   UNL     1      -3.861  15.791  21.547  0.00  0.00    +0.000 C 
ENDBRANCH   9  12
BRANCH   1  19
ATOM     18  C   UNL     1      -3.069  11.551  18.357  0.00  0.00    +0.000 C 
ATOM     19  C   UNL     1      -1.533  11.348  18.502  0.00  0.00    +0.000 C 
ATOM     20  C   UNL     1      -1.234  10.145  17.578  0.00  0.00    +0.000 C 
ATOM     21  C   UNL     1      -0.913  12.667  17.981  0.00  0.00    +0.000 C 
ENDBRANCH   1  19
BRANCH   8  22
ATOM     22  N   UNL     1      -3.716  13.405  24.473  0.00  0.00    +0.000 N 
ATOM     23  O   UNL     1      -3.224  14.415  24.995  0.00  0.00    +0.000 OA
ATOM     24  O   UNL     1      -4.688  12.773  24.907  0.00  0.00    +0.000 OA
ENDBRANCH   8  22
BRANCH   3  25
ATOM     25  C   UNL     1       1.461   8.865  21.630  0.00  0.00    +0.000 C 
ATOM     26  O   UNL     1       1.631   7.896  20.903  0.00  0.00    +0.000 OA
BRANCH  25  27
ATOM     27  O   UNL     1       2.323   9.174  22.624  0.00  0.00    +0.000 OA
ATOM     28  H   UNL     1       3.240   8.831  22.488  0.00  0.00    +0.000 HD
ENDBRANCH  25  27
ENDBRANCH   3  25
TORSDOF 5
ENDMDL
MODEL 7
REMARK VINA RESULT:      -5.9      2.390      4.033
REMARK  Name = 
REMARK  8 active torsions:
REMARK  status: ('A' for Active; 'I' for Inactive)
REMARK    1  A    between atoms: C_1  and  C_2
REMARK    2  A    between atoms: C_2  and  C_3
REMARK    3  A    between atoms: C_2  and  C_4
REMARK    4  A    between atoms: C_2  and  N_5
REMARK    5  A    between atoms: C_7  and  C_8
REMARK    6  A    between atoms: C_8  and  O_10
REMARK    7  A    between atoms: C_15  and  N_16
REMARK    8  A    between atoms: C_19  and  N_20
REMARK                            x       y       z     vdW  Elec       q    Type
REMARK                         _______ _______ _______ _____ _____    ______ ____
ROOT
ATOM      1  N   UNL     1      -1.281  10.817  18.306  0.00  0.00    +0.000 N 
ATOM      2  C   UNL     1      -1.723  10.383  17.048  0.00  0.00    +0.000 A 
ATOM      3  C   UNL     1      -2.894  10.653  16.444  0.00  0.00    +0.000 A 
ATOM      4  C   UNL     1      -3.831  11.509  17.175  0.00  0.00    +0.000 A 
ATOM      5  O   UNL     1      -4.895  11.848  16.657  0.00  0.00    +0.000 OA
ATOM      6  C   UNL     1      -3.471  11.916  18.546  0.00  0.00    +0.000 A 
ATOM      7  C   UNL     1      -4.416  12.641  19.280  0.00  0.00    +0.000 A 
ATOM      8  C   UNL     1      -4.133  13.005  20.603  0.00  0.00    +0.000 A 
ATOM      9  C   UNL     1      -2.926  12.667  21.233  0.00  0.00    +0.000 A 
ATOM     10  C   UNL     1      -2.010  11.963  20.412  0.00  0.00    +0.000 A 
ATOM     11  C   UNL     1      -2.219  11.561  19.081  0.00  0.00    +0.000 A 
ENDROOT
BRANCH   9  12
ATOM     12  N   UNL     1      -2.566  12.916  22.551  0.00  0.00    +0.000 N 
ATOM     13  C   UNL     1      -1.501  13.864  22.928  0.00  0.00    +0.000 C 
ATOM     14  C   UNL     1      -2.048  15.047  23.739  0.00  0.00    +0.000 C 
ATOM     15  S   UNL     1      -2.873  14.537  25.281  0.00  0.00    +0.000 S 
ATOM     16  C   UNL     1      -4.018  13.326  24.547  0.00  0.00    +0.000 C 
ATOM     17  C   UNL     1      -3.281  12.291  23.687  0.00  0.00    +0.000 C 
ENDBRANCH   9  12
BRANCH   1  19
ATOM     18  C   UNL     1       0.923   9.577  17.871  0.00  0.00    +0.000 C 
ATOM     19  C   UNL     1       0.140  10.543  18.807  0.00  0.00    +0.000 C 
ATOM     20  C   UNL     1       0.146   9.814  20.171  0.00  0.00    +0.000 C 
ATOM     21  C   UNL     1       0.983  11.841  18.823  0.00  0.00    +0.000 C 
ENDBRANCH   1  19
BRANCH   8  22
ATOM     22  N   UNL     1      -5.150  13.806  21.257  0.00  0.00    +0.000 N 
ATOM     23  O   UNL     1      -6.168  13.211  21.640  0.00  0.00    +0.000 OA
ATOM     24  O   UNL     1      -4.947  15.023  21.361  0.00  0.00    +0.000 OA
ENDBRANCH   8  22
BRANCH   3  25
ATOM     25  C   UNL     1      -3.186  10.077  15.114  0.00  0.00    +0.000 C 
ATOM     26  O   UNL     1      -2.321   9.827  14.287  0.00  0.00    +0.000 OA
BRANCH  25  27
ATOM     27  O   UNL     1      -4.494   9.836  14.877  0.00  0.00    +0.000 OA
ATOM     28  H   UNL     1      -4.951   9.332  15.594  0.00  0.00    +0.000 HD
ENDBRANCH  25  27
ENDBRANCH   3  25
TORSDOF 5
ENDMDL
MODEL 8
REMARK VINA RESULT:      -5.9      0.167      1.050
REMARK  Name = 
REMARK  8 active torsions:
REMARK  status: ('A' for Active; 'I' for Inactive)
REMARK    1  A    between atoms: C_1  and  C_2
REMARK    2  A    between atoms: C_2  and  C_3
REMARK    3  A    between atoms: C_2  and  C_4
REMARK    4  A    between atoms: C_2  and  N_5
REMARK    5  A    between atoms: C_7  and  C_8
REMARK    6  A    between atoms: C_8  and  O_10
REMARK    7  A    between atoms: C_15  and  N_16
REMARK    8  A    between atoms: C_19  and  N_20
REMARK                            x       y       z     vdW  Elec       q    Type
REMARK                         _______ _______ _______ _____ _____    ______ ____
ROOT
ATOM      1  N   UNL     1      -4.828  12.129  18.368  0.00  0.00    +0.000 N 
ATOM      2  C   UNL     1      -4.481  11.535  17.147  0.00  0.00    +0.000 A 
ATOM      3  C   UNL     1      -3.312  10.961  16.808  0.00  0.00    +0.000 A 
ATOM      4  C   UNL     1      -2.266  10.942  17.833  0.00  0.00    +0.000 A 
ATOM      5  O   UNL     1      -1.194  10.378  17.615  0.00  0.00    +0.000 OA
ATOM      6  C   UNL     1      -2.531  11.639  19.105  0.00  0.00    +0.000 A 
ATOM      7  C   UNL     1      -1.490  11.713  20.037  0.00  0.00    +0.000 A 
ATOM      8  C   UNL     1      -1.684  12.410  21.238  0.00  0.00    +0.000 A 
ATOM      9  C   UNL     1      -2.895  13.047  21.548  0.00  0.00    +0.000 A 
ATOM     10  C   UNL     1      -3.907  12.899  20.568  0.00  0.00    +0.000 A 
ATOM     11  C   UNL     1      -3.791  12.219  19.343  0.00  0.00    +0.000 A 
ENDROOT
BRANCH   9  12
ATOM     12  N   UNL     1      -3.177  13.816  22.669  0.00  0.00    +0.000 N 
ATOM     13  C   UNL     1      -2.575  15.142  22.909  0.00  0.00    +0.000 C 
ATOM     14  C   UNL     1      -3.629  16.256  22.918  0.00  0.00    +0.000 C 
ATOM     15  S   UNL     1      -4.910  16.020  24.192  0.00  0.00    +0.000 S 
ATOM     16  C   UNL     1      -5.383  14.320  23.739  0.00  0.00    +0.000 C 
ATOM     17  C   UNL     1      -4.168  13.385  23.683  0.00  0.00    +0.000 C 
ENDBRANCH   9  12
BRANCH   1  19
ATOM     18  C   UNL     1      -6.270  14.061  19.247  0.00  0.00    +0.000 C 
ATOM     19  C   UNL     1      -6.250  12.621  18.657  0.00  0.00    +0.000 C 
ATOM     20  C   UNL     1      -6.951  11.771  19.743  0.00  0.00    +0.000 C 
ATOM     21  C   UNL     1      -7.078  12.721  17.354  0.00  0.00    +0.000 C 
ENDBRANCH   1  19
BRANCH   8  22
ATOM     22  N   UNL     1      -0.567  12.376  22.162  0.00  0.00    +0.000 N 
ATOM     23  O   UNL     1       0.367  13.160  21.938  0.00  0.00    +0.000 OA
ATOM     24  O   UNL     1      -0.609  11.553  23.086  0.00  0.00    +0.000 OA
ENDBRANCH   8  22
BRANCH   3  25
ATOM     25  C   UNL     1      -3.131  10.406  15.450  0.00  0.00    +0.000 C 
ATOM     26  O   UNL     1      -3.589  10.930  14.445  0.00  0.00    +0.000 OA
BRANCH  25  27
ATOM     27  O   UNL     1      -2.407   9.266  15.397  0.00  0.00    +0.000 OA
ATOM     28  H   UNL     1      -2.114   8.930  16.279  0.00  0.00    +0.000 HD
ENDBRANCH  25  27
ENDBRANCH   3  25
TORSDOF 5
ENDMDL
MODEL 9
REMARK VINA RESULT:      -5.9      2.412      5.003
REMARK  Name = 
REMARK  8 active torsions:
REMARK  status: ('A' for Active; 'I' for Inactive)
REMARK    1  A    between atoms: C_1  and  C_2
REMARK    2  A    between atoms: C_2  and  C_3
REMARK    3  A    between atoms: C_2  and  C_4
REMARK    4  A    between atoms: C_2  and  N_5
REMARK    5  A    between atoms: C_7  and  C_8
REMARK    6  A    between atoms: C_8  and  O_10
REMARK    7  A    between atoms: C_15  and  N_16
REMARK    8  A    between atoms: C_19  and  N_20
REMARK                            x       y       z     vdW  Elec       q    Type
REMARK                         _______ _______ _______ _____ _____    ______ ____
ROOT
ATOM      1  N   UNL     1      -0.985  12.388  20.388  0.00  0.00    +0.000 N 
ATOM      2  C   UNL     1       0.026  11.555  19.887  0.00  0.00    +0.000 A 
ATOM      3  C   UNL     1      -0.051  10.683  18.866  0.00  0.00    +0.000 A 
ATOM      4  C   UNL     1      -1.342  10.582  18.180  0.00  0.00    +0.000 A 
ATOM      5  O   UNL     1      -1.467   9.851  17.198  0.00  0.00    +0.000 OA
ATOM      6  C   UNL     1      -2.475  11.355  18.721  0.00  0.00    +0.000 A 
ATOM      7  C   UNL     1      -3.730  11.172  18.132  0.00  0.00    +0.000 A 
ATOM      8  C   UNL     1      -4.843  11.849  18.648  0.00  0.00    +0.000 A 
ATOM      9  C   UNL     1      -4.750  12.715  19.748  0.00  0.00    +0.000 A 
ATOM     10  C   UNL     1      -3.441  12.871  20.267  0.00  0.00    +0.000 A 
ATOM     11  C   UNL     1      -2.278  12.228  19.808  0.00  0.00    +0.000 A 
ENDROOT
BRANCH   9  12
ATOM     12  N   UNL     1      -5.789  13.384  20.381  0.00  0.00    +0.000 N 
ATOM     13  C   UNL     1      -6.715  12.725  21.323  0.00  0.00    +0.000 C 
ATOM     14  C   UNL     1      -6.600  13.304  22.739  0.00  0.00    +0.000 C 
ATOM     15  S   UNL     1      -6.953  15.090  22.813  0.00  0.00    +0.000 S 
ATOM     16  C   UNL     1      -5.788  15.615  21.514  0.00  0.00    +0.000 C 
ATOM     17  C   UNL     1      -6.002  14.840  20.208  0.00  0.00    +0.000 C 
ENDBRANCH   9  12
BRANCH   1  19
ATOM     18  C   UNL     1      -1.128  12.945  22.888  0.00  0.00    +0.000 C 
ATOM     19  C   UNL     1      -0.712  13.436  21.472  0.00  0.00    +0.000 C 
ATOM     20  C   UNL     1      -1.553  14.717  21.267  0.00  0.00    +0.000 C 
ATOM     21  C   UNL     1       0.803  13.730  21.589  0.00  0.00    +0.000 C 
ENDBRANCH   1  19
BRANCH   8  22
ATOM     22  N   UNL     1      -6.085  11.639  17.929  0.00  0.00    +0.000 N 
ATOM     23  O   UNL     1      -6.772  10.668  18.275  0.00  0.00    +0.000 OA
ATOM     24  O   UNL     1      -6.356  12.421  17.008  0.00  0.00    +0.000 OA
ENDBRANCH   8  22
BRANCH   3  25
ATOM     25  C   UNL     1       1.130   9.872  18.501  0.00  0.00    +0.000 C 
ATOM     26  O   UNL     1       1.537   8.938  19.177  0.00  0.00    +0.000 OA
BRANCH  25  27
ATOM     27  O   UNL     1       1.732  10.237  17.347  0.00  0.00    +0.000 OA
ATOM     28  H   UNL     1       1.551  11.169  17.072  0.00  0.00    +0.000 HD
ENDBRANCH  25  27
ENDBRANCH   3  25
TORSDOF 5
ENDMDL
