MODEL 1
REMARK VINA RESULT:      -7.6      0.000      0.000
REMARK  Name = 
REMARK  4 active torsions:
REMARK  status: ('A' for Active; 'I' for Inactive)
REMARK    1  A    between atoms: C_4  and  C_5
REMARK    2  A    between atoms: C_7  and  N_8
REMARK    3  A    between atoms: N_8  and  C_9
REMARK    4  A    between atoms: C_9  and  C_10
REMARK                            x       y       z     vdW  Elec       q    Type
REMARK                         _______ _______ _______ _____ _____    ______ ____
ROOT
ATOM      1  N   UNL     1       3.085   2.921  19.559  0.00  0.00    +0.000 NA
ATOM      2  H   UNL     1       2.577   2.080  19.829  0.00  0.00    +0.000 HD
ENDROOT
BRANCH   1   5
ATOM      3  C   UNL     1       2.505   5.354  20.225  0.00  0.00    +0.000 C 
ATOM      4  C   UNL     1       1.326   4.489  20.598  0.00  0.00    +0.000 C 
ATOM      5  C   UNL     1       2.196   4.088  19.447  0.00  0.00    +0.000 C 
BRANCH   3   9
ATOM      6  C   UNL     1       1.731   9.279  18.553  0.00  0.00    +0.000 A 
ATOM      7  C   UNL     1       1.315   8.972  19.846  0.00  0.00    +0.000 A 
ATOM      8  C   UNL     1       1.575   7.707  20.378  0.00  0.00    +0.000 A 
ATOM      9  C   UNL     1       2.244   6.719  19.635  0.00  0.00    +0.000 A 
ATOM     10  C   UNL     1       2.675   7.063  18.344  0.00  0.00    +0.000 A 
ATOM     11  C   UNL     1       2.418   8.327  17.805  0.00  0.00    +0.000 A 
ENDBRANCH   3   9
ENDBRANCH   1   5
BRANCH   1  12
ATOM     12  C   UNL     1       3.804   2.656  18.311  0.00  0.00    +0.000 C 
BRANCH  12  13
ATOM     13  C   UNL     1       4.615   3.846  17.855  0.00  0.00    +0.000 A 
ATOM     14  C   UNL     1       4.414   4.397  16.584  0.00  0.00    +0.000 A 
ATOM     15  C   UNL     1       5.189   5.463  16.114  0.00  0.00    +0.000 A 
ATOM     16  C   UNL     1       6.180   5.966  16.964  0.00  0.00    +0.000 A 
ATOM     17  N   UNL     1       7.080   6.990  16.772  0.00  0.00    +0.000 N 
ATOM     18  C   UNL     1       7.871   7.138  17.880  0.00  0.00    +0.000 A 
ATOM     19  C   UNL     1       7.480   6.198  18.805  0.00  0.00    +0.000 A 
ATOM     20  C   UNL     1       6.409   5.452  18.239  0.00  0.00    +0.000 A 
ATOM     21  C   UNL     1       5.615   4.379  18.692  0.00  0.00    +0.000 A 
ATOM     22  H   UNL     1       7.144   7.545  15.931  0.00  0.00    +0.000 HD
ENDBRANCH  12  13
ENDBRANCH   1  12
TORSDOF 4
ENDMDL
MODEL 2
REMARK VINA RESULT:      -7.5      0.389      1.142
REMARK  Name = 
REMARK  4 active torsions:
REMARK  status: ('A' for Active; 'I' for Inactive)
REMARK    1  A    between atoms: C_4  and  C_5
REMARK    2  A    between atoms: C_7  and  N_8
REMARK    3  A    between atoms: N_8  and  C_9
REMARK    4  A    between atoms: C_9  and  C_10
REMARK                            x       y       z     vdW  Elec       q    Type
REMARK                         _______ _______ _______ _____ _____    ______ ____
ROOT
ATOM      1  N   UNL     1       3.235   3.124  19.222  0.00  0.00    +0.000 NA
ATOM      2  H   UNL     1       2.773   2.236  19.412  0.00  0.00    +0.000 HD
ENDROOT
BRANCH   1   5
ATOM      3  C   UNL     1       2.604   5.484  20.074  0.00  0.00    +0.000 C 
ATOM      4  C   UNL     1       1.497   4.545  20.484  0.00  0.00    +0.000 C 
ATOM      5  C   UNL     1       2.289   4.252  19.247  0.00  0.00    +0.000 C 
BRANCH   3   9
ATOM      6  C   UNL     1       1.579   9.452  18.655  0.00  0.00    +0.000 A 
ATOM      7  C   UNL     1       2.252   8.560  17.823  0.00  0.00    +0.000 A 
ATOM      8  C   UNL     1       2.572   7.282  18.287  0.00  0.00    +0.000 A 
ATOM      9  C   UNL     1       2.239   6.867  19.588  0.00  0.00    +0.000 A 
ATOM     10  C   UNL     1       1.539   7.776  20.397  0.00  0.00    +0.000 A 
ATOM     11  C   UNL     1       1.216   9.057  19.939  0.00  0.00    +0.000 A 
ENDBRANCH   3   9
ENDBRANCH   1   5
BRANCH   1  12
ATOM     12  C   UNL     1       3.934   3.023  17.939  0.00  0.00    +0.000 C 
BRANCH  12  13
ATOM     13  C   UNL     1       4.765   4.250  17.643  0.00  0.00    +0.000 A 
ATOM     14  C   UNL     1       4.544   4.993  16.477  0.00  0.00    +0.000 A 
ATOM     15  C   UNL     1       5.334   6.100  16.150  0.00  0.00    +0.000 A 
ATOM     16  C   UNL     1       6.361   6.445  17.035  0.00  0.00    +0.000 A 
ATOM     17  N   UNL     1       7.283   7.466  16.972  0.00  0.00    +0.000 N 
ATOM     18  C   UNL     1       8.108   7.426  18.065  0.00  0.00    +0.000 A 
ATOM     19  C   UNL     1       7.717   6.365  18.849  0.00  0.00    +0.000 A 
ATOM     20  C   UNL     1       6.611   5.738  18.209  0.00  0.00    +0.000 A 
ATOM     21  C   UNL     1       5.802   4.627  18.519  0.00  0.00    +0.000 A 
ATOM     22  H   UNL     1       7.339   8.141  16.223  0.00  0.00    +0.000 HD
ENDBRANCH  12  13
ENDBRANCH   1  12
TORSDOF 4
ENDMDL
MODEL 3
REMARK VINA RESULT:      -7.2      1.660      4.388
REMARK  Name = 
REMARK  4 active torsions:
REMARK  status: ('A' for Active; 'I' for Inactive)
REMARK    1  A    between atoms: C_4  and  C_5
REMARK    2  A    between atoms: C_7  and  N_8
REMARK    3  A    between atoms: N_8  and  C_9
REMARK    4  A    between atoms: C_9  and  C_10
REMARK                            x       y       z     vdW  Elec       q    Type
REMARK                         _______ _______ _______ _____ _____    ______ ____
ROOT
ATOM      1  N   UNL     1       5.042   4.794  16.252  0.00  0.00    +0.000 NA
ATOM      2  H   UNL     1       5.974   4.874  15.847  0.00  0.00    +0.000 HD
ENDROOT
BRANCH   1   5
ATOM      3  C   UNL     1       3.872   6.982  16.986  0.00  0.00    +0.000 C 
ATOM      4  C   UNL     1       5.359   7.198  17.120  0.00  0.00    +0.000 C 
ATOM      5  C   UNL     1       4.799   5.818  17.281  0.00  0.00    +0.000 C 
BRANCH   3   9
ATOM      6  C   UNL     1       1.247   8.565  20.053  0.00  0.00    +0.000 A 
ATOM      7  C   UNL     1       1.895   7.347  20.243  0.00  0.00    +0.000 A 
ATOM      8  C   UNL     1       2.743   6.848  19.252  0.00  0.00    +0.000 A 
ATOM      9  C   UNL     1       2.959   7.544  18.049  0.00  0.00    +0.000 A 
ATOM     10  C   UNL     1       2.313   8.781  17.894  0.00  0.00    +0.000 A 
ATOM     11  C   UNL     1       1.462   9.285  18.882  0.00  0.00    +0.000 A 
ENDBRANCH   3   9
ENDBRANCH   1   5
BRANCH   1  12
ATOM     12  C   UNL     1       4.874   3.437  16.777  0.00  0.00    +0.000 C 
BRANCH  12  13
ATOM     13  C   UNL     1       3.704   3.333  17.727  0.00  0.00    +0.000 A 
ATOM     14  C   UNL     1       2.404   3.603  17.284  0.00  0.00    +0.000 A 
ATOM     15  C   UNL     1       1.309   3.570  18.155  0.00  0.00    +0.000 A 
ATOM     16  C   UNL     1       1.558   3.251  19.494  0.00  0.00    +0.000 A 
ATOM     17  N   UNL     1       0.691   3.148  20.558  0.00  0.00    +0.000 N 
ATOM     18  C   UNL     1       1.377   2.812  21.696  0.00  0.00    +0.000 A 
ATOM     19  C   UNL     1       2.708   2.696  21.366  0.00  0.00    +0.000 A 
ATOM     20  C   UNL     1       2.835   2.968  19.975  0.00  0.00    +0.000 A 
ATOM     21  C   UNL     1       3.923   3.007  19.080  0.00  0.00    +0.000 A 
ATOM     22  H   UNL     1      -0.305   3.302  20.502  0.00  0.00    +0.000 HD
ENDBRANCH  12  13
ENDBRANCH   1  12
TORSDOF 4
ENDMDL
MODEL 4
REMARK VINA RESULT:      -7.0      1.300      2.156
REMARK  Name = 
REMARK  4 active torsions:
REMARK  status: ('A' for Active; 'I' for Inactive)
REMARK    1  A    between atoms: C_4  and  C_5
REMARK    2  A    between atoms: C_7  and  N_8
REMARK    3  A    between atoms: N_8  and  C_9
REMARK    4  A    between atoms: C_9  and  C_10
REMARK                            x       y       z     vdW  Elec       q    Type
REMARK                         _______ _______ _______ _____ _____    ______ ____
ROOT
ATOM      1  N   UNL     1       2.811   3.590  18.747  0.00  0.00    +0.000 NA
ATOM      2  H   UNL     1       2.812   3.549  17.729  0.00  0.00    +0.000 HD
ENDROOT
BRANCH   1   5
ATOM      3  C   UNL     1       2.807   6.021  19.635  0.00  0.00    +0.000 C 
ATOM      4  C   UNL     1       2.165   5.153  20.690  0.00  0.00    +0.000 C 
ATOM      5  C   UNL     1       2.064   4.755  19.249  0.00  0.00    +0.000 C 
BRANCH   3   9
ATOM      6  C   UNL     1       1.100   9.936  18.885  0.00  0.00    +0.000 A 
ATOM      7  C   UNL     1       0.965   9.339  20.136  0.00  0.00    +0.000 A 
ATOM      8  C   UNL     1       1.524   8.081  20.370  0.00  0.00    +0.000 A 
ATOM      9  C   UNL     1       2.220   7.385  19.365  0.00  0.00    +0.000 A 
ATOM     10  C   UNL     1       2.362   8.021  18.121  0.00  0.00    +0.000 A 
ATOM     11  C   UNL     1       1.804   9.280  17.879  0.00  0.00    +0.000 A 
ENDBRANCH   3   9
ENDBRANCH   1   5
BRANCH   1  12
ATOM     12  C   UNL     1       4.197   3.582  19.219  0.00  0.00    +0.000 C 
BRANCH  12  13
ATOM     13  C   UNL     1       5.167   4.030  18.151  0.00  0.00    +0.000 A 
ATOM     14  C   UNL     1       6.308   4.766  18.493  0.00  0.00    +0.000 A 
ATOM     15  C   UNL     1       7.194   5.242  17.520  0.00  0.00    +0.000 A 
ATOM     16  C   UNL     1       6.900   4.954  16.182  0.00  0.00    +0.000 A 
ATOM     17  N   UNL     1       7.578   5.291  15.032  0.00  0.00    +0.000 N 
ATOM     18  C   UNL     1       6.922   4.795  13.935  0.00  0.00    +0.000 A 
ATOM     19  C   UNL     1       5.804   4.129  14.379  0.00  0.00    +0.000 A 
ATOM     20  C   UNL     1       5.780   4.220  15.799  0.00  0.00    +0.000 A 
ATOM     21  C   UNL     1       4.902   3.749  16.796  0.00  0.00    +0.000 A 
ATOM     22  H   UNL     1       8.432   5.828  15.007  0.00  0.00    +0.000 HD
ENDBRANCH  12  13
ENDBRANCH   1  12
TORSDOF 4
ENDMDL
MODEL 5
REMARK VINA RESULT:      -7.0      1.220      2.321
REMARK  Name = 
REMARK  4 active torsions:
REMARK  status: ('A' for Active; 'I' for Inactive)
REMARK    1  A    between atoms: C_4  and  C_5
REMARK    2  A    between atoms: C_7  and  N_8
REMARK    3  A    between atoms: N_8  and  C_9
REMARK    4  A    between atoms: C_9  and  C_10
REMARK                            x       y       z     vdW  Elec       q    Type
REMARK                         _______ _______ _______ _____ _____    ______ ____
ROOT
ATOM      1  N   UNL     1       3.247   3.480  19.634  0.00  0.00    +0.000 NA
ATOM      2  H   UNL     1       2.945   2.755  20.283  0.00  0.00    +0.000 HD
ENDROOT
BRANCH   1   5
ATOM      3  C   UNL     1       2.603   5.914  20.233  0.00  0.00    +0.000 C 
ATOM      4  C   UNL     1       1.526   5.013  20.784  0.00  0.00    +0.000 C 
ATOM      5  C   UNL     1       2.284   4.591  19.563  0.00  0.00    +0.000 C 
BRANCH   3   9
ATOM      6  C   UNL     1       1.466   9.680  18.408  0.00  0.00    +0.000 A 
ATOM      7  C   UNL     1       2.185   8.735  17.680  0.00  0.00    +0.000 A 
ATOM      8  C   UNL     1       2.541   7.523  18.275  0.00  0.00    +0.000 A 
ATOM      9  C   UNL     1       2.199   7.227  19.606  0.00  0.00    +0.000 A 
ATOM     10  C   UNL     1       1.451   8.185  20.308  0.00  0.00    +0.000 A 
ATOM     11  C   UNL     1       1.092   9.402  19.720  0.00  0.00    +0.000 A 
ENDBRANCH   3   9
ENDBRANCH   1   5
BRANCH   1  12
ATOM     12  C   UNL     1       3.479   2.871  18.323  0.00  0.00    +0.000 C 
BRANCH  12  13
ATOM     13  C   UNL     1       4.628   3.519  17.586  0.00  0.00    +0.000 A 
ATOM     14  C   UNL     1       5.606   4.235  18.286  0.00  0.00    +0.000 A 
ATOM     15  C   UNL     1       6.649   4.893  17.625  0.00  0.00    +0.000 A 
ATOM     16  C   UNL     1       6.685   4.808  16.229  0.00  0.00    +0.000 A 
ATOM     17  N   UNL     1       7.576   5.347  15.329  0.00  0.00    +0.000 N 
ATOM     18  C   UNL     1       7.221   5.006  14.050  0.00  0.00    +0.000 A 
ATOM     19  C   UNL     1       6.083   4.235  14.121  0.00  0.00    +0.000 A 
ATOM     20  C   UNL     1       5.736   4.100  15.494  0.00  0.00    +0.000 A 
ATOM     21  C   UNL     1       4.695   3.445  16.181  0.00  0.00    +0.000 A 
ATOM     22  H   UNL     1       8.372   5.914  15.581  0.00  0.00    +0.000 HD
ENDBRANCH  12  13
ENDBRANCH   1  12
TORSDOF 4
ENDMDL
MODEL 6
REMARK VINA RESULT:      -7.0      4.124      7.826
REMARK  Name = 
REMARK  4 active torsions:
REMARK  status: ('A' for Active; 'I' for Inactive)
REMARK    1  A    between atoms: C_4  and  C_5
REMARK    2  A    between atoms: C_7  and  N_8
REMARK    3  A    between atoms: N_8  and  C_9
REMARK    4  A    between atoms: C_9  and  C_10
REMARK                            x       y       z     vdW  Elec       q    Type
REMARK                         _______ _______ _______ _____ _____    ______ ____
ROOT
ATOM      1  N   UNL     1       1.920   9.415  18.333  0.00  0.00    +0.000 NA
ATOM      2  H   UNL     1       1.701   9.983  17.516  0.00  0.00    +0.000 HD
ENDROOT
BRANCH   1   5
ATOM      3  C   UNL     1       2.656   7.021  18.984  0.00  0.00    +0.000 C 
ATOM      4  C   UNL     1       3.360   7.376  17.697  0.00  0.00    +0.000 C 
ATOM      5  C   UNL     1       2.025   7.986  17.997  0.00  0.00    +0.000 C 
BRANCH   3   9
ATOM      6  C   UNL     1       1.136   2.993  19.507  0.00  0.00    +0.000 A 
ATOM      7  C   UNL     1       1.227   3.857  20.595  0.00  0.00    +0.000 A 
ATOM      8  C   UNL     1       1.711   5.154  20.416  0.00  0.00    +0.000 A 
ATOM      9  C   UNL     1       2.124   5.618  19.154  0.00  0.00    +0.000 A 
ATOM     10  C   UNL     1       1.998   4.735  18.069  0.00  0.00    +0.000 A 
ATOM     11  C   UNL     1       1.515   3.435  18.242  0.00  0.00    +0.000 A 
ENDBRANCH   3   9
ENDBRANCH   1   5
BRANCH   1  12
ATOM     12  C   UNL     1       0.908   9.664  19.362  0.00  0.00    +0.000 C 
BRANCH  12  13
ATOM     13  C   UNL     1      -0.327  10.328  18.800  0.00  0.00    +0.000 A 
ATOM     14  C   UNL     1      -0.924  11.401  19.473  0.00  0.00    +0.000 A 
ATOM     15  C   UNL     1      -2.100  11.998  19.006  0.00  0.00    +0.000 A 
ATOM     16  C   UNL     1      -2.663  11.485  17.832  0.00  0.00    +0.000 A 
ATOM     17  N   UNL     1      -3.799  11.865  17.152  0.00  0.00    +0.000 N 
ATOM     18  C   UNL     1      -3.971  11.078  16.044  0.00  0.00    +0.000 A 
ATOM     19  C   UNL     1      -2.934  10.175  16.004  0.00  0.00    +0.000 A 
ATOM     20  C   UNL     1      -2.098  10.424  17.128  0.00  0.00    +0.000 A 
ATOM     21  C   UNL     1      -0.914   9.838  17.617  0.00  0.00    +0.000 A 
ATOM     22  H   UNL     1      -4.412  12.614  17.437  0.00  0.00    +0.000 HD
ENDBRANCH  12  13
ENDBRANCH   1  12
TORSDOF 4
ENDMDL
MODEL 7
REMARK VINA RESULT:      -6.9      4.697      8.045
REMARK  Name = 
REMARK  4 active torsions:
REMARK  status: ('A' for Active; 'I' for Inactive)
REMARK    1  A    between atoms: C_4  and  C_5
REMARK    2  A    between atoms: C_7  and  N_8
REMARK    3  A    between atoms: N_8  and  C_9
REMARK    4  A    between atoms: C_9  and  C_10
REMARK                            x       y       z     vdW  Elec       q    Type
REMARK                         _______ _______ _______ _____ _____    ______ ____
ROOT
ATOM      1  N   UNL     1       8.962   9.128  18.974  0.00  0.00    +0.000 NA
ATOM      2  H   UNL     1       8.547   8.714  19.807  0.00  0.00    +0.000 HD
ENDROOT
BRANCH   1   5
ATOM      3  C   UNL     1      10.621  11.077  19.357  0.00  0.00    +0.000 C 
ATOM      4  C   UNL     1       9.609  11.118  20.476  0.00  0.00    +0.000 C 
ATOM      5  C   UNL     1       9.207  10.570  19.141  0.00  0.00    +0.000 C 
BRANCH   3   9
ATOM      6  C   UNL     1      11.942  14.838  17.649  0.00  0.00    +0.000 A 
ATOM      7  C   UNL     1      11.702  14.733  19.016  0.00  0.00    +0.000 A 
ATOM      8  C   UNL     1      11.283  13.516  19.558  0.00  0.00    +0.000 A 
ATOM      9  C   UNL     1      11.085  12.381  18.753  0.00  0.00    +0.000 A 
ATOM     10  C   UNL     1      11.359  12.507  17.382  0.00  0.00    +0.000 A 
ATOM     11  C   UNL     1      11.778  13.722  16.832  0.00  0.00    +0.000 A 
ENDBRANCH   3   9
ENDBRANCH   1   5
BRANCH   1  12
ATOM     12  C   UNL     1       8.094   8.849  17.828  0.00  0.00    +0.000 C 
BRANCH  12  13
ATOM     13  C   UNL     1       7.479   7.471  17.900  0.00  0.00    +0.000 A 
ATOM     14  C   UNL     1       8.004   6.504  18.766  0.00  0.00    +0.000 A 
ATOM     15  C   UNL     1       7.491   5.203  18.812  0.00  0.00    +0.000 A 
ATOM     16  C   UNL     1       6.425   4.897  17.959  0.00  0.00    +0.000 A 
ATOM     17  N   UNL     1       5.733   3.720  17.788  0.00  0.00    +0.000 N 
ATOM     18  C   UNL     1       4.759   3.877  16.837  0.00  0.00    +0.000 A 
ATOM     19  C   UNL     1       4.821   5.174  16.383  0.00  0.00    +0.000 A 
ATOM     20  C   UNL     1       5.868   5.831  17.087  0.00  0.00    +0.000 A 
ATOM     21  C   UNL     1       6.400   7.136  17.058  0.00  0.00    +0.000 A 
ATOM     22  H   UNL     1       5.922   2.866  18.293  0.00  0.00    +0.000 HD
ENDBRANCH  12  13
ENDBRANCH   1  12
TORSDOF 4
ENDMDL
MODEL 8
REMARK VINA RESULT:      -6.8      2.569      6.671
REMARK  Name = 
REMARK  4 active torsions:
REMARK  status: ('A' for Active; 'I' for Inactive)
REMARK    1  A    between atoms: C_4  and  C_5
REMARK    2  A    between atoms: C_7  and  N_8
REMARK    3  A    between atoms: N_8  and  C_9
REMARK    4  A    between atoms: C_9  and  C_10
REMARK                            x       y       z     vdW  Elec       q    Type
REMARK                         _______ _______ _______ _____ _____    ______ ____
ROOT
ATOM      1  N   UNL     1       4.206   6.852  16.755  0.00  0.00    +0.000 NA
ATOM      2  H   UNL     1       3.327   6.441  16.442  0.00  0.00    +0.000 HD
ENDROOT
BRANCH   1   5
ATOM      3  C   UNL     1       5.461   4.928  15.563  0.00  0.00    +0.000 C 
ATOM      4  C   UNL     1       6.413   5.538  16.563  0.00  0.00    +0.000 C 
ATOM      5  C   UNL     1       5.347   6.392  15.948  0.00  0.00    +0.000 C 
BRANCH   3   9
ATOM      6  C   UNL     1       7.018   3.764  11.687  0.00  0.00    +0.000 A 
ATOM      7  C   UNL     1       7.726   4.655  12.490  0.00  0.00    +0.000 A 
ATOM      8  C   UNL     1       7.220   5.019  13.739  0.00  0.00    +0.000 A 
ATOM      9  C   UNL     1       5.996   4.513  14.214  0.00  0.00    +0.000 A 
ATOM     10  C   UNL     1       5.316   3.598  13.395  0.00  0.00    +0.000 A 
ATOM     11  C   UNL     1       5.816   3.230  12.143  0.00  0.00    +0.000 A 
ENDBRANCH   3   9
ENDBRANCH   1   5
BRANCH   1  12
ATOM     12  C   UNL     1       4.383   6.550  18.178  0.00  0.00    +0.000 C 
BRANCH  12  13
ATOM     13  C   UNL     1       3.402   5.512  18.669  0.00  0.00    +0.000 A 
ATOM     14  C   UNL     1       2.370   5.061  17.837  0.00  0.00    +0.000 A 
ATOM     15  C   UNL     1       1.413   4.143  18.284  0.00  0.00    +0.000 A 
ATOM     16  C   UNL     1       1.525   3.684  19.601  0.00  0.00    +0.000 A 
ATOM     17  N   UNL     1       0.740   2.796  20.301  0.00  0.00    +0.000 N 
ATOM     18  C   UNL     1       1.223   2.639  21.574  0.00  0.00    +0.000 A 
ATOM     19  C   UNL     1       2.337   3.437  21.702  0.00  0.00    +0.000 A 
ATOM     20  C   UNL     1       2.540   4.101  20.459  0.00  0.00    +0.000 A 
ATOM     21  C   UNL     1       3.492   5.025  19.988  0.00  0.00    +0.000 A 
ATOM     22  H   UNL     1      -0.075   2.332  19.926  0.00  0.00    +0.000 HD
ENDBRANCH  12  13
ENDBRANCH   1  12
TORSDOF 4
ENDMDL
MODEL 9
REMARK VINA RESULT:      -6.8      1.519      4.440
REMARK  Name = 
REMARK  4 active torsions:
REMARK  status: ('A' for Active; 'I' for Inactive)
REMARK    1  A    between atoms: C_4  and  C_5
REMARK    2  A    between atoms: C_7  and  N_8
REMARK    3  A    between atoms: N_8  and  C_9
REMARK    4  A    between atoms: C_9  and  C_10
REMARK                            x       y       z     vdW  Elec       q    Type
REMARK                         _______ _______ _______ _____ _____    ______ ____
ROOT
ATOM      1  N   UNL     1       5.885   4.297  17.414  0.00  0.00    +0.000 NA
ATOM      2  H   UNL     1       6.327   3.719  18.128  0.00  0.00    +0.000 HD
ENDROOT
BRANCH   1   5
ATOM      3  C   UNL     1       4.320   6.353  17.274  0.00  0.00    +0.000 C 
ATOM      4  C   UNL     1       5.739   6.860  17.205  0.00  0.00    +0.000 C 
ATOM      5  C   UNL     1       5.446   5.595  17.951  0.00  0.00    +0.000 C 
BRANCH   3   9
ATOM      6  C   UNL     1       1.425   8.630  19.563  0.00  0.00    +0.000 A 
ATOM      7  C   UNL     1       1.840   9.077  18.311  0.00  0.00    +0.000 A 
ATOM      8  C   UNL     1       2.767   8.334  17.579  0.00  0.00    +0.000 A 
ATOM      9  C   UNL     1       3.309   7.136  18.077  0.00  0.00    +0.000 A 
ATOM     10  C   UNL     1       2.855   6.694  19.330  0.00  0.00    +0.000 A 
ATOM     11  C   UNL     1       1.927   7.434  20.069  0.00  0.00    +0.000 A 
ENDBRANCH   3   9
ENDBRANCH   1   5
BRANCH   1  12
ATOM     12  C   UNL     1       4.777   3.545  16.822  0.00  0.00    +0.000 C 
BRANCH  12  13
ATOM     13  C   UNL     1       3.628   3.366  17.786  0.00  0.00    +0.000 A 
ATOM     14  C   UNL     1       2.307   3.552  17.359  0.00  0.00    +0.000 A 
ATOM     15  C   UNL     1       1.228   3.449  18.243  0.00  0.00    +0.000 A 
ATOM     16  C   UNL     1       1.513   3.147  19.579  0.00  0.00    +0.000 A 
ATOM     17  N   UNL     1       0.668   2.989  20.654  0.00  0.00    +0.000 N 
ATOM     18  C   UNL     1       1.388   2.697  21.783  0.00  0.00    +0.000 A 
ATOM     19  C   UNL     1       2.719   2.667  21.436  0.00  0.00    +0.000 A 
ATOM     20  C   UNL     1       2.811   2.947  20.044  0.00  0.00    +0.000 A 
ATOM     21  C   UNL     1       3.883   3.056  19.136  0.00  0.00    +0.000 A 
ATOM     22  H   UNL     1      -0.337   3.078  20.610  0.00  0.00    +0.000 HD
ENDBRANCH  12  13
ENDBRANCH   1  12
TORSDOF 4
ENDMDL
