MODEL 1
REMARK VINA RESULT:      -7.5      0.000      0.000
REMARK  Name = 
REMARK  5 active torsions:
REMARK  status: ('A' for Active; 'I' for Inactive)
REMARK    1  A    between atoms: C_1  and  O_2
REMARK    2  A    between atoms: O_2  and  C_3
REMARK    3  A    between atoms: C_7  and  C_8
REMARK    4  A    between atoms: C_8  and  C_10
REMARK    5  A    between atoms: C_12  and  C_13
REMARK                            x       y       z     vdW  Elec       q    Type
REMARK                         _______ _______ _______ _____ _____    ______ ____
ROOT
ATOM      1  C   UNL     1       4.077   4.153  18.561  0.00  0.00    +0.000 C 
ATOM      2  O   UNL     1       4.321   3.232  19.332  0.00  0.00    +0.000 OA
ENDROOT
BRANCH   1   7
ATOM      3  C   UNL     1       6.845   5.850  16.546  0.00  0.00    +0.000 A 
ATOM      4  C   UNL     1       6.817   5.075  15.386  0.00  0.00    +0.000 A 
ATOM      5  C   UNL     1       5.939   4.000  15.280  0.00  0.00    +0.000 A 
ATOM      6  C   UNL     1       5.064   3.716  16.328  0.00  0.00    +0.000 A 
ATOM      7  C   UNL     1       5.064   4.503  17.492  0.00  0.00    +0.000 A 
ATOM      8  C   UNL     1       5.968   5.567  17.600  0.00  0.00    +0.000 A 
BRANCH   3  10
ATOM      9  C   UNL     1       7.687   7.772  17.638  0.00  0.00    +0.000 C 
ATOM     10  O   UNL     1       7.726   6.897  16.516  0.00  0.00    +0.000 OA
ENDBRANCH   3  10
ENDBRANCH   1   7
BRANCH   1  11
ATOM     11  C   UNL     1       2.829   4.936  18.759  0.00  0.00    +0.000 C 
ATOM     12  S   UNL     1       1.842   4.683  20.150  0.00  0.00    +0.000 S 
ATOM     13  C   UNL     1       2.870   6.033  19.819  0.00  0.00    +0.000 C 
BRANCH  13  14
ATOM     14  C   UNL     1       2.222   7.378  19.574  0.00  0.00    +0.000 A 
ATOM     15  C   UNL     1       2.204   7.973  18.299  0.00  0.00    +0.000 A 
ATOM     16  C   UNL     1       1.547   9.187  18.061  0.00  0.00    +0.000 A 
ATOM     17  C   UNL     1       0.886   9.828  19.101  0.00  0.00    +0.000 A 
ATOM     18 BR   UNL     1      -0.012  11.460  18.785  0.00  0.00    +0.000 Br
ATOM     19  C   UNL     1       0.870   9.263  20.373  0.00  0.00    +0.000 A 
ATOM     20  C   UNL     1       1.530   8.049  20.601  0.00  0.00    +0.000 A 
ENDBRANCH  13  14
ENDBRANCH   1  11
TORSDOF 4
ENDMDL
MODEL 2
REMARK VINA RESULT:      -7.4      0.122      1.082
REMARK  Name = 
REMARK  5 active torsions:
REMARK  status: ('A' for Active; 'I' for Inactive)
REMARK    1  A    between atoms: C_1  and  O_2
REMARK    2  A    between atoms: O_2  and  C_3
REMARK    3  A    between atoms: C_7  and  C_8
REMARK    4  A    between atoms: C_8  and  C_10
REMARK    5  A    between atoms: C_12  and  C_13
REMARK                            x       y       z     vdW  Elec       q    Type
REMARK                         _______ _______ _______ _____ _____    ______ ____
ROOT
ATOM      1  C   UNL     1       4.153   4.231  18.645  0.00  0.00    +0.000 C 
ATOM      2  O   UNL     1       4.445   3.351  19.449  0.00  0.00    +0.000 OA
ENDROOT
BRANCH   1   7
ATOM      3  C   UNL     1       6.877   5.913  16.560  0.00  0.00    +0.000 A 
ATOM      4  C   UNL     1       6.808   5.146  15.396  0.00  0.00    +0.000 A 
ATOM      5  C   UNL     1       5.916   4.080  15.310  0.00  0.00    +0.000 A 
ATOM      6  C   UNL     1       5.069   3.799  16.381  0.00  0.00    +0.000 A 
ATOM      7  C   UNL     1       5.112   4.577  17.550  0.00  0.00    +0.000 A 
ATOM      8  C   UNL     1       6.030   5.632  17.637  0.00  0.00    +0.000 A 
BRANCH   3  10
ATOM      9  C   UNL     1       7.686   7.889  17.579  0.00  0.00    +0.000 C 
ATOM     10  O   UNL     1       7.767   6.952  16.510  0.00  0.00    +0.000 OA
ENDBRANCH   3  10
ENDBRANCH   1   7
BRANCH   1  11
ATOM     11  C   UNL     1       2.877   4.969  18.830  0.00  0.00    +0.000 C 
ATOM     12  S   UNL     1       1.902   4.708  20.229  0.00  0.00    +0.000 S 
ATOM     13  C   UNL     1       2.878   6.089  19.867  0.00  0.00    +0.000 C 
BRANCH  13  14
ATOM     14  C   UNL     1       2.178   7.403  19.596  0.00  0.00    +0.000 A 
ATOM     15  C   UNL     1       1.501   8.107  20.610  0.00  0.00    +0.000 A 
ATOM     16  C   UNL     1       0.911   9.354  20.374  0.00  0.00    +0.000 A 
ATOM     17  C   UNL     1       0.994   9.927  19.111  0.00  0.00    +0.000 A 
ATOM     18 BR   UNL     1       0.209  11.615  18.788  0.00  0.00    +0.000 Br
ATOM     19  C   UNL     1       1.667   9.268  18.087  0.00  0.00    +0.000 A 
ATOM     20  C   UNL     1       2.255   8.021  18.333  0.00  0.00    +0.000 A 
ENDBRANCH  13  14
ENDBRANCH   1  11
TORSDOF 4
ENDMDL
MODEL 3
REMARK VINA RESULT:      -7.4      1.382      2.241
REMARK  Name = 
REMARK  5 active torsions:
REMARK  status: ('A' for Active; 'I' for Inactive)
REMARK    1  A    between atoms: C_1  and  O_2
REMARK    2  A    between atoms: O_2  and  C_3
REMARK    3  A    between atoms: C_7  and  C_8
REMARK    4  A    between atoms: C_8  and  C_10
REMARK    5  A    between atoms: C_12  and  C_13
REMARK                            x       y       z     vdW  Elec       q    Type
REMARK                         _______ _______ _______ _____ _____    ______ ____
ROOT
ATOM      1  C   UNL     1       4.563   4.949  17.322  0.00  0.00    +0.000 C 
ATOM      2  O   UNL     1       4.658   3.907  16.683  0.00  0.00    +0.000 OA
ENDROOT
BRANCH   1   7
ATOM      3  C   UNL     1       7.407   7.476  17.677  0.00  0.00    +0.000 A 
ATOM      4  C   UNL     1       8.181   6.842  18.651  0.00  0.00    +0.000 A 
ATOM      5  C   UNL     1       7.763   5.636  19.206  0.00  0.00    +0.000 A 
ATOM      6  C   UNL     1       6.581   5.044  18.762  0.00  0.00    +0.000 A 
ATOM      7  C   UNL     1       5.804   5.659  17.765  0.00  0.00    +0.000 A 
ATOM      8  C   UNL     1       6.220   6.885  17.232  0.00  0.00    +0.000 A 
BRANCH   3  10
ATOM      9  C   UNL     1       8.475   9.532  18.157  0.00  0.00    +0.000 C 
ATOM     10  O   UNL     1       7.941   8.637  17.186  0.00  0.00    +0.000 OA
ENDBRANCH   3  10
ENDBRANCH   1   7
BRANCH   1  11
ATOM     11  C   UNL     1       3.209   5.437  17.691  0.00  0.00    +0.000 C 
ATOM     12  S   UNL     1       2.313   4.680  18.955  0.00  0.00    +0.000 S 
ATOM     13  C   UNL     1       3.096   6.221  18.995  0.00  0.00    +0.000 C 
BRANCH  13  14
ATOM     14  C   UNL     1       2.228   7.458  19.089  0.00  0.00    +0.000 A 
ATOM     15  C   UNL     1       1.703   7.905  20.316  0.00  0.00    +0.000 A 
ATOM     16  C   UNL     1       0.955   9.085  20.412  0.00  0.00    +0.000 A 
ATOM     17  C   UNL     1       0.724   9.848  19.274  0.00  0.00    +0.000 A 
ATOM     18 BR   UNL     1      -0.275  11.446  19.398  0.00  0.00    +0.000 Br
ATOM     19  C   UNL     1       1.238   9.444  18.046  0.00  0.00    +0.000 A 
ATOM     20  C   UNL     1       1.984   8.263  17.960  0.00  0.00    +0.000 A 
ENDBRANCH  13  14
ENDBRANCH   1  11
TORSDOF 4
ENDMDL
MODEL 4
REMARK VINA RESULT:      -7.2      1.321      2.278
REMARK  Name = 
REMARK  5 active torsions:
REMARK  status: ('A' for Active; 'I' for Inactive)
REMARK    1  A    between atoms: C_1  and  O_2
REMARK    2  A    between atoms: O_2  and  C_3
REMARK    3  A    between atoms: C_7  and  C_8
REMARK    4  A    between atoms: C_8  and  C_10
REMARK    5  A    between atoms: C_12  and  C_13
REMARK                            x       y       z     vdW  Elec       q    Type
REMARK                         _______ _______ _______ _____ _____    ______ ____
ROOT
ATOM      1  C   UNL     1       4.194   4.039  18.747  0.00  0.00    +0.000 C 
ATOM      2  O   UNL     1       4.526   3.287  19.657  0.00  0.00    +0.000 OA
ENDROOT
BRANCH   1   7
ATOM      3  C   UNL     1       5.612   4.307  15.209  0.00  0.00    +0.000 A 
ATOM      4  C   UNL     1       6.951   4.573  15.499  0.00  0.00    +0.000 A 
ATOM      5  C   UNL     1       7.373   4.700  16.820  0.00  0.00    +0.000 A 
ATOM      6  C   UNL     1       6.456   4.529  17.857  0.00  0.00    +0.000 A 
ATOM      7  C   UNL     1       5.110   4.237  17.581  0.00  0.00    +0.000 A 
ATOM      8  C   UNL     1       4.691   4.136  16.249  0.00  0.00    +0.000 A 
BRANCH   3  10
ATOM      9  C   UNL     1       6.421   3.792  13.047  0.00  0.00    +0.000 C 
ATOM     10  O   UNL     1       5.329   4.172  13.877  0.00  0.00    +0.000 OA
ENDBRANCH   3  10
ENDBRANCH   1   7
BRANCH   1  11
ATOM     11  C   UNL     1       2.912   4.783  18.870  0.00  0.00    +0.000 C 
ATOM     12  S   UNL     1       1.846   4.489  20.193  0.00  0.00    +0.000 S 
ATOM     13  C   UNL     1       2.852   5.872  19.936  0.00  0.00    +0.000 C 
BRANCH  13  14
ATOM     14  C   UNL     1       2.180   7.199  19.659  0.00  0.00    +0.000 A 
ATOM     15  C   UNL     1       1.534   7.930  20.674  0.00  0.00    +0.000 A 
ATOM     16  C   UNL     1       0.969   9.189  20.430  0.00  0.00    +0.000 A 
ATOM     17  C   UNL     1       1.049   9.744  19.159  0.00  0.00    +0.000 A 
ATOM     18 BR   UNL     1       0.299  11.446  18.826  0.00  0.00    +0.000 Br
ATOM     19  C   UNL     1       1.692   9.057  18.134  0.00  0.00    +0.000 A 
ATOM     20  C   UNL     1       2.253   7.800  18.388  0.00  0.00    +0.000 A 
ENDBRANCH  13  14
ENDBRANCH   1  11
TORSDOF 4
ENDMDL
MODEL 5
REMARK VINA RESULT:      -7.2      0.953      1.769
REMARK  Name = 
REMARK  5 active torsions:
REMARK  status: ('A' for Active; 'I' for Inactive)
REMARK    1  A    between atoms: C_1  and  O_2
REMARK    2  A    between atoms: O_2  and  C_3
REMARK    3  A    between atoms: C_7  and  C_8
REMARK    4  A    between atoms: C_8  and  C_10
REMARK    5  A    between atoms: C_12  and  C_13
REMARK                            x       y       z     vdW  Elec       q    Type
REMARK                         _______ _______ _______ _____ _____    ______ ____
ROOT
ATOM      1  C   UNL     1       3.538   4.182  18.279  0.00  0.00    +0.000 C 
ATOM      2  O   UNL     1       3.339   2.979  18.147  0.00  0.00    +0.000 OA
ENDROOT
BRANCH   1   7
ATOM      3  C   UNL     1       6.744   5.452  16.634  0.00  0.00    +0.000 A 
ATOM      4  C   UNL     1       7.516   5.713  17.767  0.00  0.00    +0.000 A 
ATOM      5  C   UNL     1       6.988   5.514  19.040  0.00  0.00    +0.000 A 
ATOM      6  C   UNL     1       5.690   5.022  19.180  0.00  0.00    +0.000 A 
ATOM      7  C   UNL     1       4.910   4.732  18.048  0.00  0.00    +0.000 A 
ATOM      8  C   UNL     1       5.442   4.960  16.773  0.00  0.00    +0.000 A 
BRANCH   3  10
ATOM      9  C   UNL     1       6.971   4.820  14.366  0.00  0.00    +0.000 C 
ATOM     10  O   UNL     1       7.386   5.654  15.443  0.00  0.00    +0.000 OA
ENDBRANCH   3  10
ENDBRANCH   1   7
BRANCH   1  11
ATOM     11  C   UNL     1       2.414   5.044  18.730  0.00  0.00    +0.000 C 
ATOM     12  S   UNL     1       1.830   4.954  20.350  0.00  0.00    +0.000 S 
ATOM     13  C   UNL     1       2.774   6.216  19.638  0.00  0.00    +0.000 C 
BRANCH  13  14
ATOM     14  C   UNL     1       2.126   7.572  19.455  0.00  0.00    +0.000 A 
ATOM     15  C   UNL     1       2.066   8.203  18.197  0.00  0.00    +0.000 A 
ATOM     16  C   UNL     1       1.409   9.426  18.017  0.00  0.00    +0.000 A 
ATOM     17  C   UNL     1       0.791  10.041  19.098  0.00  0.00    +0.000 A 
ATOM     18 BR   UNL     1      -0.106  11.687  18.860  0.00  0.00    +0.000 Br
ATOM     19  C   UNL     1       0.818   9.441  20.354  0.00  0.00    +0.000 A 
ATOM     20  C   UNL     1       1.476   8.218  20.524  0.00  0.00    +0.000 A 
ENDBRANCH  13  14
ENDBRANCH   1  11
TORSDOF 4
ENDMDL
MODEL 6
REMARK VINA RESULT:      -7.2      1.270      1.848
REMARK  Name = 
REMARK  5 active torsions:
REMARK  status: ('A' for Active; 'I' for Inactive)
REMARK    1  A    between atoms: C_1  and  O_2
REMARK    2  A    between atoms: O_2  and  C_3
REMARK    3  A    between atoms: C_7  and  C_8
REMARK    4  A    between atoms: C_8  and  C_10
REMARK    5  A    between atoms: C_12  and  C_13
REMARK                            x       y       z     vdW  Elec       q    Type
REMARK                         _______ _______ _______ _____ _____    ______ ____
ROOT
ATOM      1  C   UNL     1       3.681   3.650  18.792  0.00  0.00    +0.000 C 
ATOM      2  O   UNL     1       3.684   2.591  19.411  0.00  0.00    +0.000 OA
ENDROOT
BRANCH   1   7
ATOM      3  C   UNL     1       6.029   4.145  15.819  0.00  0.00    +0.000 A 
ATOM      4  C   UNL     1       7.146   4.670  16.471  0.00  0.00    +0.000 A 
ATOM      5  C   UNL     1       7.119   4.891  17.845  0.00  0.00    +0.000 A 
ATOM      6  C   UNL     1       5.979   4.558  18.576  0.00  0.00    +0.000 A 
ATOM      7  C   UNL     1       4.856   4.007  17.936  0.00  0.00    +0.000 A 
ATOM      8  C   UNL     1       4.884   3.811  16.550  0.00  0.00    +0.000 A 
BRANCH   3  10
ATOM      9  C   UNL     1       7.103   4.819  13.822  0.00  0.00    +0.000 C 
ATOM     10  O   UNL     1       6.192   3.942  14.475  0.00  0.00    +0.000 OA
ENDBRANCH   3  10
ENDBRANCH   1   7
BRANCH   1  11
ATOM     11  C   UNL     1       2.531   4.575  18.968  0.00  0.00    +0.000 C 
ATOM     12  S   UNL     1       1.530   4.480  20.369  0.00  0.00    +0.000 S 
ATOM     13  C   UNL     1       2.703   5.693  19.991  0.00  0.00    +0.000 C 
BRANCH  13  14
ATOM     14  C   UNL     1       2.210   7.095  19.705  0.00  0.00    +0.000 A 
ATOM     15  C   UNL     1       2.302   7.668  18.422  0.00  0.00    +0.000 A 
ATOM     16  C   UNL     1       1.786   8.939  18.144  0.00  0.00    +0.000 A 
ATOM     17  C   UNL     1       1.157   9.663  19.149  0.00  0.00    +0.000 A 
ATOM     18 BR   UNL     1       0.450  11.374  18.778  0.00  0.00    +0.000 Br
ATOM     19  C   UNL     1       1.035   9.123  20.426  0.00  0.00    +0.000 A 
ATOM     20  C   UNL     1       1.554   7.851  20.695  0.00  0.00    +0.000 A 
ENDBRANCH  13  14
ENDBRANCH   1  11
TORSDOF 4
ENDMDL
MODEL 7
REMARK VINA RESULT:      -7.1      4.005      6.044
REMARK  Name = 
REMARK  5 active torsions:
REMARK  status: ('A' for Active; 'I' for Inactive)
REMARK    1  A    between atoms: C_1  and  O_2
REMARK    2  A    between atoms: O_2  and  C_3
REMARK    3  A    between atoms: C_7  and  C_8
REMARK    4  A    between atoms: C_8  and  C_10
REMARK    5  A    between atoms: C_12  and  C_13
REMARK                            x       y       z     vdW  Elec       q    Type
REMARK                         _______ _______ _______ _____ _____    ______ ____
ROOT
ATOM      1  C   UNL     1       6.938   4.672  14.060  0.00  0.00    +0.000 C 
ATOM      2  O   UNL     1       7.734   5.559  13.770  0.00  0.00    +0.000 OA
ENDROOT
BRANCH   1   7
ATOM      3  C   UNL     1       4.513   3.113  11.553  0.00  0.00    +0.000 A 
ATOM      4  C   UNL     1       5.342   2.154  10.970  0.00  0.00    +0.000 A 
ATOM      5  C   UNL     1       6.674   2.045  11.361  0.00  0.00    +0.000 A 
ATOM      6  C   UNL     1       7.171   2.879  12.362  0.00  0.00    +0.000 A 
ATOM      7  C   UNL     1       6.341   3.833  12.974  0.00  0.00    +0.000 A 
ATOM      8  C   UNL     1       5.009   3.952  12.557  0.00  0.00    +0.000 A 
BRANCH   3  10
ATOM      9  C   UNL     1       2.979   3.768   9.875  0.00  0.00    +0.000 C 
ATOM     10  O   UNL     1       3.218   3.099  11.109  0.00  0.00    +0.000 OA
ENDBRANCH   3  10
ENDBRANCH   1   7
BRANCH   1  11
ATOM     11  C   UNL     1       6.546   4.505  15.484  0.00  0.00    +0.000 C 
ATOM     12  S   UNL     1       6.971   5.693  16.659  0.00  0.00    +0.000 S 
ATOM     13  C   UNL     1       5.408   5.386  15.987  0.00  0.00    +0.000 C 
BRANCH  13  14
ATOM     14  C   UNL     1       4.336   4.831  16.901  0.00  0.00    +0.000 A 
ATOM     15  C   UNL     1       3.501   5.670  17.662  0.00  0.00    +0.000 A 
ATOM     16  C   UNL     1       2.468   5.157  18.457  0.00  0.00    +0.000 A 
ATOM     17  C   UNL     1       2.247   3.787  18.498  0.00  0.00    +0.000 A 
ATOM     18 BR   UNL     1       0.848   3.089  19.559  0.00  0.00    +0.000 Br
ATOM     19  C   UNL     1       3.043   2.927  17.748  0.00  0.00    +0.000 A 
ATOM     20  C   UNL     1       4.073   3.449  16.957  0.00  0.00    +0.000 A 
ENDBRANCH  13  14
ENDBRANCH   1  11
TORSDOF 4
ENDMDL
MODEL 8
REMARK VINA RESULT:      -7.1      1.264      1.321
REMARK  Name = 
REMARK  5 active torsions:
REMARK  status: ('A' for Active; 'I' for Inactive)
REMARK    1  A    between atoms: C_1  and  O_2
REMARK    2  A    between atoms: O_2  and  C_3
REMARK    3  A    between atoms: C_7  and  C_8
REMARK    4  A    between atoms: C_8  and  C_10
REMARK    5  A    between atoms: C_12  and  C_13
REMARK                            x       y       z     vdW  Elec       q    Type
REMARK                         _______ _______ _______ _____ _____    ______ ____
ROOT
ATOM      1  C   UNL     1       3.057   3.801  17.716  0.00  0.00    +0.000 C 
ATOM      2  O   UNL     1       2.603   2.689  17.465  0.00  0.00    +0.000 OA
ENDROOT
BRANCH   1   7
ATOM      3  C   UNL     1       6.806   4.540  17.703  0.00  0.00    +0.000 A 
ATOM      4  C   UNL     1       6.991   4.857  16.357  0.00  0.00    +0.000 A 
ATOM      5  C   UNL     1       5.922   4.794  15.467  0.00  0.00    +0.000 A 
ATOM      6  C   UNL     1       4.655   4.442  15.931  0.00  0.00    +0.000 A 
ATOM      7  C   UNL     1       4.449   4.143  17.289  0.00  0.00    +0.000 A 
ATOM      8  C   UNL     1       5.536   4.184  18.172  0.00  0.00    +0.000 A 
BRANCH   3  10
ATOM      9  C   UNL     1       7.952   5.810  19.337  0.00  0.00    +0.000 C 
ATOM     10  O   UNL     1       7.923   4.671  18.483  0.00  0.00    +0.000 OA
ENDBRANCH   3  10
ENDBRANCH   1   7
BRANCH   1  11
ATOM     11  C   UNL     1       2.223   4.750  18.498  0.00  0.00    +0.000 C 
ATOM     12  S   UNL     1       2.293   4.772  20.221  0.00  0.00    +0.000 S 
ATOM     13  C   UNL     1       2.945   5.939  19.125  0.00  0.00    +0.000 C 
BRANCH  13  14
ATOM     14  C   UNL     1       2.330   7.322  19.109  0.00  0.00    +0.000 A 
ATOM     15  C   UNL     1       2.251   8.087  17.930  0.00  0.00    +0.000 A 
ATOM     16  C   UNL     1       1.624   9.338  17.903  0.00  0.00    +0.000 A 
ATOM     17  C   UNL     1       1.054   9.847  19.063  0.00  0.00    +0.000 A 
ATOM     18 BR   UNL     1       0.196  11.531  19.031  0.00  0.00    +0.000 Br
ATOM     19  C   UNL     1       1.100   9.114  20.245  0.00  0.00    +0.000 A 
ATOM     20  C   UNL     1       1.729   7.864  20.261  0.00  0.00    +0.000 A 
ENDBRANCH  13  14
ENDBRANCH   1  11
TORSDOF 4
ENDMDL
MODEL 9
REMARK VINA RESULT:      -7.0      4.064      6.082
REMARK  Name = 
REMARK  5 active torsions:
REMARK  status: ('A' for Active; 'I' for Inactive)
REMARK    1  A    between atoms: C_1  and  O_2
REMARK    2  A    between atoms: O_2  and  C_3
REMARK    3  A    between atoms: C_7  and  C_8
REMARK    4  A    between atoms: C_8  and  C_10
REMARK    5  A    between atoms: C_12  and  C_13
REMARK                            x       y       z     vdW  Elec       q    Type
REMARK                         _______ _______ _______ _____ _____    ______ ____
ROOT
ATOM      1  C   UNL     1       6.618   4.452  13.934  0.00  0.00    +0.000 C 
ATOM      2  O   UNL     1       7.367   5.363  13.597  0.00  0.00    +0.000 OA
ENDROOT
BRANCH   1   7
ATOM      3  C   UNL     1       5.872   1.740  11.348  0.00  0.00    +0.000 A 
ATOM      4  C   UNL     1       4.629   2.175  10.885  0.00  0.00    +0.000 A 
ATOM      5  C   UNL     1       4.032   3.308  11.432  0.00  0.00    +0.000 A 
ATOM      6  C   UNL     1       4.695   4.027  12.426  0.00  0.00    +0.000 A 
ATOM      7  C   UNL     1       5.958   3.614  12.885  0.00  0.00    +0.000 A 
ATOM      8  C   UNL     1       6.538   2.459  12.347  0.00  0.00    +0.000 A 
BRANCH   3  10
ATOM      9  C   UNL     1       6.090  -0.615  11.329  0.00  0.00    +0.000 C 
ATOM     10  O   UNL     1       6.368   0.636  10.709  0.00  0.00    +0.000 OA
ENDBRANCH   3  10
ENDBRANCH   1   7
BRANCH   1  11
ATOM     11  C   UNL     1       6.344   4.255  15.381  0.00  0.00    +0.000 C 
ATOM     12  S   UNL     1       7.140   5.219  16.569  0.00  0.00    +0.000 S 
ATOM     13  C   UNL     1       5.489   5.317  16.066  0.00  0.00    +0.000 C 
BRANCH  13  14
ATOM     14  C   UNL     1       4.417   4.932  17.063  0.00  0.00    +0.000 A 
ATOM     15  C   UNL     1       3.858   5.870  17.951  0.00  0.00    +0.000 A 
ATOM     16  C   UNL     1       2.821   5.528  18.828  0.00  0.00    +0.000 A 
ATOM     17  C   UNL     1       2.317   4.233  18.827  0.00  0.00    +0.000 A 
ATOM     18 BR   UNL     1       0.911   3.768  20.000  0.00  0.00    +0.000 Br
ATOM     19  C   UNL     1       2.836   3.282  17.954  0.00  0.00    +0.000 A 
ATOM     20  C   UNL     1       3.872   3.634  17.081  0.00  0.00    +0.000 A 
ENDBRANCH  13  14
ENDBRANCH   1  11
TORSDOF 4
ENDMDL
