MODEL 1
REMARK VINA RESULT:      -7.2      0.000      0.000
REMARK  Name = 
REMARK  3 active torsions:
REMARK  status: ('A' for Active; 'I' for Inactive)
REMARK    1  A    between atoms: C_1  and  C_2
REMARK    2  A    between atoms: C_7  and  N_8
REMARK    3  A    between atoms: C_12  and  C_13
REMARK                            x       y       z     vdW  Elec       q    Type
REMARK                         _______ _______ _______ _____ _____    ______ ____
ROOT
ATOM      1  N   UNL     1       4.190   3.963  18.231  0.00  0.00    +0.000 N 
ATOM      2  C   UNL     1       3.459   3.787  17.049  0.00  0.00    +0.000 C 
ATOM      3  O   UNL     1       2.251   3.539  16.999  0.00  0.00    +0.000 OA
ATOM      4  C   UNL     1       4.177   4.065  15.754  0.00  0.00    +0.000 C 
ATOM      5  C   UNL     1       5.674   3.855  15.865  0.00  0.00    +0.000 C 
ATOM      6  C   UNL     1       6.205   4.718  16.995  0.00  0.00    +0.000 C 
ATOM      7  C   UNL     1       5.488   4.483  18.300  0.00  0.00    +0.000 C 
ATOM      8  O   UNL     1       6.066   4.800  19.343  0.00  0.00    +0.000 OA
ENDROOT
BRANCH   1  15
ATOM      9  C   UNL     1       2.551   6.159  19.419  0.00  0.00    +0.000 C 
ATOM     10  C   UNL     1       2.736   4.813  20.066  0.00  0.00    +0.000 A 
ATOM     11  C   UNL     1       2.093   4.568  21.293  0.00  0.00    +0.000 A 
ATOM     12  C   UNL     1       2.169   3.319  21.909  0.00  0.00    +0.000 A 
ATOM     13  C   UNL     1       2.887   2.292  21.312  0.00  0.00    +0.000 A 
ATOM     14  C   UNL     1       3.538   2.517  20.099  0.00  0.00    +0.000 A 
ATOM     15  C   UNL     1       3.485   3.774  19.470  0.00  0.00    +0.000 A 
ENDBRANCH   1  15
BRANCH   5  16
ATOM     16  C   UNL     1       6.371   4.176  14.559  0.00  0.00    +0.000 A 
ATOM     17  C   UNL     1       6.074   3.555  13.296  0.00  0.00    +0.000 A 
ATOM     18  C   UNL     1       6.857   4.030  12.269  0.00  0.00    +0.000 A 
ATOM     19  S   UNL     1       7.954   5.222  12.802  0.00  0.00    +0.000 S 
ATOM     20  C   UNL     1       7.384   5.106  14.411  0.00  0.00    +0.000 A 
ENDBRANCH   5  16
TORSDOF 2
ENDMDL
MODEL 2
REMARK VINA RESULT:      -7.1      0.339      1.871
REMARK  Name = 
REMARK  3 active torsions:
REMARK  status: ('A' for Active; 'I' for Inactive)
REMARK    1  A    between atoms: C_1  and  C_2
REMARK    2  A    between atoms: C_7  and  N_8
REMARK    3  A    between atoms: C_12  and  C_13
REMARK                            x       y       z     vdW  Elec       q    Type
REMARK                         _______ _______ _______ _____ _____    ______ ____
ROOT
ATOM      1  N   UNL     1       4.137   3.961  18.190  0.00  0.00    +0.000 N 
ATOM      2  C   UNL     1       5.491   4.312  18.270  0.00  0.00    +0.000 C 
ATOM      3  O   UNL     1       6.112   4.487  19.322  0.00  0.00    +0.000 OA
ATOM      4  C   UNL     1       6.268   4.333  16.979  0.00  0.00    +0.000 C 
ATOM      5  C   UNL     1       5.387   4.613  15.777  0.00  0.00    +0.000 C 
ATOM      6  C   UNL     1       4.270   3.586  15.741  0.00  0.00    +0.000 C 
ATOM      7  C   UNL     1       3.490   3.521  17.029  0.00  0.00    +0.000 C 
ATOM      8  O   UNL     1       2.350   3.048  16.993  0.00  0.00    +0.000 OA
ENDROOT
BRANCH   1  15
ATOM      9  C   UNL     1       2.536   6.261  19.223  0.00  0.00    +0.000 C 
ATOM     10  C   UNL     1       2.683   4.954  19.953  0.00  0.00    +0.000 A 
ATOM     11  C   UNL     1       2.021   4.798  21.184  0.00  0.00    +0.000 A 
ATOM     12  C   UNL     1       2.061   3.587  21.876  0.00  0.00    +0.000 A 
ATOM     13  C   UNL     1       2.762   2.510  21.350  0.00  0.00    +0.000 A 
ATOM     14  C   UNL     1       3.431   2.646  20.135  0.00  0.00    +0.000 A 
ATOM     15  C   UNL     1       3.414   3.864  19.429  0.00  0.00    +0.000 A 
ENDBRANCH   1  15
BRANCH   5  16
ATOM     16  C   UNL     1       6.190   4.592  14.493  0.00  0.00    +0.000 A 
ATOM     17  C   UNL     1       5.898   3.760  13.356  0.00  0.00    +0.000 A 
ATOM     18  C   UNL     1       6.788   3.937  12.321  0.00  0.00    +0.000 A 
ATOM     19  S   UNL     1       7.980   5.097  12.697  0.00  0.00    +0.000 S 
ATOM     20  C   UNL     1       7.309   5.367  14.247  0.00  0.00    +0.000 A 
ENDBRANCH   5  16
TORSDOF 2
ENDMDL
MODEL 3
REMARK VINA RESULT:      -7.0      0.348      1.576
REMARK  Name = 
REMARK  3 active torsions:
REMARK  status: ('A' for Active; 'I' for Inactive)
REMARK    1  A    between atoms: C_1  and  C_2
REMARK    2  A    between atoms: C_7  and  N_8
REMARK    3  A    between atoms: C_12  and  C_13
REMARK                            x       y       z     vdW  Elec       q    Type
REMARK                         _______ _______ _______ _____ _____    ______ ____
ROOT
ATOM      1  N   UNL     1       4.218   3.973  18.212  0.00  0.00    +0.000 N 
ATOM      2  C   UNL     1       3.495   3.762  17.030  0.00  0.00    +0.000 C 
ATOM      3  O   UNL     1       2.295   3.480  16.980  0.00  0.00    +0.000 OA
ATOM      4  C   UNL     1       4.210   4.043  15.734  0.00  0.00    +0.000 C 
ATOM      5  C   UNL     1       5.712   3.877  15.852  0.00  0.00    +0.000 C 
ATOM      6  C   UNL     1       6.215   4.769  16.972  0.00  0.00    +0.000 C 
ATOM      7  C   UNL     1       5.501   4.531  18.278  0.00  0.00    +0.000 C 
ATOM      8  O   UNL     1       6.066   4.877  19.319  0.00  0.00    +0.000 OA
ENDROOT
BRANCH   1  15
ATOM      9  C   UNL     1       4.547   1.463  19.797  0.00  0.00    +0.000 C 
ATOM     10  C   UNL     1       3.627   2.585  20.194  0.00  0.00    +0.000 A 
ATOM     11  C   UNL     1       2.889   2.453  21.385  0.00  0.00    +0.000 A 
ATOM     12  C   UNL     1       2.072   3.487  21.844  0.00  0.00    +0.000 A 
ATOM     13  C   UNL     1       1.977   4.670  21.123  0.00  0.00    +0.000 A 
ATOM     14  C   UNL     1       2.695   4.817  19.937  0.00  0.00    +0.000 A 
ATOM     15  C   UNL     1       3.514   3.781  19.451  0.00  0.00    +0.000 A 
ENDBRANCH   1  15
BRANCH   5  16
ATOM     16  C   UNL     1       6.403   4.201  14.544  0.00  0.00    +0.000 A 
ATOM     17  C   UNL     1       6.106   3.579  13.281  0.00  0.00    +0.000 A 
ATOM     18  C   UNL     1       6.884   4.057  12.252  0.00  0.00    +0.000 A 
ATOM     19  S   UNL     1       7.977   5.253  12.782  0.00  0.00    +0.000 S 
ATOM     20  C   UNL     1       7.412   5.134  14.392  0.00  0.00    +0.000 A 
ENDBRANCH   5  16
TORSDOF 2
ENDMDL
MODEL 4
REMARK VINA RESULT:      -7.0      4.578      7.697
REMARK  Name = 
REMARK  3 active torsions:
REMARK  status: ('A' for Active; 'I' for Inactive)
REMARK    1  A    between atoms: C_1  and  C_2
REMARK    2  A    between atoms: C_7  and  N_8
REMARK    3  A    between atoms: C_12  and  C_13
REMARK                            x       y       z     vdW  Elec       q    Type
REMARK                         _______ _______ _______ _____ _____    ______ ____
ROOT
ATOM      1  N   UNL     1       2.639   6.646  19.219  0.00  0.00    +0.000 N 
ATOM      2  C   UNL     1       2.343   7.855  18.576  0.00  0.00    +0.000 C 
ATOM      3  O   UNL     1       2.683   8.142  17.425  0.00  0.00    +0.000 OA
ATOM      4  C   UNL     1       1.423   8.804  19.298  0.00  0.00    +0.000 C 
ATOM      5  C   UNL     1       1.480   8.635  20.803  0.00  0.00    +0.000 C 
ATOM      6  C   UNL     1       1.170   7.188  21.143  0.00  0.00    +0.000 C 
ATOM      7  C   UNL     1       2.057   6.210  20.415  0.00  0.00    +0.000 C 
ATOM      8  O   UNL     1       2.183   5.079  20.891  0.00  0.00    +0.000 OA
ENDROOT
BRANCH   1  15
ATOM      9  C   UNL     1       1.402   4.466  17.593  0.00  0.00    +0.000 C 
ATOM     10  C   UNL     1       2.887   4.645  17.755  0.00  0.00    +0.000 A 
ATOM     11  C   UNL     1       3.744   3.745  17.096  0.00  0.00    +0.000 A 
ATOM     12  C   UNL     1       5.130   3.898  17.149  0.00  0.00    +0.000 A 
ATOM     13  C   UNL     1       5.685   4.953  17.862  0.00  0.00    +0.000 A 
ATOM     14  C   UNL     1       4.853   5.851  18.529  0.00  0.00    +0.000 A 
ATOM     15  C   UNL     1       3.453   5.705  18.497  0.00  0.00    +0.000 A 
ENDBRANCH   1  15
BRANCH   5  16
ATOM     16  C   UNL     1       0.519   9.577  21.498  0.00  0.00    +0.000 A 
ATOM     17  C   UNL     1      -0.061   9.349  22.794  0.00  0.00    +0.000 A 
ATOM     18  C   UNL     1      -0.904  10.363  23.189  0.00  0.00    +0.000 A 
ATOM     19  S   UNL     1      -1.010  11.597  22.016  0.00  0.00    +0.000 S 
ATOM     20  C   UNL     1       0.071  10.777  20.975  0.00  0.00    +0.000 A 
ENDBRANCH   5  16
TORSDOF 2
ENDMDL
MODEL 5
REMARK VINA RESULT:      -6.7      0.481      2.433
REMARK  Name = 
REMARK  3 active torsions:
REMARK  status: ('A' for Active; 'I' for Inactive)
REMARK    1  A    between atoms: C_1  and  C_2
REMARK    2  A    between atoms: C_7  and  N_8
REMARK    3  A    between atoms: C_12  and  C_13
REMARK                            x       y       z     vdW  Elec       q    Type
REMARK                         _______ _______ _______ _____ _____    ______ ____
ROOT
ATOM      1  N   UNL     1       4.172   3.980  18.176  0.00  0.00    +0.000 N 
ATOM      2  C   UNL     1       5.509   4.395  18.252  0.00  0.00    +0.000 C 
ATOM      3  O   UNL     1       6.115   4.624  19.302  0.00  0.00    +0.000 OA
ATOM      4  C   UNL     1       6.289   4.421  16.964  0.00  0.00    +0.000 C 
ATOM      5  C   UNL     1       5.403   4.632  15.753  0.00  0.00    +0.000 C 
ATOM      6  C   UNL     1       4.335   3.553  15.737  0.00  0.00    +0.000 C 
ATOM      7  C   UNL     1       3.552   3.482  17.024  0.00  0.00    +0.000 C 
ATOM      8  O   UNL     1       2.436   2.957  16.994  0.00  0.00    +0.000 OA
ENDROOT
BRANCH   1  15
ATOM      9  C   UNL     1       4.441   1.573  19.925  0.00  0.00    +0.000 C 
ATOM     10  C   UNL     1       3.533   2.732  20.236  0.00  0.00    +0.000 A 
ATOM     11  C   UNL     1       2.776   2.689  21.421  0.00  0.00    +0.000 A 
ATOM     12  C   UNL     1       1.968   3.762  21.800  0.00  0.00    +0.000 A 
ATOM     13  C   UNL     1       1.902   4.897  21.002  0.00  0.00    +0.000 A 
ATOM     14  C   UNL     1       2.639   4.956  19.820  0.00  0.00    +0.000 A 
ATOM     15  C   UNL     1       3.448   3.879  19.414  0.00  0.00    +0.000 A 
ENDBRANCH   1  15
BRANCH   5  16
ATOM     16  C   UNL     1       6.212   4.617  14.473  0.00  0.00    +0.000 A 
ATOM     17  C   UNL     1       5.947   3.767  13.343  0.00  0.00    +0.000 A 
ATOM     18  C   UNL     1       6.837   3.955  12.311  0.00  0.00    +0.000 A 
ATOM     19  S   UNL     1       7.998   5.149  12.679  0.00  0.00    +0.000 S 
ATOM     20  C   UNL     1       7.312   5.417  14.223  0.00  0.00    +0.000 A 
ENDBRANCH   5  16
TORSDOF 2
ENDMDL
MODEL 6
REMARK VINA RESULT:      -6.5      5.107      7.214
REMARK  Name = 
REMARK  3 active torsions:
REMARK  status: ('A' for Active; 'I' for Inactive)
REMARK    1  A    between atoms: C_1  and  C_2
REMARK    2  A    between atoms: C_7  and  N_8
REMARK    3  A    between atoms: C_12  and  C_13
REMARK                            x       y       z     vdW  Elec       q    Type
REMARK                         _______ _______ _______ _____ _____    ______ ____
ROOT
ATOM      1  N   UNL     1       1.202   9.559  19.285  0.00  0.00    +0.000 N 
ATOM      2  C   UNL     1       1.997   9.417  18.140  0.00  0.00    +0.000 C 
ATOM      3  O   UNL     1       2.193  10.303  17.304  0.00  0.00    +0.000 OA
ATOM      4  C   UNL     1       2.778   8.134  18.007  0.00  0.00    +0.000 C 
ATOM      5  C   UNL     1       2.121   6.978  18.734  0.00  0.00    +0.000 C 
ATOM      6  C   UNL     1       1.926   7.365  20.189  0.00  0.00    +0.000 C 
ATOM      7  C   UNL     1       1.171   8.659  20.357  0.00  0.00    +0.000 C 
ATOM      8  O   UNL     1       0.609   8.866  21.436  0.00  0.00    +0.000 OA
ENDROOT
BRANCH   1  15
ATOM      9  C   UNL     1      -1.509  10.004  18.113  0.00  0.00    +0.000 C 
ATOM     10  C   UNL     1      -0.747  11.055  18.873  0.00  0.00    +0.000 A 
ATOM     11  C   UNL     1      -1.347  12.315  19.055  0.00  0.00    +0.000 A 
ATOM     12  C   UNL     1      -0.722  13.309  19.809  0.00  0.00    +0.000 A 
ATOM     13  C   UNL     1       0.512  13.063  20.396  0.00  0.00    +0.000 A 
ATOM     14  C   UNL     1       1.127  11.823  20.221  0.00  0.00    +0.000 A 
ATOM     15  C   UNL     1       0.518  10.813  19.453  0.00  0.00    +0.000 A 
ENDBRANCH   1  15
BRANCH   5  16
ATOM     16  C   UNL     1       2.947   5.714  18.612  0.00  0.00    +0.000 A 
ATOM     17  C   UNL     1       2.625   4.603  17.757  0.00  0.00    +0.000 A 
ATOM     18  C   UNL     1       3.543   3.581  17.839  0.00  0.00    +0.000 A 
ATOM     19  S   UNL     1       4.797   3.938  18.938  0.00  0.00    +0.000 S 
ATOM     20  C   UNL     1       4.115   5.462  19.308  0.00  0.00    +0.000 A 
ENDBRANCH   5  16
TORSDOF 2
ENDMDL
MODEL 7
REMARK VINA RESULT:      -6.5      5.230      7.841
REMARK  Name = 
REMARK  3 active torsions:
REMARK  status: ('A' for Active; 'I' for Inactive)
REMARK    1  A    between atoms: C_1  and  C_2
REMARK    2  A    between atoms: C_7  and  N_8
REMARK    3  A    between atoms: C_12  and  C_13
REMARK                            x       y       z     vdW  Elec       q    Type
REMARK                         _______ _______ _______ _____ _____    ______ ____
ROOT
ATOM      1  N   UNL     1       1.138   9.604  19.336  0.00  0.00    +0.000 N 
ATOM      2  C   UNL     1       1.875   9.001  18.308  0.00  0.00    +0.000 C 
ATOM      3  O   UNL     1       2.186   9.552  17.248  0.00  0.00    +0.000 OA
ATOM      4  C   UNL     1       2.446   7.635  18.589  0.00  0.00    +0.000 C 
ATOM      5  C   UNL     1       1.637   6.869  19.616  0.00  0.00    +0.000 C 
ATOM      6  C   UNL     1       1.536   7.703  20.880  0.00  0.00    +0.000 C 
ATOM      7  C   UNL     1       0.993   9.087  20.629  0.00  0.00    +0.000 C 
ATOM      8  O   UNL     1       0.494   9.694  21.580  0.00  0.00    +0.000 OA
ENDROOT
BRANCH   1  15
ATOM      9  C   UNL     1      -1.595  10.086  18.231  0.00  0.00    +0.000 C 
ATOM     10  C   UNL     1      -0.616  11.185  18.541  0.00  0.00    +0.000 A 
ATOM     11  C   UNL     1      -1.010  12.516  18.310  0.00  0.00    +0.000 A 
ATOM     12  C   UNL     1      -0.175  13.583  18.642  0.00  0.00    +0.000 A 
ATOM     13  C   UNL     1       1.069  13.341  19.210  0.00  0.00    +0.000 A 
ATOM     14  C   UNL     1       1.482  12.029  19.439  0.00  0.00    +0.000 A 
ATOM     15  C   UNL     1       0.659  10.939  19.099  0.00  0.00    +0.000 A 
ENDBRANCH   1  15
BRANCH   5  16
ATOM     16  C   UNL     1       2.255   5.516  19.902  0.00  0.00    +0.000 A 
ATOM     17  C   UNL     1       1.759   4.574  20.869  0.00  0.00    +0.000 A 
ATOM     18  C   UNL     1       2.511   3.423  20.930  0.00  0.00    +0.000 A 
ATOM     19  S   UNL     1       3.816   3.455  19.834  0.00  0.00    +0.000 S 
ATOM     20  C   UNL     1       3.380   5.012  19.274  0.00  0.00    +0.000 A 
ENDBRANCH   5  16
TORSDOF 2
ENDMDL
MODEL 8
REMARK VINA RESULT:      -6.5      4.582      7.730
REMARK  Name = 
REMARK  3 active torsions:
REMARK  status: ('A' for Active; 'I' for Inactive)
REMARK    1  A    between atoms: C_1  and  C_2
REMARK    2  A    between atoms: C_7  and  N_8
REMARK    3  A    between atoms: C_12  and  C_13
REMARK                            x       y       z     vdW  Elec       q    Type
REMARK                         _______ _______ _______ _____ _____    ______ ____
ROOT
ATOM      1  N   UNL     1       2.543   6.726  18.979  0.00  0.00    +0.000 N 
ATOM      2  C   UNL     1       2.216   6.401  20.302  0.00  0.00    +0.000 C 
ATOM      3  O   UNL     1       2.569   5.370  20.881  0.00  0.00    +0.000 OA
ATOM      4  C   UNL     1       1.505   7.456  21.108  0.00  0.00    +0.000 C 
ATOM      5  C   UNL     1       0.697   8.401  20.242  0.00  0.00    +0.000 C 
ATOM      6  C   UNL     1       1.616   9.017  19.203  0.00  0.00    +0.000 C 
ATOM      7  C   UNL     1       2.364   7.986  18.395  0.00  0.00    +0.000 C 
ATOM      8  O   UNL     1       2.807   8.323  17.294  0.00  0.00    +0.000 OA
ENDROOT
BRANCH   1  15
ATOM      9  C   UNL     1       1.182   4.409  17.676  0.00  0.00    +0.000 C 
ATOM     10  C   UNL     1       2.670   4.628  17.642  0.00  0.00    +0.000 A 
ATOM     11  C   UNL     1       3.466   3.698  16.949  0.00  0.00    +0.000 A 
ATOM     12  C   UNL     1       4.843   3.882  16.822  0.00  0.00    +0.000 A 
ATOM     13  C   UNL     1       5.450   4.997  17.384  0.00  0.00    +0.000 A 
ATOM     14  C   UNL     1       4.680   5.926  18.082  0.00  0.00    +0.000 A 
ATOM     15  C   UNL     1       3.291   5.751  18.233  0.00  0.00    +0.000 A 
ENDBRANCH   1  15
BRANCH   5  16
ATOM     16  C   UNL     1       0.024   9.471  21.077  0.00  0.00    +0.000 A 
ATOM     17  C   UNL     1      -0.275   9.350  22.479  0.00  0.00    +0.000 A 
ATOM     18  C   UNL     1      -0.892  10.468  22.993  0.00  0.00    +0.000 A 
ATOM     19  S   UNL     1      -1.119  11.673  21.807  0.00  0.00    +0.000 S 
ATOM     20  C   UNL     1      -0.394  10.700  20.601  0.00  0.00    +0.000 A 
ENDBRANCH   5  16
TORSDOF 2
ENDMDL
MODEL 9
REMARK VINA RESULT:      -6.4      5.245      7.843
REMARK  Name = 
REMARK  3 active torsions:
REMARK  status: ('A' for Active; 'I' for Inactive)
REMARK    1  A    between atoms: C_1  and  C_2
REMARK    2  A    between atoms: C_7  and  N_8
REMARK    3  A    between atoms: C_12  and  C_13
REMARK                            x       y       z     vdW  Elec       q    Type
REMARK                         _______ _______ _______ _____ _____    ______ ____
ROOT
ATOM      1  N   UNL     1       1.132   9.634  19.443  0.00  0.00    +0.000 N 
ATOM      2  C   UNL     1       0.713   8.945  20.589  0.00  0.00    +0.000 C 
ATOM      3  O   UNL     1      -0.041   9.406  21.450  0.00  0.00    +0.000 OA
ATOM      4  C   UNL     1       1.102   7.493  20.693  0.00  0.00    +0.000 C 
ATOM      5  C   UNL     1       2.373   7.178  19.930  0.00  0.00    +0.000 C 
ATOM      6  C   UNL     1       2.193   7.606  18.485  0.00  0.00    +0.000 C 
ATOM      7  C   UNL     1       1.778   9.048  18.347  0.00  0.00    +0.000 C 
ATOM      8  O   UNL     1       1.991   9.612  17.270  0.00  0.00    +0.000 OA
ENDROOT
BRANCH   1  15
ATOM      9  C   UNL     1      -1.477  10.292  18.146  0.00  0.00    +0.000 C 
ATOM     10  C   UNL     1      -0.516  11.330  18.660  0.00  0.00    +0.000 A 
ATOM     11  C   UNL     1      -0.869  12.686  18.535  0.00  0.00    +0.000 A 
ATOM     12  C   UNL     1      -0.054  13.693  19.053  0.00  0.00    +0.000 A 
ATOM     13  C   UNL     1       1.128  13.364  19.705  0.00  0.00    +0.000 A 
ATOM     14  C   UNL     1       1.498  12.026  19.832  0.00  0.00    +0.000 A 
ATOM     15  C   UNL     1       0.696  10.997  19.304  0.00  0.00    +0.000 A 
ENDBRANCH   1  15
BRANCH   5  16
ATOM     16  C   UNL     1       2.717   5.706  20.025  0.00  0.00    +0.000 A 
ATOM     17  C   UNL     1       2.009   4.747  20.828  0.00  0.00    +0.000 A 
ATOM     18  C   UNL     1       2.531   3.477  20.733  0.00  0.00    +0.000 A 
ATOM     19  S   UNL     1       3.874   3.418  19.683  0.00  0.00    +0.000 S 
ATOM     20  C   UNL     1       3.760   5.092  19.353  0.00  0.00    +0.000 A 
ENDBRANCH   5  16
TORSDOF 2
ENDMDL
