MODEL 1
REMARK VINA RESULT:      -6.5      0.000      0.000
REMARK  Name = 
REMARK  5 active torsions:
REMARK  status: ('A' for Active; 'I' for Inactive)
REMARK    1  A    between atoms: C_4  and  N_5
REMARK    2  A    between atoms: C_6  and  C_8
REMARK    3  A    between atoms: C_17  and  N_18
REMARK    4  A    between atoms: C_19  and  C_21
REMARK    5  A    between atoms: C_33  and  O_34
REMARK                            x       y       z     vdW  Elec       q    Type
REMARK                         _______ _______ _______ _____ _____    ______ ____
ROOT
ATOM      1  C   UNL     1      -0.199  12.356  18.878  0.00  0.00    +0.000 C 
ATOM      2  C   UNL     1      -1.342  11.850  17.947  0.00  0.00    +0.000 C 
ATOM      3  O   UNL     1      -0.950  10.714  17.158  0.00  0.00    +0.000 OA
ATOM      4  C   UNL     1      -0.526   9.620  17.978  0.00  0.00    +0.000 C 
ATOM      5  C   UNL     1       0.649  10.068  18.873  0.00  0.00    +0.000 C 
ATOM      6  C   UNL     1       1.487   8.846  19.340  0.00  0.00    +0.000 C 
ATOM      7  C   UNL     1       0.985   8.267  20.604  0.00  0.00    +0.000 C 
ATOM      8  C   UNL     1       1.426   8.836  21.733  0.00  0.00    +0.000 C 
ATOM      9  C   UNL     1       0.361   9.297  22.661  0.00  0.00    +0.000 C 
ATOM     10  C   UNL     1       0.018  10.775  22.337  0.00  0.00    +0.000 C 
ATOM     11  C   UNL     1       0.642  11.476  21.037  0.00  0.00    +0.000 C 
ATOM     12  O   UNL     1       1.398  12.447  21.191  0.00  0.00    +0.000 OA
ATOM     13  N   UNL     1       0.131  11.194  19.777  0.00  0.00    +0.000 N 
ENDROOT
BRANCH   1  15
ATOM     14  N   UNL     1      -0.800  14.194  20.541  0.00  0.00    +0.000 N 
ATOM     15  C   UNL     1      -0.584  13.833  19.230  0.00  0.00    +0.000 C 
ATOM     16  O   UNL     1      -0.471  14.728  18.381  0.00  0.00    +0.000 OA
ATOM     17  H   UNL     1      -0.686  13.463  21.256  0.00  0.00    +0.000 HD
BRANCH  14  21
ATOM     18  O   UNL     1      -3.415  16.224  23.121  0.00  0.00    +0.000 OA
ATOM     19  C   UNL     1      -2.326  16.087  22.580  0.00  0.00    +0.000 C 
ATOM     20  C   UNL     1      -2.077  16.256  21.114  0.00  0.00    +0.000 C 
ATOM     21  C   UNL     1      -0.724  15.614  20.939  0.00  0.00    +0.000 C 
ATOM     22  C   UNL     1      -0.099  15.828  22.321  0.00  0.00    +0.000 C 
ATOM     23  O   UNL     1      -1.178  15.791  23.246  0.00  0.00    +0.000 OA
BRANCH  22  24
ATOM     24  O   UNL     1       0.874  14.861  22.670  0.00  0.00    +0.000 OA
ATOM     25  H   UNL     1       1.735  15.271  22.487  0.00  0.00    +0.000 HD
ENDBRANCH  22  24
ENDBRANCH  14  21
ENDBRANCH   1  15
BRANCH  10  26
ATOM     26  N   UNL     1      -1.390  11.111  22.573  0.00  0.00    +0.000 N 
ATOM     27  C   UNL     1      -1.795  12.283  23.189  0.00  0.00    +0.000 C 
ATOM     28  O   UNL     1      -0.977  13.036  23.708  0.00  0.00    +0.000 OA
ATOM     29  H   UNL     1      -2.106  10.565  22.108  0.00  0.00    +0.000 HD
BRANCH  27  30
ATOM     30  C   UNL     1      -3.224  12.591  23.172  0.00  0.00    +0.000 A 
ATOM     31  C   UNL     1      -3.995  12.780  22.038  0.00  0.00    +0.000 A 
ATOM     32  C   UNL     1      -5.362  13.115  22.312  0.00  0.00    +0.000 A 
ATOM     33  C   UNL     1      -6.429  13.422  21.430  0.00  0.00    +0.000 A 
ATOM     34  C   UNL     1      -7.688  13.761  21.931  0.00  0.00    +0.000 A 
ATOM     35  C   UNL     1      -7.909  13.784  23.302  0.00  0.00    +0.000 A 
ATOM     36  C   UNL     1      -6.881  13.474  24.194  0.00  0.00    +0.000 A 
ATOM     37  C   UNL     1      -5.603  13.146  23.686  0.00  0.00    +0.000 A 
ATOM     38  S   UNL     1      -4.176  12.756  24.580  0.00  0.00    +0.000 S 
ENDBRANCH  27  30
ENDBRANCH  10  26
TORSDOF 5
ENDMDL
MODEL 2
REMARK VINA RESULT:      -6.4      1.378      1.469
REMARK  Name = 
REMARK  5 active torsions:
REMARK  status: ('A' for Active; 'I' for Inactive)
REMARK    1  A    between atoms: C_4  and  N_5
REMARK    2  A    between atoms: C_6  and  C_8
REMARK    3  A    between atoms: C_17  and  N_18
REMARK    4  A    between atoms: C_19  and  C_21
REMARK    5  A    between atoms: C_33  and  O_34
REMARK                            x       y       z     vdW  Elec       q    Type
REMARK                         _______ _______ _______ _____ _____    ______ ____
ROOT
ATOM      1  C   UNL     1      -0.338  12.677  19.131  0.00  0.00    +0.000 C 
ATOM      2  C   UNL     1      -1.449  12.264  18.119  0.00  0.00    +0.000 C 
ATOM      3  O   UNL     1      -1.223  10.963  17.551  0.00  0.00    +0.000 OA
ATOM      4  C   UNL     1      -1.140   9.951  18.560  0.00  0.00    +0.000 C 
ATOM      5  C   UNL     1      -0.007  10.296  19.549  0.00  0.00    +0.000 C 
ATOM      6  C   UNL     1       0.490   9.024  20.289  0.00  0.00    +0.000 C 
ATOM      7  C   UNL     1      -0.266   8.762  21.532  0.00  0.00    +0.000 C 
ATOM      8  C   UNL     1       0.154   9.405  22.628  0.00  0.00    +0.000 C 
ATOM      9  C   UNL     1      -0.886  10.207  23.324  0.00  0.00    +0.000 C 
ATOM     10  C   UNL     1      -0.863  11.652  22.762  0.00  0.00    +0.000 C 
ATOM     11  C   UNL     1       0.041  12.003  21.486  0.00  0.00    +0.000 C 
ATOM     12  O   UNL     1       0.965  12.820  21.619  0.00  0.00    +0.000 OA
ATOM     13  N   UNL     1      -0.371  11.630  20.214  0.00  0.00    +0.000 N 
ENDROOT
BRANCH   1  15
ATOM     14  N   UNL     1      -0.848  14.831  20.400  0.00  0.00    +0.000 N 
ATOM     15  C   UNL     1      -0.435  14.238  19.227  0.00  0.00    +0.000 C 
ATOM     16  O   UNL     1       0.072  14.951  18.350  0.00  0.00    +0.000 OA
ATOM     17  H   UNL     1      -1.070  14.210  21.189  0.00  0.00    +0.000 HD
BRANCH  14  21
ATOM     18  O   UNL     1      -3.432  17.729  21.991  0.00  0.00    +0.000 OA
ATOM     19  C   UNL     1      -2.312  17.290  21.770  0.00  0.00    +0.000 C 
ATOM     20  C   UNL     1      -1.696  17.174  20.411  0.00  0.00    +0.000 C 
ATOM     21  C   UNL     1      -0.531  16.250  20.661  0.00  0.00    +0.000 C 
ATOM     22  C   UNL     1      -0.213  16.543  22.130  0.00  0.00    +0.000 C 
ATOM     23  O   UNL     1      -1.454  16.872  22.739  0.00  0.00    +0.000 OA
BRANCH  22  24
ATOM     24  O   UNL     1       0.394  15.463  22.815  0.00  0.00    +0.000 OA
ATOM     25  H   UNL     1      -0.263  15.154  23.460  0.00  0.00    +0.000 HD
ENDBRANCH  22  24
ENDBRANCH  14  21
ENDBRANCH   1  15
BRANCH  10  26
ATOM     26  N   UNL     1      -2.184  12.290  22.746  0.00  0.00    +0.000 N 
ATOM     27  C   UNL     1      -2.455  13.484  23.392  0.00  0.00    +0.000 C 
ATOM     28  O   UNL     1      -1.631  13.994  24.145  0.00  0.00    +0.000 OA
ATOM     29  H   UNL     1      -2.879  11.955  22.090  0.00  0.00    +0.000 HD
BRANCH  27  30
ATOM     30  C   UNL     1      -3.747  14.115  23.122  0.00  0.00    +0.000 A 
ATOM     31  C   UNL     1      -4.503  13.946  21.975  0.00  0.00    +0.000 A 
ATOM     32  C   UNL     1      -5.709  14.721  21.954  0.00  0.00    +0.000 A 
ATOM     33  C   UNL     1      -6.703  14.847  20.950  0.00  0.00    +0.000 A 
ATOM     34  C   UNL     1      -7.792  15.703  21.135  0.00  0.00    +0.000 A 
ATOM     35  C   UNL     1      -7.917  16.427  22.314  0.00  0.00    +0.000 A 
ATOM     36  C   UNL     1      -6.960  16.312  23.324  0.00  0.00    +0.000 A 
ATOM     37  C   UNL     1      -5.852  15.458  23.129  0.00  0.00    +0.000 A 
ATOM     38  S   UNL     1      -4.533  15.171  24.210  0.00  0.00    +0.000 S 
ENDBRANCH  27  30
ENDBRANCH  10  26
TORSDOF 5
ENDMDL
MODEL 3
REMARK VINA RESULT:      -6.3      1.500      1.781
REMARK  Name = 
REMARK  5 active torsions:
REMARK  status: ('A' for Active; 'I' for Inactive)
REMARK    1  A    between atoms: C_4  and  N_5
REMARK    2  A    between atoms: C_6  and  C_8
REMARK    3  A    between atoms: C_17  and  N_18
REMARK    4  A    between atoms: C_19  and  C_21
REMARK    5  A    between atoms: C_33  and  O_34
REMARK                            x       y       z     vdW  Elec       q    Type
REMARK                         _______ _______ _______ _____ _____    ______ ____
ROOT
ATOM      1  C   UNL     1      -0.145  12.636  19.058  0.00  0.00    +0.000 C 
ATOM      2  C   UNL     1      -1.231  12.234  18.015  0.00  0.00    +0.000 C 
ATOM      3  O   UNL     1      -1.013  10.923  17.467  0.00  0.00    +0.000 OA
ATOM      4  C   UNL     1      -0.982   9.920  18.489  0.00  0.00    +0.000 C 
ATOM      5  C   UNL     1       0.126  10.254  19.510  0.00  0.00    +0.000 C 
ATOM      6  C   UNL     1       0.574   8.980  20.278  0.00  0.00    +0.000 C 
ATOM      7  C   UNL     1      -0.226   8.746  21.499  0.00  0.00    +0.000 C 
ATOM      8  C   UNL     1       0.172   9.393  22.601  0.00  0.00    +0.000 C 
ATOM      9  C   UNL     1      -0.873  10.222  23.255  0.00  0.00    +0.000 C 
ATOM     10  C   UNL     1      -0.804  11.661  22.681  0.00  0.00    +0.000 C 
ATOM     11  C   UNL     1       0.147  11.980  21.430  0.00  0.00    +0.000 C 
ATOM     12  O   UNL     1       1.082  12.780  21.584  0.00  0.00    +0.000 OA
ATOM     13  N   UNL     1      -0.232  11.602  20.149  0.00  0.00    +0.000 N 
ENDROOT
BRANCH   1  15
ATOM     14  N   UNL     1      -0.741  14.811  20.250  0.00  0.00    +0.000 N 
ATOM     15  C   UNL     1      -0.213  14.199  19.134  0.00  0.00    +0.000 C 
ATOM     16  O   UNL     1       0.405  14.894  18.316  0.00  0.00    +0.000 OA
ATOM     17  H   UNL     1      -1.065  14.201  21.013  0.00  0.00    +0.000 HD
BRANCH  14  21
ATOM     18  O   UNL     1      -3.335  17.699  21.843  0.00  0.00    +0.000 OA
ATOM     19  C   UNL     1      -2.214  17.257  21.634  0.00  0.00    +0.000 C 
ATOM     20  C   UNL     1      -1.576  17.159  20.284  0.00  0.00    +0.000 C 
ATOM     21  C   UNL     1      -0.421  16.224  20.539  0.00  0.00    +0.000 C 
ATOM     22  C   UNL     1      -0.125  16.493  22.018  0.00  0.00    +0.000 C 
ATOM     23  O   UNL     1      -1.375  16.820  22.611  0.00  0.00    +0.000 OA
BRANCH  22  24
ATOM     24  O   UNL     1       0.464  15.399  22.696  0.00  0.00    +0.000 OA
ATOM     25  H   UNL     1      -0.251  14.757  22.838  0.00  0.00    +0.000 HD
ENDBRANCH  22  24
ENDBRANCH  14  21
ENDBRANCH   1  15
BRANCH  10  26
ATOM     26  N   UNL     1      -2.111  12.325  22.616  0.00  0.00    +0.000 N 
ATOM     27  C   UNL     1      -2.397  13.498  23.292  0.00  0.00    +0.000 C 
ATOM     28  O   UNL     1      -1.608  13.963  24.107  0.00  0.00    +0.000 OA
ATOM     29  H   UNL     1      -2.774  12.027  21.910  0.00  0.00    +0.000 HD
BRANCH  27  30
ATOM     30  C   UNL     1      -3.660  14.164  22.975  0.00  0.00    +0.000 A 
ATOM     31  C   UNL     1      -4.398  14.949  23.843  0.00  0.00    +0.000 A 
ATOM     32  C   UNL     1      -5.622  15.443  23.284  0.00  0.00    +0.000 A 
ATOM     33  C   UNL     1      -6.649  16.229  23.867  0.00  0.00    +0.000 A 
ATOM     34  C   UNL     1      -7.788  16.565  23.132  0.00  0.00    +0.000 A 
ATOM     35  C   UNL     1      -7.917  16.145  21.814  0.00  0.00    +0.000 A 
ATOM     36  C   UNL     1      -6.916  15.381  21.211  0.00  0.00    +0.000 A 
ATOM     37  C   UNL     1      -5.771  15.029  21.960  0.00  0.00    +0.000 A 
ATOM     38  S   UNL     1      -4.422  14.075  21.449  0.00  0.00    +0.000 S 
ENDBRANCH  27  30
ENDBRANCH  10  26
TORSDOF 5
ENDMDL
MODEL 4
REMARK VINA RESULT:      -6.3      2.842      5.130
REMARK  Name = 
REMARK  5 active torsions:
REMARK  status: ('A' for Active; 'I' for Inactive)
REMARK    1  A    between atoms: C_4  and  N_5
REMARK    2  A    between atoms: C_6  and  C_8
REMARK    3  A    between atoms: C_17  and  N_18
REMARK    4  A    between atoms: C_19  and  C_21
REMARK    5  A    between atoms: C_33  and  O_34
REMARK                            x       y       z     vdW  Elec       q    Type
REMARK                         _______ _______ _______ _____ _____    ______ ____
ROOT
ATOM      1  C   UNL     1       0.781  16.141  21.584  0.00  0.00    +0.000 C 
ATOM      2  C   UNL     1      -0.061  17.305  20.979  0.00  0.00    +0.000 C 
ATOM      3  O   UNL     1       0.747  18.269  20.284  0.00  0.00    +0.000 OA
ATOM      4  C   UNL     1       1.498  17.666  19.226  0.00  0.00    +0.000 C 
ATOM      5  C   UNL     1       2.393  16.545  19.797  0.00  0.00    +0.000 C 
ATOM      6  C   UNL     1       3.592  16.256  18.853  0.00  0.00    +0.000 C 
ATOM      7  C   UNL     1       3.274  15.231  17.835  0.00  0.00    +0.000 C 
ATOM      8  C   UNL     1       3.430  13.956  18.210  0.00  0.00    +0.000 C 
ATOM      9  C   UNL     1       2.230  13.098  18.032  0.00  0.00    +0.000 C 
ATOM     10  C   UNL     1       1.395  13.126  19.339  0.00  0.00    +0.000 C 
ATOM     11  C   UNL     1       1.784  14.142  20.517  0.00  0.00    +0.000 C 
ATOM     12  O   UNL     1       2.133  13.675  21.612  0.00  0.00    +0.000 OA
ATOM     13  N   UNL     1       1.465  15.489  20.412  0.00  0.00    +0.000 N 
ENDROOT
BRANCH   1  15
ATOM     14  N   UNL     1      -0.889  14.409  22.432  0.00  0.00    +0.000 N 
ATOM     15  C   UNL     1      -0.124  15.523  22.703  0.00  0.00    +0.000 C 
ATOM     16  O   UNL     1       0.011  15.874  23.883  0.00  0.00    +0.000 OA
ATOM     17  H   UNL     1      -0.823  14.011  21.486  0.00  0.00    +0.000 HD
BRANCH  14  21
ATOM     18  O   UNL     1      -4.862  13.254  23.126  0.00  0.00    +0.000 OA
ATOM     19  C   UNL     1      -3.657  13.087  23.243  0.00  0.00    +0.000 C 
ATOM     20  C   UNL     1      -2.748  13.975  24.034  0.00  0.00    +0.000 C 
ATOM     21  C   UNL     1      -1.384  13.565  23.539  0.00  0.00    +0.000 C 
ATOM     22  C   UNL     1      -1.626  12.108  23.135  0.00  0.00    +0.000 C 
ATOM     23  O   UNL     1      -2.976  12.046  22.694  0.00  0.00    +0.000 OA
BRANCH  22  24
ATOM     24  O   UNL     1      -0.760  11.640  22.118  0.00  0.00    +0.000 OA
ATOM     25  H   UNL     1      -0.867  12.255  21.373  0.00  0.00    +0.000 HD
ENDBRANCH  22  24
ENDBRANCH  14  21
ENDBRANCH   1  15
BRANCH  10  26
ATOM     26  N   UNL     1      -0.049  13.009  19.109  0.00  0.00    +0.000 N 
ATOM     27  C   UNL     1      -0.666  11.821  18.761  0.00  0.00    +0.000 C 
ATOM     28  O   UNL     1      -0.004  10.828  18.476  0.00  0.00    +0.000 OA
ATOM     29  H   UNL     1      -0.651  13.773  19.395  0.00  0.00    +0.000 HD
BRANCH  27  30
ATOM     30  C   UNL     1      -2.128  11.795  18.769  0.00  0.00    +0.000 A 
ATOM     31  C   UNL     1      -2.944  12.606  19.539  0.00  0.00    +0.000 A 
ATOM     32  C   UNL     1      -4.344  12.338  19.384  0.00  0.00    +0.000 A 
ATOM     33  C   UNL     1      -5.468  12.917  20.026  0.00  0.00    +0.000 A 
ATOM     34  C   UNL     1      -6.759  12.466  19.739  0.00  0.00    +0.000 A 
ATOM     35  C   UNL     1      -6.952  11.453  18.808  0.00  0.00    +0.000 A 
ATOM     36  C   UNL     1      -5.865  10.873  18.152  0.00  0.00    +0.000 A 
ATOM     37  C   UNL     1      -4.559  11.320  18.454  0.00  0.00    +0.000 A 
ATOM     38  S   UNL     1      -3.065  10.745  17.802  0.00  0.00    +0.000 S 
ENDBRANCH  27  30
ENDBRANCH  10  26
TORSDOF 5
ENDMDL
MODEL 5
REMARK VINA RESULT:      -6.2      3.251      7.162
REMARK  Name = 
REMARK  5 active torsions:
REMARK  status: ('A' for Active; 'I' for Inactive)
REMARK    1  A    between atoms: C_4  and  N_5
REMARK    2  A    between atoms: C_6  and  C_8
REMARK    3  A    between atoms: C_17  and  N_18
REMARK    4  A    between atoms: C_19  and  C_21
REMARK    5  A    between atoms: C_33  and  O_34
REMARK                            x       y       z     vdW  Elec       q    Type
REMARK                         _______ _______ _______ _____ _____    ______ ____
ROOT
ATOM      1  C   UNL     1      -4.864  11.775  18.717  0.00  0.00    +0.000 C 
ATOM      2  C   UNL     1      -5.316  12.272  17.310  0.00  0.00    +0.000 C 
ATOM      3  O   UNL     1      -6.745  12.371  17.191  0.00  0.00    +0.000 OA
ATOM      4  C   UNL     1      -7.299  13.252  18.174  0.00  0.00    +0.000 C 
ATOM      5  C   UNL     1      -6.923  12.755  19.586  0.00  0.00    +0.000 C 
ATOM      6  C   UNL     1      -7.917  13.300  20.649  0.00  0.00    +0.000 C 
ATOM      7  C   UNL     1      -7.496  14.608  21.196  0.00  0.00    +0.000 C 
ATOM      8  C   UNL     1      -6.629  14.571  22.216  0.00  0.00    +0.000 C 
ATOM      9  C   UNL     1      -5.386  15.360  22.011  0.00  0.00    +0.000 C 
ATOM     10  C   UNL     1      -4.308  14.442  21.379  0.00  0.00    +0.000 C 
ATOM     11  C   UNL     1      -4.700  12.969  20.882  0.00  0.00    +0.000 C 
ATOM     12  O   UNL     1      -4.163  11.994  21.431  0.00  0.00    +0.000 OA
ATOM     13  N   UNL     1      -5.393  12.794  19.692  0.00  0.00    +0.000 N 
ENDROOT
BRANCH   1  15
ATOM     14  N   UNL     1      -2.363  11.772  19.219  0.00  0.00    +0.000 N 
ATOM     15  C   UNL     1      -3.411  11.228  18.509  0.00  0.00    +0.000 C 
ATOM     16  O   UNL     1      -3.223  10.170  17.894  0.00  0.00    +0.000 OA
ATOM     17  H   UNL     1      -2.586  12.526  19.883  0.00  0.00    +0.000 HD
BRANCH  14  21
ATOM     18  O   UNL     1       1.521  13.160  18.452  0.00  0.00    +0.000 OA
ATOM     19  C   UNL     1       0.738  12.411  19.017  0.00  0.00    +0.000 C 
ATOM     20  C   UNL     1      -0.071  11.353  18.335  0.00  0.00    +0.000 C 
ATOM     21  C   UNL     1      -1.106  11.014  19.378  0.00  0.00    +0.000 C 
ATOM     22  C   UNL     1      -0.358  11.338  20.674  0.00  0.00    +0.000 C 
ATOM     23  O   UNL     1       0.517  12.414  20.360  0.00  0.00    +0.000 OA
BRANCH  22  24
ATOM     24  O   UNL     1      -1.201  11.697  21.753  0.00  0.00    +0.000 OA
ATOM     25  H   UNL     1      -1.764  12.416  21.423  0.00  0.00    +0.000 HD
ENDBRANCH  22  24
ENDBRANCH  14  21
ENDBRANCH   1  15
BRANCH  10  26
ATOM     26  N   UNL     1      -3.399  15.151  20.471  0.00  0.00    +0.000 N 
ATOM     27  C   UNL     1      -2.468  16.078  20.905  0.00  0.00    +0.000 C 
ATOM     28  O   UNL     1      -2.461  16.466  22.069  0.00  0.00    +0.000 OA
ATOM     29  H   UNL     1      -3.312  14.824  19.516  0.00  0.00    +0.000 HD
BRANCH  27  30
ATOM     30  C   UNL     1      -1.487  16.551  19.929  0.00  0.00    +0.000 A 
ATOM     31  C   UNL     1      -1.733  17.458  18.913  0.00  0.00    +0.000 A 
ATOM     32  C   UNL     1      -0.599  17.711  18.072  0.00  0.00    +0.000 A 
ATOM     33  C   UNL     1      -0.473  18.529  16.920  0.00  0.00    +0.000 A 
ATOM     34  C   UNL     1       0.738  18.595  16.227  0.00  0.00    +0.000 A 
ATOM     35  C   UNL     1       1.836  17.869  16.672  0.00  0.00    +0.000 A 
ATOM     36  C   UNL     1       1.744  17.066  17.810  0.00  0.00    +0.000 A 
ATOM     37  C   UNL     1       0.514  16.988  18.501  0.00  0.00    +0.000 A 
ATOM     38  S   UNL     1       0.145  16.050  19.905  0.00  0.00    +0.000 S 
ENDBRANCH  27  30
ENDBRANCH  10  26
TORSDOF 5
ENDMDL
MODEL 6
REMARK VINA RESULT:      -6.2      2.636      7.407
REMARK  Name = 
REMARK  5 active torsions:
REMARK  status: ('A' for Active; 'I' for Inactive)
REMARK    1  A    between atoms: C_4  and  N_5
REMARK    2  A    between atoms: C_6  and  C_8
REMARK    3  A    between atoms: C_17  and  N_18
REMARK    4  A    between atoms: C_19  and  C_21
REMARK    5  A    between atoms: C_33  and  O_34
REMARK                            x       y       z     vdW  Elec       q    Type
REMARK                         _______ _______ _______ _____ _____    ______ ____
ROOT
ATOM      1  C   UNL     1      -5.690  13.550  22.209  0.00  0.00    +0.000 C 
ATOM      2  C   UNL     1      -6.305  12.528  21.205  0.00  0.00    +0.000 C 
ATOM      3  O   UNL     1      -7.577  12.956  20.691  0.00  0.00    +0.000 OA
ATOM      4  C   UNL     1      -7.484  14.225  20.034  0.00  0.00    +0.000 C 
ATOM      5  C   UNL     1      -6.934  15.279  21.018  0.00  0.00    +0.000 C 
ATOM      6  C   UNL     1      -7.331  16.714  20.573  0.00  0.00    +0.000 C 
ATOM      7  C   UNL     1      -6.337  17.316  19.659  0.00  0.00    +0.000 C 
ATOM      8  C   UNL     1      -5.294  17.924  20.237  0.00  0.00    +0.000 C 
ATOM      9  C   UNL     1      -3.961  17.442  19.792  0.00  0.00    +0.000 C 
ATOM     10  C   UNL     1      -3.502  16.297  20.731  0.00  0.00    +0.000 C 
ATOM     11  C   UNL     1      -4.516  15.698  21.820  0.00  0.00    +0.000 C 
ATOM     12  O   UNL     1      -4.233  15.814  23.022  0.00  0.00    +0.000 OA
ATOM     13  N   UNL     1      -5.526  14.830  21.431  0.00  0.00    +0.000 N 
ENDROOT
BRANCH   1  15
ATOM     14  N   UNL     1      -3.356  12.589  22.577  0.00  0.00    +0.000 N 
ATOM     15  C   UNL     1      -4.646  12.728  23.039  0.00  0.00    +0.000 C 
ATOM     16  O   UNL     1      -4.895  12.399  24.207  0.00  0.00    +0.000 OA
ATOM     17  H   UNL     1      -3.121  13.053  21.690  0.00  0.00    +0.000 HD
BRANCH  14  21
ATOM     18  O   UNL     1       0.134  10.448  21.658  0.00  0.00    +0.000 OA
ATOM     19  C   UNL     1      -0.494  11.239  22.348  0.00  0.00    +0.000 C 
ATOM     20  C   UNL     1      -1.661  10.876  23.211  0.00  0.00    +0.000 C 
ATOM     21  C   UNL     1      -2.273  12.221  23.512  0.00  0.00    +0.000 C 
ATOM     22  C   UNL     1      -1.053  13.142  23.425  0.00  0.00    +0.000 C 
ATOM     23  O   UNL     1      -0.195  12.562  22.452  0.00  0.00    +0.000 OA
BRANCH  22  24
ATOM     24  O   UNL     1      -1.362  14.476  23.067  0.00  0.00    +0.000 OA
ATOM     25  H   UNL     1      -2.261  14.639  23.398  0.00  0.00    +0.000 HD
ENDBRANCH  22  24
ENDBRANCH  14  21
ENDBRANCH   1  15
BRANCH  10  26
ATOM     26  N   UNL     1      -2.690  15.279  20.055  0.00  0.00    +0.000 N 
ATOM     27  C   UNL     1      -1.307  15.279  20.075  0.00  0.00    +0.000 C 
ATOM     28  O   UNL     1      -0.684  16.228  20.541  0.00  0.00    +0.000 OA
ATOM     29  H   UNL     1      -3.145  14.439  19.717  0.00  0.00    +0.000 HD
BRANCH  27  30
ATOM     30  C   UNL     1      -0.627  14.098  19.544  0.00  0.00    +0.000 A 
ATOM     31  C   UNL     1      -1.243  12.920  19.158  0.00  0.00    +0.000 A 
ATOM     32  C   UNL     1      -0.331  11.905  18.715  0.00  0.00    +0.000 A 
ATOM     33  C   UNL     1      -0.572  10.574  18.291  0.00  0.00    +0.000 A 
ATOM     34  C   UNL     1       0.491   9.741  17.933  0.00  0.00    +0.000 A 
ATOM     35  C   UNL     1       1.795  10.217  17.977  0.00  0.00    +0.000 A 
ATOM     36  C   UNL     1       2.061  11.527  18.378  0.00  0.00    +0.000 A 
ATOM     37  C   UNL     1       0.986  12.364  18.754  0.00  0.00    +0.000 A 
ATOM     38  S   UNL     1       1.061  14.000  19.309  0.00  0.00    +0.000 S 
ENDBRANCH  27  30
ENDBRANCH  10  26
TORSDOF 5
ENDMDL
MODEL 7
REMARK VINA RESULT:      -6.1      8.188     10.402
REMARK  Name = 
REMARK  5 active torsions:
REMARK  status: ('A' for Active; 'I' for Inactive)
REMARK    1  A    between atoms: C_4  and  N_5
REMARK    2  A    between atoms: C_6  and  C_8
REMARK    3  A    between atoms: C_17  and  N_18
REMARK    4  A    between atoms: C_19  and  C_21
REMARK    5  A    between atoms: C_33  and  O_34
REMARK                            x       y       z     vdW  Elec       q    Type
REMARK                         _______ _______ _______ _____ _____    ______ ____
ROOT
ATOM      1  C   UNL     1       7.957  15.062  18.012  0.00  0.00    +0.000 C 
ATOM      2  C   UNL     1       8.597  13.644  18.119  0.00  0.00    +0.000 C 
ATOM      3  O   UNL     1       9.857  13.554  17.435  0.00  0.00    +0.000 OA
ATOM      4  C   UNL     1      10.801  14.508  17.935  0.00  0.00    +0.000 C 
ATOM      5  C   UNL     1      10.225  15.932  17.789  0.00  0.00    +0.000 C 
ATOM      6  C   UNL     1      11.362  16.991  17.776  0.00  0.00    +0.000 C 
ATOM      7  C   UNL     1      11.707  17.467  19.133  0.00  0.00    +0.000 C 
ATOM      8  C   UNL     1      10.959  18.466  19.618  0.00  0.00    +0.000 C 
ATOM      9  C   UNL     1      10.327  18.195  20.935  0.00  0.00    +0.000 C 
ATOM     10  C   UNL     1       8.923  17.582  20.701  0.00  0.00    +0.000 C 
ATOM     11  C   UNL     1       8.466  17.164  19.222  0.00  0.00    +0.000 C 
ATOM     12  O   UNL     1       7.495  17.746  18.714  0.00  0.00    +0.000 OA
ATOM     13  N   UNL     1       8.952  16.000  18.643  0.00  0.00    +0.000 N 
ENDROOT
BRANCH   1  15
ATOM     14  N   UNL     1       5.881  15.364  19.465  0.00  0.00    +0.000 N 
ATOM     15  C   UNL     1       6.435  14.845  18.315  0.00  0.00    +0.000 C 
ATOM     16  O   UNL     1       5.676  14.420  17.433  0.00  0.00    +0.000 OA
ATOM     17  H   UNL     1       6.503  15.896  20.088  0.00  0.00    +0.000 HD
BRANCH  14  21
ATOM     18  O   UNL     1       3.473  14.739  22.844  0.00  0.00    +0.000 OA
ATOM     19  C   UNL     1       3.700  15.272  21.767  0.00  0.00    +0.000 C 
ATOM     20  C   UNL     1       3.741  14.556  20.454  0.00  0.00    +0.000 C 
ATOM     21  C   UNL     1       4.421  15.561  19.558  0.00  0.00    +0.000 C 
ATOM     22  C   UNL     1       4.024  16.884  20.220  0.00  0.00    +0.000 C 
ATOM     23  O   UNL     1       3.916  16.606  21.610  0.00  0.00    +0.000 OA
BRANCH  22  24
ATOM     24  O   UNL     1       4.947  17.935  20.005  0.00  0.00    +0.000 OA
ATOM     25  H   UNL     1       4.553  18.723  20.414  0.00  0.00    +0.000 HD
ENDBRANCH  22  24
ENDBRANCH  14  21
ENDBRANCH   1  15
BRANCH  10  26
ATOM     26  N   UNL     1       8.527  16.621  21.737  0.00  0.00    +0.000 N 
ATOM     27  C   UNL     1       7.375  16.753  22.491  0.00  0.00    +0.000 C 
ATOM     28  O   UNL     1       6.698  17.775  22.433  0.00  0.00    +0.000 OA
ATOM     29  H   UNL     1       9.006  15.729  21.781  0.00  0.00    +0.000 HD
BRANCH  27  30
ATOM     30  C   UNL     1       6.992  15.622  23.336  0.00  0.00    +0.000 A 
ATOM     31  C   UNL     1       7.117  14.286  22.999  0.00  0.00    +0.000 A 
ATOM     32  C   UNL     1       6.621  13.384  23.998  0.00  0.00    +0.000 A 
ATOM     33  C   UNL     1       6.535  11.969  23.999  0.00  0.00    +0.000 A 
ATOM     34  C   UNL     1       5.972  11.294  25.085  0.00  0.00    +0.000 A 
ATOM     35  C   UNL     1       5.503  12.006  26.181  0.00  0.00    +0.000 A 
ATOM     36  C   UNL     1       5.586  13.399  26.213  0.00  0.00    +0.000 A 
ATOM     37  C   UNL     1       6.143  14.082  25.108  0.00  0.00    +0.000 A 
ATOM     38  S   UNL     1       6.327  15.788  24.900  0.00  0.00    +0.000 S 
ENDBRANCH  27  30
ENDBRANCH  10  26
TORSDOF 5
ENDMDL
MODEL 8
REMARK VINA RESULT:      -6.1      3.141      7.735
REMARK  Name = 
REMARK  5 active torsions:
REMARK  status: ('A' for Active; 'I' for Inactive)
REMARK    1  A    between atoms: C_4  and  N_5
REMARK    2  A    between atoms: C_6  and  C_8
REMARK    3  A    between atoms: C_17  and  N_18
REMARK    4  A    between atoms: C_19  and  C_21
REMARK    5  A    between atoms: C_33  and  O_34
REMARK                            x       y       z     vdW  Elec       q    Type
REMARK                         _______ _______ _______ _____ _____    ______ ____
ROOT
ATOM      1  C   UNL     1      -6.493  13.137  19.384  0.00  0.00    +0.000 C 
ATOM      2  C   UNL     1      -6.362  14.265  18.316  0.00  0.00    +0.000 C 
ATOM      3  O   UNL     1      -7.343  15.303  18.485  0.00  0.00    +0.000 OA
ATOM      4  C   UNL     1      -7.259  15.905  19.781  0.00  0.00    +0.000 C 
ATOM      5  C   UNL     1      -7.444  14.825  20.868  0.00  0.00    +0.000 C 
ATOM      6  C   UNL     1      -7.917  15.459  22.206  0.00  0.00    +0.000 C 
ATOM      7  C   UNL     1      -6.786  15.869  23.066  0.00  0.00    +0.000 C 
ATOM      8  C   UNL     1      -6.264  14.919  23.851  0.00  0.00    +0.000 C 
ATOM      9  C   UNL     1      -4.800  14.714  23.701  0.00  0.00    +0.000 C 
ATOM     10  C   UNL     1      -4.555  13.621  22.628  0.00  0.00    +0.000 C 
ATOM     11  C   UNL     1      -5.780  13.063  21.757  0.00  0.00    +0.000 C 
ATOM     12  O   UNL     1      -6.083  11.864  21.858  0.00  0.00    +0.000 OA
ATOM     13  N   UNL     1      -6.297  13.818  20.714  0.00  0.00    +0.000 N 
ENDROOT
BRANCH   1  15
ATOM     14  N   UNL     1      -4.589  12.075  18.059  0.00  0.00    +0.000 N 
ATOM     15  C   UNL     1      -5.761  11.900  18.761  0.00  0.00    +0.000 C 
ATOM     16  O   UNL     1      -6.091  10.751  19.084  0.00  0.00    +0.000 OA
ATOM     17  H   UNL     1      -4.226  13.035  17.981  0.00  0.00    +0.000 HD
BRANCH  14  21
ATOM     18  O   UNL     1      -3.759  10.142  14.429  0.00  0.00    +0.000 OA
ATOM     19  C   UNL     1      -3.461  10.462  15.571  0.00  0.00    +0.000 C 
ATOM     20  C   UNL     1      -4.154   9.968  16.801  0.00  0.00    +0.000 C 
ATOM     21  C   UNL     1      -3.673  10.935  17.854  0.00  0.00    +0.000 C 
ATOM     22  C   UNL     1      -2.306  11.343  17.298  0.00  0.00    +0.000 C 
ATOM     23  O   UNL     1      -2.430  11.293  15.883  0.00  0.00    +0.000 OA
BRANCH  22  24
ATOM     24  O   UNL     1      -1.879  12.630  17.704  0.00  0.00    +0.000 OA
ATOM     25  H   UNL     1      -2.421  13.261  17.201  0.00  0.00    +0.000 HD
ENDBRANCH  22  24
ENDBRANCH  14  21
ENDBRANCH   1  15
BRANCH  10  26
ATOM     26  N   UNL     1      -3.325  13.829  21.856  0.00  0.00    +0.000 N 
ATOM     27  C   UNL     1      -2.132  13.189  22.146  0.00  0.00    +0.000 C 
ATOM     28  O   UNL     1      -2.008  12.522  23.168  0.00  0.00    +0.000 OA
ATOM     29  H   UNL     1      -3.384  14.310  20.967  0.00  0.00    +0.000 HD
BRANCH  27  30
ATOM     30  C   UNL     1      -1.046  13.322  21.176  0.00  0.00    +0.000 A 
ATOM     31  C   UNL     1      -0.361  12.276  20.583  0.00  0.00    +0.000 A 
ATOM     32  C   UNL     1       0.690  12.693  19.701  0.00  0.00    +0.000 A 
ATOM     33  C   UNL     1       1.625  11.929  18.959  0.00  0.00    +0.000 A 
ATOM     34  C   UNL     1       2.599  12.561  18.182  0.00  0.00    +0.000 A 
ATOM     35  C   UNL     1       2.649  13.948  18.119  0.00  0.00    +0.000 A 
ATOM     36  C   UNL     1       1.733  14.725  18.829  0.00  0.00    +0.000 A 
ATOM     37  C   UNL     1       0.757  14.085  19.627  0.00  0.00    +0.000 A 
ATOM     38  S   UNL     1      -0.457  14.823  20.612  0.00  0.00    +0.000 S 
ENDBRANCH  27  30
ENDBRANCH  10  26
TORSDOF 5
ENDMDL
MODEL 9
REMARK VINA RESULT:      -6.1      1.835      2.646
REMARK  Name = 
REMARK  5 active torsions:
REMARK  status: ('A' for Active; 'I' for Inactive)
REMARK    1  A    between atoms: C_4  and  N_5
REMARK    2  A    between atoms: C_6  and  C_8
REMARK    3  A    between atoms: C_17  and  N_18
REMARK    4  A    between atoms: C_19  and  C_21
REMARK    5  A    between atoms: C_33  and  O_34
REMARK                            x       y       z     vdW  Elec       q    Type
REMARK                         _______ _______ _______ _____ _____    ______ ____
ROOT
ATOM      1  C   UNL     1      -0.334  13.101  19.389  0.00  0.00    +0.000 C 
ATOM      2  C   UNL     1      -1.593  12.875  18.497  0.00  0.00    +0.000 C 
ATOM      3  O   UNL     1      -1.416  11.806  17.553  0.00  0.00    +0.000 OA
ATOM      4  C   UNL     1      -1.104  10.570  18.205  0.00  0.00    +0.000 C 
ATOM      5  C   UNL     1       0.176  10.739  19.051  0.00  0.00    +0.000 C 
ATOM      6  C   UNL     1       0.858   9.367  19.306  0.00  0.00    +0.000 C 
ATOM      7  C   UNL     1       0.356   8.705  20.529  0.00  0.00    +0.000 C 
ATOM      8  C   UNL     1       0.942   9.063  21.679  0.00  0.00    +0.000 C 
ATOM      9  C   UNL     1       0.013   9.543  22.735  0.00  0.00    +0.000 C 
ATOM     10  C   UNL     1      -0.134  11.081  22.613  0.00  0.00    +0.000 C 
ATOM     11  C   UNL     1       0.503  11.851  21.358  0.00  0.00    +0.000 C 
ATOM     12  O   UNL     1       1.398  12.685  21.565  0.00  0.00    +0.000 OA
ATOM     13  N   UNL     1      -0.119  11.801  20.118  0.00  0.00    +0.000 N 
ENDROOT
BRANCH   1  15
ATOM     14  N   UNL     1       0.641  15.321  20.182  0.00  0.00    +0.000 N 
ATOM     15  C   UNL     1      -0.482  14.560  19.939  0.00  0.00    +0.000 C 
ATOM     16  O   UNL     1      -1.587  15.120  19.940  0.00  0.00    +0.000 OA
ATOM     17  H   UNL     1       1.553  14.894  19.975  0.00  0.00    +0.000 HD
BRANCH  14  21
ATOM     18  O   UNL     1       3.806  18.076  20.200  0.00  0.00    +0.000 OA
ATOM     19  C   UNL     1       2.638  17.780  19.994  0.00  0.00    +0.000 C 
ATOM     20  C   UNL     1       1.648  17.425  21.059  0.00  0.00    +0.000 C 
ATOM     21  C   UNL     1       0.532  16.792  20.267  0.00  0.00    +0.000 C 
ATOM     22  C   UNL     1       0.677  17.493  18.913  0.00  0.00    +0.000 C 
ATOM     23  O   UNL     1       2.064  17.763  18.760  0.00  0.00    +0.000 OA
BRANCH  22  24
ATOM     24  O   UNL     1       0.206  16.733  17.816  0.00  0.00    +0.000 OA
ATOM     25  H   UNL     1       0.937  16.707  17.177  0.00  0.00    +0.000 HD
ENDBRANCH  22  24
ENDBRANCH  14  21
ENDBRANCH   1  15
BRANCH  10  26
ATOM     26  N   UNL     1      -1.463  11.571  22.996  0.00  0.00    +0.000 N 
ATOM     27  C   UNL     1      -1.694  12.862  23.439  0.00  0.00    +0.000 C 
ATOM     28  O   UNL     1      -0.761  13.622  23.677  0.00  0.00    +0.000 OA
ATOM     29  H   UNL     1      -2.275  11.016  22.755  0.00  0.00    +0.000 HD
BRANCH  27  30
ATOM     30  C   UNL     1      -3.088  13.282  23.584  0.00  0.00    +0.000 A 
ATOM     31  C   UNL     1      -4.158  12.446  23.849  0.00  0.00    +0.000 A 
ATOM     32  C   UNL     1      -5.424  13.118  23.896  0.00  0.00    +0.000 A 
ATOM     33  C   UNL     1      -6.731  12.605  24.094  0.00  0.00    +0.000 A 
ATOM     34  C   UNL     1      -7.838  13.457  24.063  0.00  0.00    +0.000 A 
ATOM     35  C   UNL     1      -7.665  14.819  23.855  0.00  0.00    +0.000 A 
ATOM     36  C   UNL     1      -6.389  15.353  23.670  0.00  0.00    +0.000 A 
ATOM     37  C   UNL     1      -5.271  14.489  23.686  0.00  0.00    +0.000 A 
ATOM     38  S   UNL     1      -3.608  14.903  23.455  0.00  0.00    +0.000 S 
ENDBRANCH  27  30
ENDBRANCH  10  26
TORSDOF 5
ENDMDL
