MODEL 1
REMARK VINA RESULT:      -7.1      0.000      0.000
REMARK  Name = 
REMARK  9 active torsions:
REMARK  status: ('A' for Active; 'I' for Inactive)
REMARK    1  A    between atoms: C_1  and  N_2
REMARK    2  A    between atoms: N_2  and  C_3
REMARK    3  A    between atoms: N_2  and  C_4
REMARK    4  A    between atoms: C_4  and  C_5
REMARK    5  A    between atoms: C_5  and  C_6
REMARK    6  A    between atoms: C_5  and  C_7
REMARK    7  A    between atoms: C_5  and  C_8
REMARK    8  A    between atoms: C_8  and  N_9
REMARK    9  A    between atoms: N_9  and  C_10
REMARK                            x       y       z     vdW  Elec       q    Type
REMARK                         _______ _______ _______ _____ _____    ______ ____
ROOT
ATOM      1  C   UNL     1       4.951   3.068  18.206  0.00  0.00    +0.000 C 
ATOM      2  C   UNL     1       4.281   3.286  19.358  0.00  0.00    +0.000 C 
ATOM      3  C   UNL     1       4.352   2.190  20.374  0.00  0.00    +0.000 C 
ATOM      4  O   UNL     1       5.212   1.318  20.380  0.00  0.00    +0.000 OA
ATOM      5  N   UNL     1       3.334   2.198  21.295  0.00  0.00    +0.000 N 
ATOM      6  C   UNL     1       2.365   3.156  21.483  0.00  0.00    +0.000 C 
ATOM      7  O   UNL     1       1.499   3.032  22.342  0.00  0.00    +0.000 OA
ATOM      8  C   UNL     1       2.448   4.372  20.639  0.00  0.00    +0.000 A 
ATOM      9  C   UNL     1       1.582   5.445  20.904  0.00  0.00    +0.000 A 
ATOM     10  C   UNL     1       1.694   6.631  20.183  0.00  0.00    +0.000 A 
ATOM     11  C   UNL     1       2.698   6.764  19.232  0.00  0.00    +0.000 A 
ATOM     12  C   UNL     1       3.561   5.696  18.982  0.00  0.00    +0.000 A 
ATOM     13  C   UNL     1       3.417   4.460  19.634  0.00  0.00    +0.000 A 
ATOM     14  H   UNL     1       3.311   1.417  21.934  0.00  0.00    +0.000 HD
ENDROOT
BRANCH   1  15
ATOM     15  N   UNL     1       4.866   3.805  17.044  0.00  0.00    +0.000 N 
ATOM     16  H   UNL     1       3.909   4.070  16.819  0.00  0.00    +0.000 HD
BRANCH  15  17
ATOM     17  C   UNL     1       5.699   3.697  15.859  0.00  0.00    +0.000 C 
BRANCH  17  18
ATOM     18  C   UNL     1       6.348   5.077  15.548  0.00  0.00    +0.000 C 
ATOM     19  C   UNL     1       5.248   6.143  15.393  0.00  0.00    +0.000 C 
ATOM     20  C   UNL     1       7.062   5.008  14.172  0.00  0.00    +0.000 C 
BRANCH  18  21
ATOM     21  C   UNL     1       7.414   5.487  16.623  0.00  0.00    +0.000 C 
BRANCH  21  23
ATOM     22  C   UNL     1       7.347   5.767  19.017  0.00  0.00    +0.000 C 
ATOM     23  N   UNL     1       7.020   6.391  17.727  0.00  0.00    +0.000 NA
ATOM     24  C   UNL     1       7.669   7.700  17.661  0.00  0.00    +0.000 C 
ENDBRANCH  21  23
ENDBRANCH  18  21
ENDBRANCH  17  18
ENDBRANCH  15  17
ENDBRANCH   1  15
TORSDOF 5
ENDMDL
MODEL 2
REMARK VINA RESULT:      -7.0      2.545      5.682
REMARK  Name = 
REMARK  9 active torsions:
REMARK  status: ('A' for Active; 'I' for Inactive)
REMARK    1  A    between atoms: C_1  and  N_2
REMARK    2  A    between atoms: N_2  and  C_3
REMARK    3  A    between atoms: N_2  and  C_4
REMARK    4  A    between atoms: C_4  and  C_5
REMARK    5  A    between atoms: C_5  and  C_6
REMARK    6  A    between atoms: C_5  and  C_7
REMARK    7  A    between atoms: C_5  and  C_8
REMARK    8  A    between atoms: C_8  and  N_9
REMARK    9  A    between atoms: N_9  and  C_10
REMARK                            x       y       z     vdW  Elec       q    Type
REMARK                         _______ _______ _______ _____ _____    ______ ____
ROOT
ATOM      1  C   UNL     1       5.611   3.896  19.615  0.00  0.00    +0.000 C 
ATOM      2  C   UNL     1       6.337   4.669  18.779  0.00  0.00    +0.000 C 
ATOM      3  C   UNL     1       7.371   5.538  19.424  0.00  0.00    +0.000 C 
ATOM      4  O   UNL     1       7.821   5.348  20.546  0.00  0.00    +0.000 OA
ATOM      5  N   UNL     1       7.755   6.621  18.672  0.00  0.00    +0.000 N 
ATOM      6  C   UNL     1       7.425   6.912  17.368  0.00  0.00    +0.000 C 
ATOM      7  O   UNL     1       7.831   7.928  16.816  0.00  0.00    +0.000 OA
ATOM      8  C   UNL     1       6.602   5.914  16.644  0.00  0.00    +0.000 A 
ATOM      9  C   UNL     1       6.376   6.088  15.270  0.00  0.00    +0.000 A 
ATOM     10  C   UNL     1       5.678   5.123  14.546  0.00  0.00    +0.000 A 
ATOM     11  C   UNL     1       5.248   3.966  15.182  0.00  0.00    +0.000 A 
ATOM     12  C   UNL     1       5.487   3.796  16.547  0.00  0.00    +0.000 A 
ATOM     13  C   UNL     1       6.113   4.790  17.318  0.00  0.00    +0.000 A 
ATOM     14  H   UNL     1       8.384   7.270  19.122  0.00  0.00    +0.000 HD
ENDROOT
BRANCH   1  15
ATOM     15  N   UNL     1       4.470   3.185  19.309  0.00  0.00    +0.000 N 
ATOM     16  H   UNL     1       4.369   3.022  18.309  0.00  0.00    +0.000 HD
BRANCH  15  17
ATOM     17  C   UNL     1       3.188   3.222  19.991  0.00  0.00    +0.000 C 
BRANCH  17  18
ATOM     18  C   UNL     1       2.048   3.430  18.952  0.00  0.00    +0.000 C 
ATOM     19  C   UNL     1       0.691   3.102  19.601  0.00  0.00    +0.000 C 
ATOM     20  C   UNL     1       2.217   2.408  17.796  0.00  0.00    +0.000 C 
BRANCH  18  21
ATOM     21  C   UNL     1       2.068   4.869  18.329  0.00  0.00    +0.000 C 
BRANCH  21  23
ATOM     22  C   UNL     1       3.286   6.927  18.024  0.00  0.00    +0.000 C 
ATOM     23  N   UNL     1       2.820   5.945  19.014  0.00  0.00    +0.000 NA
ATOM     24  C   UNL     1       2.033   6.640  20.032  0.00  0.00    +0.000 C 
ENDBRANCH  21  23
ENDBRANCH  18  21
ENDBRANCH  17  18
ENDBRANCH  15  17
ENDBRANCH   1  15
TORSDOF 5
ENDMDL
MODEL 3
REMARK VINA RESULT:      -6.9      1.914      3.719
REMARK  Name = 
REMARK  9 active torsions:
REMARK  status: ('A' for Active; 'I' for Inactive)
REMARK    1  A    between atoms: C_1  and  N_2
REMARK    2  A    between atoms: N_2  and  C_3
REMARK    3  A    between atoms: N_2  and  C_4
REMARK    4  A    between atoms: C_4  and  C_5
REMARK    5  A    between atoms: C_5  and  C_6
REMARK    6  A    between atoms: C_5  and  C_7
REMARK    7  A    between atoms: C_5  and  C_8
REMARK    8  A    between atoms: C_8  and  N_9
REMARK    9  A    between atoms: N_9  and  C_10
REMARK                            x       y       z     vdW  Elec       q    Type
REMARK                         _______ _______ _______ _____ _____    ______ ____
ROOT
ATOM      1  C   UNL     1       3.385   6.700  18.183  0.00  0.00    +0.000 C 
ATOM      2  C   UNL     1       2.796   5.789  18.986  0.00  0.00    +0.000 C 
ATOM      3  C   UNL     1       2.113   6.332  20.202  0.00  0.00    +0.000 C 
ATOM      4  O   UNL     1       1.766   7.499  20.328  0.00  0.00    +0.000 OA
ATOM      5  N   UNL     1       1.943   5.421  21.216  0.00  0.00    +0.000 N 
ATOM      6  C   UNL     1       2.181   4.066  21.191  0.00  0.00    +0.000 C 
ATOM      7  O   UNL     1       1.996   3.365  22.180  0.00  0.00    +0.000 OA
ATOM      8  C   UNL     1       2.619   3.484  19.900  0.00  0.00    +0.000 A 
ATOM      9  C   UNL     1       2.718   2.088  19.782  0.00  0.00    +0.000 A 
ATOM     10  C   UNL     1       3.044   1.509  18.558  0.00  0.00    +0.000 A 
ATOM     11  C   UNL     1       3.224   2.317  17.443  0.00  0.00    +0.000 A 
ATOM     12  C   UNL     1       3.112   3.703  17.567  0.00  0.00    +0.000 A 
ATOM     13  C   UNL     1       2.868   4.319  18.806  0.00  0.00    +0.000 A 
ATOM     14  H   UNL     1       1.567   5.786  22.079  0.00  0.00    +0.000 HD
ENDROOT
BRANCH   1  15
ATOM     15  N   UNL     1       4.251   6.452  17.141  0.00  0.00    +0.000 N 
ATOM     16  H   UNL     1       4.318   5.461  16.917  0.00  0.00    +0.000 HD
BRANCH  15  17
ATOM     17  C   UNL     1       5.465   7.174  16.800  0.00  0.00    +0.000 C 
BRANCH  17  18
ATOM     18  C   UNL     1       6.704   6.394  17.327  0.00  0.00    +0.000 C 
ATOM     19  C   UNL     1       6.332   5.645  18.621  0.00  0.00    +0.000 C 
ATOM     20  C   UNL     1       7.812   7.403  17.730  0.00  0.00    +0.000 C 
BRANCH  18  21
ATOM     21  C   UNL     1       7.303   5.430  16.244  0.00  0.00    +0.000 C 
BRANCH  21  23
ATOM     22  C   UNL     1       7.222   5.003  13.873  0.00  0.00    +0.000 C 
ATOM     23  N   UNL     1       6.448   4.980  15.122  0.00  0.00    +0.000 NA
ATOM     24  C   UNL     1       5.905   3.636  15.313  0.00  0.00    +0.000 C 
ENDBRANCH  21  23
ENDBRANCH  18  21
ENDBRANCH  17  18
ENDBRANCH  15  17
ENDBRANCH   1  15
TORSDOF 5
ENDMDL
MODEL 4
REMARK VINA RESULT:      -6.7      2.719      3.920
REMARK  Name = 
REMARK  9 active torsions:
REMARK  status: ('A' for Active; 'I' for Inactive)
REMARK    1  A    between atoms: C_1  and  N_2
REMARK    2  A    between atoms: N_2  and  C_3
REMARK    3  A    between atoms: N_2  and  C_4
REMARK    4  A    between atoms: C_4  and  C_5
REMARK    5  A    between atoms: C_5  and  C_6
REMARK    6  A    between atoms: C_5  and  C_7
REMARK    7  A    between atoms: C_5  and  C_8
REMARK    8  A    between atoms: C_8  and  N_9
REMARK    9  A    between atoms: N_9  and  C_10
REMARK                            x       y       z     vdW  Elec       q    Type
REMARK                         _______ _______ _______ _____ _____    ______ ____
ROOT
ATOM      1  C   UNL     1       3.611   7.375  16.994  0.00  0.00    +0.000 C 
ATOM      2  C   UNL     1       2.726   7.399  18.014  0.00  0.00    +0.000 C 
ATOM      3  C   UNL     1       2.099   8.726  18.304  0.00  0.00    +0.000 C 
ATOM      4  O   UNL     1       2.063   9.655  17.507  0.00  0.00    +0.000 OA
ATOM      5  N   UNL     1       1.596   8.854  19.575  0.00  0.00    +0.000 N 
ATOM      6  C   UNL     1       1.467   7.883  20.541  0.00  0.00    +0.000 C 
ATOM      7  O   UNL     1       1.008   8.138  21.649  0.00  0.00    +0.000 OA
ATOM      8  C   UNL     1       1.856   6.503  20.163  0.00  0.00    +0.000 A 
ATOM      9  C   UNL     1       1.592   5.453  21.057  0.00  0.00    +0.000 A 
ATOM     10  C   UNL     1       1.869   4.137  20.694  0.00  0.00    +0.000 A 
ATOM     11  C   UNL     1       2.364   3.865  19.425  0.00  0.00    +0.000 A 
ATOM     12  C   UNL     1       2.614   4.914  18.539  0.00  0.00    +0.000 A 
ATOM     13  C   UNL     1       2.423   6.256  18.909  0.00  0.00    +0.000 A 
ATOM     14  H   UNL     1       1.248   9.770  19.823  0.00  0.00    +0.000 HD
ENDROOT
BRANCH   1  15
ATOM     15  N   UNL     1       4.477   6.353  16.671  0.00  0.00    +0.000 N 
ATOM     16  H   UNL     1       4.875   5.903  17.494  0.00  0.00    +0.000 HD
BRANCH  15  17
ATOM     17  C   UNL     1       5.356   6.262  15.517  0.00  0.00    +0.000 C 
BRANCH  17  18
ATOM     18  C   UNL     1       6.320   5.052  15.689  0.00  0.00    +0.000 C 
ATOM     19  C   UNL     1       6.974   4.716  14.336  0.00  0.00    +0.000 C 
ATOM     20  C   UNL     1       5.499   3.795  16.080  0.00  0.00    +0.000 C 
BRANCH  18  21
ATOM     21  C   UNL     1       7.388   5.298  16.811  0.00  0.00    +0.000 C 
BRANCH  21  23
ATOM     22  C   UNL     1       7.536   5.756  19.173  0.00  0.00    +0.000 C 
ATOM     23  N   UNL     1       7.108   6.291  17.873  0.00  0.00    +0.000 NA
ATOM     24  C   UNL     1       7.771   7.575  17.651  0.00  0.00    +0.000 C 
ENDBRANCH  21  23
ENDBRANCH  18  21
ENDBRANCH  17  18
ENDBRANCH  15  17
ENDBRANCH   1  15
TORSDOF 5
ENDMDL
MODEL 5
REMARK VINA RESULT:      -6.6      3.505      5.903
REMARK  Name = 
REMARK  9 active torsions:
REMARK  status: ('A' for Active; 'I' for Inactive)
REMARK    1  A    between atoms: C_1  and  N_2
REMARK    2  A    between atoms: N_2  and  C_3
REMARK    3  A    between atoms: N_2  and  C_4
REMARK    4  A    between atoms: C_4  and  C_5
REMARK    5  A    between atoms: C_5  and  C_6
REMARK    6  A    between atoms: C_5  and  C_7
REMARK    7  A    between atoms: C_5  and  C_8
REMARK    8  A    between atoms: C_8  and  N_9
REMARK    9  A    between atoms: N_9  and  C_10
REMARK                            x       y       z     vdW  Elec       q    Type
REMARK                         _______ _______ _______ _____ _____    ______ ____
ROOT
ATOM      1  C   UNL     1       3.619   7.371  17.555  0.00  0.00    +0.000 C 
ATOM      2  C   UNL     1       3.612   6.040  17.780  0.00  0.00    +0.000 C 
ATOM      3  C   UNL     1       4.439   5.214  16.844  0.00  0.00    +0.000 C 
ATOM      4  O   UNL     1       5.347   5.663  16.156  0.00  0.00    +0.000 OA
ATOM      5  N   UNL     1       4.070   3.893  16.771  0.00  0.00    +0.000 N 
ATOM      6  C   UNL     1       3.154   3.221  17.546  0.00  0.00    +0.000 C 
ATOM      7  O   UNL     1       2.909   2.034  17.365  0.00  0.00    +0.000 OA
ATOM      8  C   UNL     1       2.516   3.984  18.646  0.00  0.00    +0.000 A 
ATOM      9  C   UNL     1       1.699   3.302  19.562  0.00  0.00    +0.000 A 
ATOM     10  C   UNL     1       1.156   3.975  20.654  0.00  0.00    +0.000 A 
ATOM     11  C   UNL     1       1.466   5.313  20.858  0.00  0.00    +0.000 A 
ATOM     12  C   UNL     1       2.288   5.981  19.949  0.00  0.00    +0.000 A 
ATOM     13  C   UNL     1       2.780   5.349  18.794  0.00  0.00    +0.000 A 
ATOM     14  H   UNL     1       4.555   3.338  16.081  0.00  0.00    +0.000 HD
ENDROOT
BRANCH   1  15
ATOM     15  N   UNL     1       2.786   8.313  18.119  0.00  0.00    +0.000 N 
ATOM     16  H   UNL     1       2.849   8.330  19.136  0.00  0.00    +0.000 HD
BRANCH  15  17
ATOM     17  C   UNL     1       1.486   8.752  17.642  0.00  0.00    +0.000 C 
BRANCH  17  18
ATOM     18  C   UNL     1       0.934   9.865  18.579  0.00  0.00    +0.000 C 
ATOM     19  C   UNL     1      -0.485  10.262  18.131  0.00  0.00    +0.000 C 
ATOM     20  C   UNL     1       1.797  11.145  18.418  0.00  0.00    +0.000 C 
BRANCH  18  21
ATOM     21  C   UNL     1       0.975   9.444  20.090  0.00  0.00    +0.000 C 
BRANCH  21  23
ATOM     22  C   UNL     1      -0.399   8.488  21.824  0.00  0.00    +0.000 C 
ATOM     23  N   UNL     1      -0.227   9.642  20.931  0.00  0.00    +0.000 NA
ATOM     24  C   UNL     1      -0.171  10.859  21.740  0.00  0.00    +0.000 C 
ENDBRANCH  21  23
ENDBRANCH  18  21
ENDBRANCH  17  18
ENDBRANCH  15  17
ENDBRANCH   1  15
TORSDOF 5
ENDMDL
MODEL 6
REMARK VINA RESULT:      -6.6      2.007      3.205
REMARK  Name = 
REMARK  9 active torsions:
REMARK  status: ('A' for Active; 'I' for Inactive)
REMARK    1  A    between atoms: C_1  and  N_2
REMARK    2  A    between atoms: N_2  and  C_3
REMARK    3  A    between atoms: N_2  and  C_4
REMARK    4  A    between atoms: C_4  and  C_5
REMARK    5  A    between atoms: C_5  and  C_6
REMARK    6  A    between atoms: C_5  and  C_7
REMARK    7  A    between atoms: C_5  and  C_8
REMARK    8  A    between atoms: C_8  and  N_9
REMARK    9  A    between atoms: N_9  and  C_10
REMARK                            x       y       z     vdW  Elec       q    Type
REMARK                         _______ _______ _______ _____ _____    ______ ____
ROOT
ATOM      1  C   UNL     1       3.433   6.561  17.743  0.00  0.00    +0.000 C 
ATOM      2  C   UNL     1       2.817   5.810  18.681  0.00  0.00    +0.000 C 
ATOM      3  C   UNL     1       2.389   6.532  19.919  0.00  0.00    +0.000 C 
ATOM      4  O   UNL     1       2.246   7.746  19.988  0.00  0.00    +0.000 OA
ATOM      5  N   UNL     1       2.210   5.726  21.017  0.00  0.00    +0.000 N 
ATOM      6  C   UNL     1       2.229   4.352  21.075  0.00  0.00    +0.000 C 
ATOM      7  O   UNL     1       2.065   3.753  22.133  0.00  0.00    +0.000 OA
ATOM      8  C   UNL     1       2.402   3.626  19.794  0.00  0.00    +0.000 A 
ATOM      9  C   UNL     1       2.267   2.229  19.780  0.00  0.00    +0.000 A 
ATOM     10  C   UNL     1       2.340   1.529  18.578  0.00  0.00    +0.000 A 
ATOM     11  C   UNL     1       2.499   2.227  17.387  0.00  0.00    +0.000 A 
ATOM     12  C   UNL     1       2.621   3.617  17.409  0.00  0.00    +0.000 A 
ATOM     13  C   UNL     1       2.637   4.339  18.614  0.00  0.00    +0.000 A 
ATOM     14  H   UNL     1       2.008   6.201  21.885  0.00  0.00    +0.000 HD
ENDROOT
BRANCH   1  15
ATOM     15  N   UNL     1       4.110   6.109  16.631  0.00  0.00    +0.000 N 
ATOM     16  H   UNL     1       3.885   5.143  16.403  0.00  0.00    +0.000 HD
BRANCH  15  17
ATOM     17  C   UNL     1       5.443   6.481  16.187  0.00  0.00    +0.000 C 
BRANCH  17  18
ATOM     18  C   UNL     1       6.299   5.200  15.971  0.00  0.00    +0.000 C 
ATOM     19  C   UNL     1       7.153   5.357  14.699  0.00  0.00    +0.000 C 
ATOM     20  C   UNL     1       5.358   3.996  15.697  0.00  0.00    +0.000 C 
BRANCH  18  21
ATOM     21  C   UNL     1       7.173   4.850  17.225  0.00  0.00    +0.000 C 
BRANCH  21  23
ATOM     22  C   UNL     1       6.057   4.501  19.333  0.00  0.00    +0.000 C 
ATOM     23  N   UNL     1       6.838   5.456  18.534  0.00  0.00    +0.000 NA
ATOM     24  C   UNL     1       8.015   5.860  19.302  0.00  0.00    +0.000 C 
ENDBRANCH  21  23
ENDBRANCH  18  21
ENDBRANCH  17  18
ENDBRANCH  15  17
ENDBRANCH   1  15
TORSDOF 5
ENDMDL
MODEL 7
REMARK VINA RESULT:      -6.5      4.285      6.577
REMARK  Name = 
REMARK  9 active torsions:
REMARK  status: ('A' for Active; 'I' for Inactive)
REMARK    1  A    between atoms: C_1  and  N_2
REMARK    2  A    between atoms: N_2  and  C_3
REMARK    3  A    between atoms: N_2  and  C_4
REMARK    4  A    between atoms: C_4  and  C_5
REMARK    5  A    between atoms: C_5  and  C_6
REMARK    6  A    between atoms: C_5  and  C_7
REMARK    7  A    between atoms: C_5  and  C_8
REMARK    8  A    between atoms: C_8  and  N_9
REMARK    9  A    between atoms: N_9  and  C_10
REMARK                            x       y       z     vdW  Elec       q    Type
REMARK                         _______ _______ _______ _____ _____    ______ ____
ROOT
ATOM      1  C   UNL     1       2.149   7.572  19.383  0.00  0.00    +0.000 C 
ATOM      2  C   UNL     1       1.525   8.769  19.395  0.00  0.00    +0.000 C 
ATOM      3  C   UNL     1       1.708   9.614  18.174  0.00  0.00    +0.000 C 
ATOM      4  O   UNL     1       2.066   9.178  17.087  0.00  0.00    +0.000 OA
ATOM      5  N   UNL     1       1.490  10.956  18.370  0.00  0.00    +0.000 N 
ATOM      6  C   UNL     1       0.989  11.582  19.488  0.00  0.00    +0.000 C 
ATOM      7  O   UNL     1       0.856  12.800  19.535  0.00  0.00    +0.000 OA
ATOM      8  C   UNL     1       0.567  10.713  20.613  0.00  0.00    +0.000 A 
ATOM      9  C   UNL     1      -0.097  11.291  21.706  0.00  0.00    +0.000 A 
ATOM     10  C   UNL     1      -0.581  10.488  22.737  0.00  0.00    +0.000 A 
ATOM     11  C   UNL     1      -0.444   9.109  22.654  0.00  0.00    +0.000 A 
ATOM     12  C   UNL     1       0.208   8.542  21.558  0.00  0.00    +0.000 A 
ATOM     13  C   UNL     1       0.780   9.332  20.547  0.00  0.00    +0.000 A 
ATOM     14  H   UNL     1       1.695  11.556  17.584  0.00  0.00    +0.000 HD
ENDROOT
BRANCH   1  15
ATOM     15  N   UNL     1       2.322   6.715  20.449  0.00  0.00    +0.000 N 
ATOM     16  H   UNL     1       3.290   6.673  20.762  0.00  0.00    +0.000 HD
BRANCH  15  17
ATOM     17  C   UNL     1       1.600   5.486  20.729  0.00  0.00    +0.000 C 
BRANCH  17  18
ATOM     18  C   UNL     1       2.230   4.313  19.923  0.00  0.00    +0.000 C 
ATOM     19  C   UNL     1       1.405   4.061  18.647  0.00  0.00    +0.000 C 
ATOM     20  C   UNL     1       2.127   3.007  20.753  0.00  0.00    +0.000 C 
BRANCH  18  21
ATOM     21  C   UNL     1       3.745   4.560  19.601  0.00  0.00    +0.000 C 
BRANCH  21  23
ATOM     22  C   UNL     1       5.231   5.838  18.198  0.00  0.00    +0.000 C 
ATOM     23  N   UNL     1       4.154   4.838  18.206  0.00  0.00    +0.000 NA
ATOM     24  C   UNL     1       4.612   3.648  17.490  0.00  0.00    +0.000 C 
ENDBRANCH  21  23
ENDBRANCH  18  21
ENDBRANCH  17  18
ENDBRANCH  15  17
ENDBRANCH   1  15
TORSDOF 5
ENDMDL
MODEL 8
REMARK VINA RESULT:      -6.5      4.038      6.203
REMARK  Name = 
REMARK  9 active torsions:
REMARK  status: ('A' for Active; 'I' for Inactive)
REMARK    1  A    between atoms: C_1  and  N_2
REMARK    2  A    between atoms: N_2  and  C_3
REMARK    3  A    between atoms: N_2  and  C_4
REMARK    4  A    between atoms: C_4  and  C_5
REMARK    5  A    between atoms: C_5  and  C_6
REMARK    6  A    between atoms: C_5  and  C_7
REMARK    7  A    between atoms: C_5  and  C_8
REMARK    8  A    between atoms: C_8  and  N_9
REMARK    9  A    between atoms: N_9  and  C_10
REMARK                            x       y       z     vdW  Elec       q    Type
REMARK                         _______ _______ _______ _____ _____    ______ ____
ROOT
ATOM      1  C   UNL     1       3.378   7.391  17.730  0.00  0.00    +0.000 C 
ATOM      2  C   UNL     1       3.484   6.056  17.904  0.00  0.00    +0.000 C 
ATOM      3  C   UNL     1       4.406   5.345  16.965  0.00  0.00    +0.000 C 
ATOM      4  O   UNL     1       5.288   5.900  16.321  0.00  0.00    +0.000 OA
ATOM      5  N   UNL     1       4.159   4.001  16.831  0.00  0.00    +0.000 N 
ATOM      6  C   UNL     1       3.286   3.220  17.552  0.00  0.00    +0.000 C 
ATOM      7  O   UNL     1       3.153   2.024  17.319  0.00  0.00    +0.000 OA
ATOM      8  C   UNL     1       2.553   3.879  18.660  0.00  0.00    +0.000 A 
ATOM      9  C   UNL     1       1.776   3.091  19.524  0.00  0.00    +0.000 A 
ATOM     10  C   UNL     1       1.145   3.669  20.623  0.00  0.00    +0.000 A 
ATOM     11  C   UNL     1       1.328   5.021  20.887  0.00  0.00    +0.000 A 
ATOM     12  C   UNL     1       2.111   5.794  20.028  0.00  0.00    +0.000 A 
ATOM     13  C   UNL     1       2.689   5.255  18.867  0.00  0.00    +0.000 A 
ATOM     14  H   UNL     1       4.710   3.518  16.136  0.00  0.00    +0.000 HD
ENDROOT
BRANCH   1  15
ATOM     15  N   UNL     1       2.448   8.232  18.303  0.00  0.00    +0.000 N 
ATOM     16  H   UNL     1       1.806   7.740  18.922  0.00  0.00    +0.000 HD
BRANCH  15  17
ATOM     17  C   UNL     1       1.849   9.423  17.725  0.00  0.00    +0.000 C 
BRANCH  17  18
ATOM     18  C   UNL     1       0.940  10.116  18.782  0.00  0.00    +0.000 C 
ATOM     19  C   UNL     1       0.942   9.295  20.084  0.00  0.00    +0.000 C 
ATOM     20  C   UNL     1      -0.528  10.104  18.280  0.00  0.00    +0.000 C 
BRANCH  18  21
ATOM     21  C   UNL     1       1.351  11.610  19.030  0.00  0.00    +0.000 C 
BRANCH  21  23
ATOM     22  C   UNL     1       0.729  12.956  20.930  0.00  0.00    +0.000 C 
ATOM     23  N   UNL     1       0.349  12.557  19.568  0.00  0.00    +0.000 NA
ATOM     24  C   UNL     1       0.195  13.760  18.751  0.00  0.00    +0.000 C 
ENDBRANCH  21  23
ENDBRANCH  18  21
ENDBRANCH  17  18
ENDBRANCH  15  17
ENDBRANCH   1  15
TORSDOF 5
ENDMDL
MODEL 9
REMARK VINA RESULT:      -6.5      4.034      6.540
REMARK  Name = 
REMARK  9 active torsions:
REMARK  status: ('A' for Active; 'I' for Inactive)
REMARK    1  A    between atoms: C_1  and  N_2
REMARK    2  A    between atoms: N_2  and  C_3
REMARK    3  A    between atoms: N_2  and  C_4
REMARK    4  A    between atoms: C_4  and  C_5
REMARK    5  A    between atoms: C_5  and  C_6
REMARK    6  A    between atoms: C_5  and  C_7
REMARK    7  A    between atoms: C_5  and  C_8
REMARK    8  A    between atoms: C_8  and  N_9
REMARK    9  A    between atoms: N_9  and  C_10
REMARK                            x       y       z     vdW  Elec       q    Type
REMARK                         _______ _______ _______ _____ _____    ______ ____
ROOT
ATOM      1  C   UNL     1       3.183   7.535  17.852  0.00  0.00    +0.000 C 
ATOM      2  C   UNL     1       3.436   6.214  17.979  0.00  0.00    +0.000 C 
ATOM      3  C   UNL     1       4.432   5.643  17.019  0.00  0.00    +0.000 C 
ATOM      4  O   UNL     1       5.247   6.314  16.399  0.00  0.00    +0.000 OA
ATOM      5  N   UNL     1       4.335   4.285  16.837  0.00  0.00    +0.000 N 
ATOM      6  C   UNL     1       3.553   3.388  17.527  0.00  0.00    +0.000 C 
ATOM      7  O   UNL     1       3.553   2.193  17.252  0.00  0.00    +0.000 OA
ATOM      8  C   UNL     1       2.752   3.922  18.654  0.00  0.00    +0.000 A 
ATOM      9  C   UNL     1       2.066   3.023  19.487  0.00  0.00    +0.000 A 
ATOM     10  C   UNL     1       1.375   3.489  20.603  0.00  0.00    +0.000 A 
ATOM     11  C   UNL     1       1.408   4.843  20.915  0.00  0.00    +0.000 A 
ATOM     12  C   UNL     1       2.101   5.727  20.087  0.00  0.00    +0.000 A 
ATOM     13  C   UNL     1       2.735   5.297  18.910  0.00  0.00    +0.000 A 
ATOM     14  H   UNL     1       4.936   3.891  16.128  0.00  0.00    +0.000 HD
ENDROOT
BRANCH   1  15
ATOM     15  N   UNL     1       2.167   8.247  18.450  0.00  0.00    +0.000 N 
ATOM     16  H   UNL     1       1.620   7.679  19.095  0.00  0.00    +0.000 HD
BRANCH  15  17
ATOM     17  C   UNL     1       1.390   9.337  17.884  0.00  0.00    +0.000 C 
BRANCH  17  18
ATOM     18  C   UNL     1       0.620  10.073  19.018  0.00  0.00    +0.000 C 
ATOM     19  C   UNL     1       1.128  11.523  19.133  0.00  0.00    +0.000 C 
ATOM     20  C   UNL     1       0.950   9.405  20.379  0.00  0.00    +0.000 C 
BRANCH  18  21
ATOM     21  C   UNL     1      -0.935  10.012  18.817  0.00  0.00    +0.000 C 
BRANCH  21  23
ATOM     22  C   UNL     1      -2.175  10.048  16.749  0.00  0.00    +0.000 C 
ATOM     23  N   UNL     1      -1.569  10.880  17.799  0.00  0.00    +0.000 NA
ATOM     24  C   UNL     1      -2.597  11.762  18.351  0.00  0.00    +0.000 C 
ENDBRANCH  21  23
ENDBRANCH  18  21
ENDBRANCH  17  18
ENDBRANCH  15  17
ENDBRANCH   1  15
TORSDOF 5
ENDMDL
