MODEL 1
REMARK VINA RESULT:      -8.2      0.000      0.000
REMARK  Name = 
REMARK  7 active torsions:
REMARK  status: ('A' for Active; 'I' for Inactive)
REMARK    1  A    between atoms: N_3  and  C_4
REMARK    2  A    between atoms: N_12  and  S_13
REMARK    3  A    between atoms: S_13  and  C_16
REMARK    4  A    between atoms: C_19  and  C_20
REMARK    5  A    between atoms: C_20  and  C_21
REMARK    6  A    between atoms: C_21  and  N_22
REMARK    7  A    between atoms: C_23  and  C_25
REMARK                            x       y       z     vdW  Elec       q    Type
REMARK                         _______ _______ _______ _____ _____    ______ ____
ROOT
ATOM      1  C   UNL     1       7.541   6.820  17.601  0.00  0.00    +0.000 A 
ATOM      2  C   UNL     1       8.342   6.834  18.741  0.00  0.00    +0.000 A 
ATOM      3  C   UNL     1       8.836   8.046  19.225  0.00  0.00    +0.000 A 
ATOM      4  C   UNL     1       8.555   9.258  18.573  0.00  0.00    +0.000 A 
ATOM      5  C   UNL     1       7.716   9.231  17.449  0.00  0.00    +0.000 A 
ATOM      6  C   UNL     1       7.228   8.018  16.951  0.00  0.00    +0.000 A 
ENDROOT
BRANCH   1   7
ATOM      7  S   UNL     1       7.044   5.255  16.902  0.00  0.00    +0.000 S 
ATOM      8  O   UNL     1       8.126   4.317  17.100  0.00  0.00    +0.000 OA
ATOM      9  O   UNL     1       6.585   5.556  15.555  0.00  0.00    +0.000 OA
BRANCH   7  15
ATOM     10  N   UNL     1       4.179   4.095  16.181  0.00  0.00    +0.000 NA
ATOM     11  C   UNL     1       4.459   4.367  17.391  0.00  0.00    +0.000 C 
ATOM     12  N   UNL     1       3.666   4.229  18.511  0.00  0.00    +0.000 N 
ATOM     13  C   UNL     1       4.512   4.291  19.710  0.00  0.00    +0.000 C 
ATOM     14  C   UNL     1       5.760   5.051  19.255  0.00  0.00    +0.000 C 
ATOM     15  N   UNL     1       5.711   4.834  17.803  0.00  0.00    +0.000 N 
ATOM     16  H   UNL     1       3.235   3.715  16.135  0.00  0.00    +0.000 HD
BRANCH  12  17
ATOM     17  C   UNL     1       2.262   4.668  18.538  0.00  0.00    +0.000 C 
ATOM     18  C   UNL     1       1.311   3.651  17.896  0.00  0.00    +0.000 C 
ATOM     19  C   UNL     1       0.952   2.465  18.784  0.00  0.00    +0.000 C 
ATOM     20  C   UNL     1       0.513   2.870  20.190  0.00  0.00    +0.000 C 
ATOM     21  C   UNL     1       1.367   3.945  20.859  0.00  0.00    +0.000 C 
ATOM     22  C   UNL     1       1.772   5.089  19.931  0.00  0.00    +0.000 C 
ENDBRANCH  12  17
ENDBRANCH   7  15
ENDBRANCH   1   7
BRANCH   4  23
ATOM     23  C   UNL     1       9.112  10.582  19.057  0.00  0.00    +0.000 C 
BRANCH  23  24
ATOM     24  C   UNL     1      10.077  11.255  18.074  0.00  0.00    +0.000 C 
BRANCH  24  25
ATOM     25  N   UNL     1       9.940  12.694  18.051  0.00  0.00    +0.000 N 
ATOM     26  C   UNL     1      10.853  13.524  17.438  0.00  0.00    +0.000 C 
ATOM     27  O   UNL     1      11.814  13.078  16.816  0.00  0.00    +0.000 OA
ATOM     28  H   UNL     1       9.167  13.124  18.543  0.00  0.00    +0.000 HD
BRANCH  26  29
ATOM     29  C   UNL     1      10.601  14.952  17.586  0.00  0.00    +0.000 A 
ATOM     30  C   UNL     1      11.081  15.965  16.775  0.00  0.00    +0.000 A 
ATOM     31  C   UNL     1      10.645  17.256  17.191  0.00  0.00    +0.000 A 
ATOM     32  C   UNL     1       9.850  17.193  18.312  0.00  0.00    +0.000 A 
ATOM     33  S   UNL     1       9.636  15.588  18.856  0.00  0.00    +0.000 S 
ENDBRANCH  26  29
ENDBRANCH  24  25
ENDBRANCH  23  24
ENDBRANCH   4  23
TORSDOF 7
ENDMDL
MODEL 2
REMARK VINA RESULT:      -8.1      1.490      2.201
REMARK  Name = 
REMARK  7 active torsions:
REMARK  status: ('A' for Active; 'I' for Inactive)
REMARK    1  A    between atoms: N_3  and  C_4
REMARK    2  A    between atoms: N_12  and  S_13
REMARK    3  A    between atoms: S_13  and  C_16
REMARK    4  A    between atoms: C_19  and  C_20
REMARK    5  A    between atoms: C_20  and  C_21
REMARK    6  A    between atoms: C_21  and  N_22
REMARK    7  A    between atoms: C_23  and  C_25
REMARK                            x       y       z     vdW  Elec       q    Type
REMARK                         _______ _______ _______ _____ _____    ______ ____
ROOT
ATOM      1  C   UNL     1       7.030   7.204  17.376  0.00  0.00    +0.000 A 
ATOM      2  C   UNL     1       6.973   8.550  17.021  0.00  0.00    +0.000 A 
ATOM      3  C   UNL     1       7.783   9.475  17.681  0.00  0.00    +0.000 A 
ATOM      4  C   UNL     1       8.648   9.077  18.714  0.00  0.00    +0.000 A 
ATOM      5  C   UNL     1       8.722   7.713  19.033  0.00  0.00    +0.000 A 
ATOM      6  C   UNL     1       7.903   6.783  18.384  0.00  0.00    +0.000 A 
ENDROOT
BRANCH   1   7
ATOM      7  S   UNL     1       5.881   6.056  16.637  0.00  0.00    +0.000 S 
ATOM      8  O   UNL     1       6.642   4.954  16.091  0.00  0.00    +0.000 OA
ATOM      9  O   UNL     1       5.036   6.855  15.763  0.00  0.00    +0.000 OA
BRANCH   7  15
ATOM     10  N   UNL     1       6.219   3.836  18.879  0.00  0.00    +0.000 NA
ATOM     11  C   UNL     1       5.156   4.533  18.843  0.00  0.00    +0.000 C 
ATOM     12  N   UNL     1       4.059   4.475  19.675  0.00  0.00    +0.000 N 
ATOM     13  C   UNL     1       3.262   5.697  19.507  0.00  0.00    +0.000 C 
ATOM     14  C   UNL     1       3.641   6.209  18.115  0.00  0.00    +0.000 C 
ATOM     15  N   UNL     1       4.946   5.563  17.921  0.00  0.00    +0.000 N 
ATOM     16  H   UNL     1       6.169   3.193  19.669  0.00  0.00    +0.000 HD
BRANCH  12  17
ATOM     17  C   UNL     1       3.435   3.199  20.065  0.00  0.00    +0.000 C 
ATOM     18  C   UNL     1       2.249   3.386  21.017  0.00  0.00    +0.000 C 
ATOM     19  C   UNL     1       0.949   3.809  20.341  0.00  0.00    +0.000 C 
ATOM     20  C   UNL     1       0.594   2.957  19.124  0.00  0.00    +0.000 C 
ATOM     21  C   UNL     1       1.751   2.657  18.173  0.00  0.00    +0.000 C 
ATOM     22  C   UNL     1       3.061   2.304  18.875  0.00  0.00    +0.000 C 
ENDBRANCH  12  17
ENDBRANCH   7  15
ENDBRANCH   1   7
BRANCH   4  23
ATOM     23  C   UNL     1       9.509  10.069  19.470  0.00  0.00    +0.000 C 
BRANCH  23  24
ATOM     24  C   UNL     1       8.827  11.415  19.739  0.00  0.00    +0.000 C 
BRANCH  24  25
ATOM     25  N   UNL     1       9.459  12.513  19.042  0.00  0.00    +0.000 N 
ATOM     26  C   UNL     1       9.033  13.819  19.157  0.00  0.00    +0.000 C 
ATOM     27  O   UNL     1       8.121  14.135  19.917  0.00  0.00    +0.000 OA
ATOM     28  H   UNL     1      10.218  12.319  18.401  0.00  0.00    +0.000 HD
BRANCH  26  29
ATOM     29  C   UNL     1       9.732  14.783  18.316  0.00  0.00    +0.000 A 
ATOM     30  C   UNL     1      10.950  14.600  17.686  0.00  0.00    +0.000 A 
ATOM     31  C   UNL     1      11.355  15.740  16.933  0.00  0.00    +0.000 A 
ATOM     32  C   UNL     1      10.439  16.763  17.016  0.00  0.00    +0.000 A 
ATOM     33  S   UNL     1       9.103  16.348  17.996  0.00  0.00    +0.000 S 
ENDBRANCH  26  29
ENDBRANCH  24  25
ENDBRANCH  23  24
ENDBRANCH   4  23
TORSDOF 7
ENDMDL
MODEL 3
REMARK VINA RESULT:      -8.0      1.720      2.239
REMARK  Name = 
REMARK  7 active torsions:
REMARK  status: ('A' for Active; 'I' for Inactive)
REMARK    1  A    between atoms: N_3  and  C_4
REMARK    2  A    between atoms: N_12  and  S_13
REMARK    3  A    between atoms: S_13  and  C_16
REMARK    4  A    between atoms: C_19  and  C_20
REMARK    5  A    between atoms: C_20  and  C_21
REMARK    6  A    between atoms: C_21  and  N_22
REMARK    7  A    between atoms: C_23  and  C_25
REMARK                            x       y       z     vdW  Elec       q    Type
REMARK                         _______ _______ _______ _____ _____    ______ ____
ROOT
ATOM      1  C   UNL     1       7.557   6.832  17.406  0.00  0.00    +0.000 A 
ATOM      2  C   UNL     1       7.514   8.112  16.857  0.00  0.00    +0.000 A 
ATOM      3  C   UNL     1       8.040   9.190  17.570  0.00  0.00    +0.000 A 
ATOM      4  C   UNL     1       8.600   9.013  18.847  0.00  0.00    +0.000 A 
ATOM      5  C   UNL     1       8.670   7.712  19.369  0.00  0.00    +0.000 A 
ATOM      6  C   UNL     1       8.133   6.630  18.664  0.00  0.00    +0.000 A 
ENDROOT
BRANCH   1   7
ATOM      7  S   UNL     1       6.744   5.490  16.557  0.00  0.00    +0.000 S 
ATOM      8  O   UNL     1       7.586   4.319  16.668  0.00  0.00    +0.000 OA
ATOM      9  O   UNL     1       6.397   6.010  15.243  0.00  0.00    +0.000 OA
BRANCH   7  15
ATOM     10  N   UNL     1       5.768   3.424  18.759  0.00  0.00    +0.000 NA
ATOM     11  C   UNL     1       4.966   4.316  18.338  0.00  0.00    +0.000 C 
ATOM     12  N   UNL     1       3.658   4.544  18.709  0.00  0.00    +0.000 N 
ATOM     13  C   UNL     1       3.259   5.886  18.265  0.00  0.00    +0.000 C 
ATOM     14  C   UNL     1       4.213   6.203  17.111  0.00  0.00    +0.000 C 
ATOM     15  N   UNL     1       5.328   5.294  17.407  0.00  0.00    +0.000 N 
ATOM     16  H   UNL     1       5.301   2.867  19.473  0.00  0.00    +0.000 HD
BRANCH  12  17
ATOM     17  C   UNL     1       2.678   3.454  18.839  0.00  0.00    +0.000 C 
ATOM     18  C   UNL     1       3.118   2.376  19.836  0.00  0.00    +0.000 C 
ATOM     19  C   UNL     1       2.904   2.738  21.302  0.00  0.00    +0.000 C 
ATOM     20  C   UNL     1       1.503   3.270  21.597  0.00  0.00    +0.000 C 
ATOM     21  C   UNL     1       0.963   4.287  20.594  0.00  0.00    +0.000 C 
ATOM     22  C   UNL     1       1.250   3.938  19.134  0.00  0.00    +0.000 C 
ENDBRANCH  12  17
ENDBRANCH   7  15
ENDBRANCH   1   7
BRANCH   4  23
ATOM     23  C   UNL     1       9.142  10.173  19.656  0.00  0.00    +0.000 C 
BRANCH  23  24
ATOM     24  C   UNL     1       9.799  11.273  18.815  0.00  0.00    +0.000 C 
BRANCH  24  25
ATOM     25  N   UNL     1       9.206  12.574  19.032  0.00  0.00    +0.000 N 
ATOM     26  C   UNL     1       8.346  13.165  18.131  0.00  0.00    +0.000 C 
ATOM     27  O   UNL     1       7.981  12.584  17.112  0.00  0.00    +0.000 OA
ATOM     28  H   UNL     1       9.464  13.103  19.855  0.00  0.00    +0.000 HD
BRANCH  26  29
ATOM     29  C   UNL     1       7.910  14.514  18.472  0.00  0.00    +0.000 A 
ATOM     30  C   UNL     1       8.665  15.494  19.092  0.00  0.00    +0.000 A 
ATOM     31  C   UNL     1       7.942  16.708  19.278  0.00  0.00    +0.000 A 
ATOM     32  C   UNL     1       6.654  16.617  18.803  0.00  0.00    +0.000 A 
ATOM     33  S   UNL     1       6.324  15.078  18.139  0.00  0.00    +0.000 S 
ENDBRANCH  26  29
ENDBRANCH  24  25
ENDBRANCH  23  24
ENDBRANCH   4  23
TORSDOF 7
ENDMDL
MODEL 4
REMARK VINA RESULT:      -8.0      1.390      1.900
REMARK  Name = 
REMARK  7 active torsions:
REMARK  status: ('A' for Active; 'I' for Inactive)
REMARK    1  A    between atoms: N_3  and  C_4
REMARK    2  A    between atoms: N_12  and  S_13
REMARK    3  A    between atoms: S_13  and  C_16
REMARK    4  A    between atoms: C_19  and  C_20
REMARK    5  A    between atoms: C_20  and  C_21
REMARK    6  A    between atoms: C_21  and  N_22
REMARK    7  A    between atoms: C_23  and  C_25
REMARK                            x       y       z     vdW  Elec       q    Type
REMARK                         _______ _______ _______ _____ _____    ______ ____
ROOT
ATOM      1  C   UNL     1       6.974   7.246  17.486  0.00  0.00    +0.000 A 
ATOM      2  C   UNL     1       7.966   6.923  18.410  0.00  0.00    +0.000 A 
ATOM      3  C   UNL     1       8.763   7.933  18.951  0.00  0.00    +0.000 A 
ATOM      4  C   UNL     1       8.597   9.274  18.567  0.00  0.00    +0.000 A 
ATOM      5  C   UNL     1       7.569   9.586  17.665  0.00  0.00    +0.000 A 
ATOM      6  C   UNL     1       6.774   8.578  17.111  0.00  0.00    +0.000 A 
ENDROOT
BRANCH   1   7
ATOM      7  S   UNL     1       6.066   5.934  16.686  0.00  0.00    +0.000 S 
ATOM      8  O   UNL     1       7.005   4.890  16.342  0.00  0.00    +0.000 OA
ATOM      9  O   UNL     1       5.287   6.579  15.640  0.00  0.00    +0.000 OA
BRANCH   7  15
ATOM     10  N   UNL     1       6.300   3.949  19.151  0.00  0.00    +0.000 NA
ATOM     11  C   UNL     1       5.183   4.502  18.894  0.00  0.00    +0.000 C 
ATOM     12  N   UNL     1       3.983   4.368  19.559  0.00  0.00    +0.000 N 
ATOM     13  C   UNL     1       3.089   5.465  19.163  0.00  0.00    +0.000 C 
ATOM     14  C   UNL     1       3.620   5.914  17.800  0.00  0.00    +0.000 C 
ATOM     15  N   UNL     1       5.004   5.425  17.860  0.00  0.00    +0.000 N 
ATOM     16  H   UNL     1       6.199   3.367  19.981  0.00  0.00    +0.000 HD
BRANCH  12  17
ATOM     17  C   UNL     1       3.455   3.057  19.971  0.00  0.00    +0.000 C 
ATOM     18  C   UNL     1       2.173   3.170  20.804  0.00  0.00    +0.000 C 
ATOM     19  C   UNL     1       0.906   3.420  19.993  0.00  0.00    +0.000 C 
ATOM     20  C   UNL     1       0.750   2.474  18.804  0.00  0.00    +0.000 C 
ATOM     21  C   UNL     1       2.014   2.246  17.977  0.00  0.00    +0.000 C 
ATOM     22  C   UNL     1       3.282   2.067  18.810  0.00  0.00    +0.000 C 
ENDBRANCH  12  17
ENDBRANCH   7  15
ENDBRANCH   1   7
BRANCH   4  23
ATOM     23  C   UNL     1       9.476  10.382  19.112  0.00  0.00    +0.000 C 
BRANCH  23  24
ATOM     24  C   UNL     1      10.271  11.137  18.039  0.00  0.00    +0.000 C 
BRANCH  24  25
ATOM     25  N   UNL     1      10.752  12.421  18.499  0.00  0.00    +0.000 N 
ATOM     26  C   UNL     1      10.062  13.596  18.293  0.00  0.00    +0.000 C 
ATOM     27  O   UNL     1       8.957  13.610  17.757  0.00  0.00    +0.000 OA
ATOM     28  H   UNL     1      11.655  12.477  18.951  0.00  0.00    +0.000 HD
BRANCH  26  29
ATOM     29  C   UNL     1      10.735  14.806  18.748  0.00  0.00    +0.000 A 
ATOM     30  C   UNL     1      11.205  15.839  17.956  0.00  0.00    +0.000 A 
ATOM     31  C   UNL     1      11.812  16.881  18.715  0.00  0.00    +0.000 A 
ATOM     32  C   UNL     1      11.795  16.611  20.064  0.00  0.00    +0.000 A 
ATOM     33  S   UNL     1      11.053  15.112  20.408  0.00  0.00    +0.000 S 
ENDBRANCH  26  29
ENDBRANCH  24  25
ENDBRANCH  23  24
ENDBRANCH   4  23
TORSDOF 7
ENDMDL
MODEL 5
REMARK VINA RESULT:      -8.0      6.349      8.820
REMARK  Name = 
REMARK  7 active torsions:
REMARK  status: ('A' for Active; 'I' for Inactive)
REMARK    1  A    between atoms: N_3  and  C_4
REMARK    2  A    between atoms: N_12  and  S_13
REMARK    3  A    between atoms: S_13  and  C_16
REMARK    4  A    between atoms: C_19  and  C_20
REMARK    5  A    between atoms: C_20  and  C_21
REMARK    6  A    between atoms: C_21  and  N_22
REMARK    7  A    between atoms: C_23  and  C_25
REMARK                            x       y       z     vdW  Elec       q    Type
REMARK                         _______ _______ _______ _____ _____    ______ ____
ROOT
ATOM      1  C   UNL     1       1.928   6.440  19.410  0.00  0.00    +0.000 A 
ATOM      2  C   UNL     1       1.591   7.395  20.366  0.00  0.00    +0.000 A 
ATOM      3  C   UNL     1       1.564   8.746  20.015  0.00  0.00    +0.000 A 
ATOM      4  C   UNL     1       1.889   9.166  18.715  0.00  0.00    +0.000 A 
ATOM      5  C   UNL     1       2.189   8.188  17.754  0.00  0.00    +0.000 A 
ATOM      6  C   UNL     1       2.229   6.834  18.102  0.00  0.00    +0.000 A 
ENDROOT
BRANCH   1   7
ATOM      7  S   UNL     1       2.111   4.735  19.905  0.00  0.00    +0.000 S 
ATOM      8  O   UNL     1       0.894   4.037  19.554  0.00  0.00    +0.000 OA
ATOM      9  O   UNL     1       2.546   4.775  21.292  0.00  0.00    +0.000 OA
BRANCH   7  15
ATOM     10  N   UNL     1       5.246   5.213  20.029  0.00  0.00    +0.000 NA
ATOM     11  C   UNL     1       4.757   4.503  19.094  0.00  0.00    +0.000 C 
ATOM     12  N   UNL     1       5.412   3.868  18.062  0.00  0.00    +0.000 N 
ATOM     13  C   UNL     1       4.516   2.867  17.466  0.00  0.00    +0.000 C 
ATOM     14  C   UNL     1       3.111   3.354  17.828  0.00  0.00    +0.000 C 
ATOM     15  N   UNL     1       3.395   4.202  18.993  0.00  0.00    +0.000 N 
ATOM     16  H   UNL     1       6.260   5.242  19.929  0.00  0.00    +0.000 HD
BRANCH  12  17
ATOM     17  C   UNL     1       6.457   4.533  17.267  0.00  0.00    +0.000 C 
ATOM     18  C   UNL     1       6.483   4.062  15.808  0.00  0.00    +0.000 C 
ATOM     19  C   UNL     1       5.414   4.686  14.918  0.00  0.00    +0.000 C 
ATOM     20  C   UNL     1       5.335   6.206  15.040  0.00  0.00    +0.000 C 
ATOM     21  C   UNL     1       5.391   6.754  16.465  0.00  0.00    +0.000 C 
ATOM     22  C   UNL     1       6.422   6.066  17.358  0.00  0.00    +0.000 C 
ENDBRANCH  12  17
ENDBRANCH   7  15
ENDBRANCH   1   7
BRANCH   4  23
ATOM     23  C   UNL     1       1.904  10.629  18.321  0.00  0.00    +0.000 C 
BRANCH  23  24
ATOM     24  C   UNL     1       0.836  11.479  19.020  0.00  0.00    +0.000 C 
BRANCH  24  25
ATOM     25  N   UNL     1      -0.431  11.471  18.322  0.00  0.00    +0.000 N 
ATOM     26  C   UNL     1      -1.643  11.580  18.968  0.00  0.00    +0.000 C 
ATOM     27  O   UNL     1      -1.713  11.757  20.182  0.00  0.00    +0.000 OA
ATOM     28  H   UNL     1      -0.441  11.332  17.320  0.00  0.00    +0.000 HD
BRANCH  26  29
ATOM     29  C   UNL     1      -2.820  11.468  18.116  0.00  0.00    +0.000 A 
ATOM     30  C   UNL     1      -4.133  11.710  18.483  0.00  0.00    +0.000 A 
ATOM     31  C   UNL     1      -5.048  11.513  17.410  0.00  0.00    +0.000 A 
ATOM     32  C   UNL     1      -4.410  11.119  16.256  0.00  0.00    +0.000 A 
ATOM     33  S   UNL     1      -2.721  10.989  16.471  0.00  0.00    +0.000 S 
ENDBRANCH  26  29
ENDBRANCH  24  25
ENDBRANCH  23  24
ENDBRANCH   4  23
TORSDOF 7
ENDMDL
MODEL 6
REMARK VINA RESULT:      -8.0      1.277      1.717
REMARK  Name = 
REMARK  7 active torsions:
REMARK  status: ('A' for Active; 'I' for Inactive)
REMARK    1  A    between atoms: N_3  and  C_4
REMARK    2  A    between atoms: N_12  and  S_13
REMARK    3  A    between atoms: S_13  and  C_16
REMARK    4  A    between atoms: C_19  and  C_20
REMARK    5  A    between atoms: C_20  and  C_21
REMARK    6  A    between atoms: C_21  and  N_22
REMARK    7  A    between atoms: C_23  and  C_25
REMARK                            x       y       z     vdW  Elec       q    Type
REMARK                         _______ _______ _______ _____ _____    ______ ____
ROOT
ATOM      1  C   UNL     1       7.596   6.750  17.716  0.00  0.00    +0.000 A 
ATOM      2  C   UNL     1       8.319   6.802  18.906  0.00  0.00    +0.000 A 
ATOM      3  C   UNL     1       8.804   8.026  19.368  0.00  0.00    +0.000 A 
ATOM      4  C   UNL     1       8.593   9.212  18.646  0.00  0.00    +0.000 A 
ATOM      5  C   UNL     1       7.831   9.148  17.469  0.00  0.00    +0.000 A 
ATOM      6  C   UNL     1       7.352   7.923  16.994  0.00  0.00    +0.000 A 
ENDROOT
BRANCH   1   7
ATOM      7  S   UNL     1       7.115   5.164  17.055  0.00  0.00    +0.000 S 
ATOM      8  O   UNL     1       7.955   4.156  17.663  0.00  0.00    +0.000 OA
ATOM      9  O   UNL     1       7.112   5.327  15.609  0.00  0.00    +0.000 OA
BRANCH   7  15
ATOM     10  N   UNL     1       5.673   3.465  19.314  0.00  0.00    +0.000 NA
ATOM     11  C   UNL     1       4.977   4.187  18.532  0.00  0.00    +0.000 C 
ATOM     12  N   UNL     1       3.610   4.361  18.509  0.00  0.00    +0.000 N 
ATOM     13  C   UNL     1       3.290   5.556  17.716  0.00  0.00    +0.000 C 
ATOM     14  C   UNL     1       4.502   5.737  16.799  0.00  0.00    +0.000 C 
ATOM     15  N   UNL     1       5.534   5.004  17.544  0.00  0.00    +0.000 N 
ATOM     16  H   UNL     1       5.056   3.010  19.985  0.00  0.00    +0.000 HD
BRANCH  12  17
ATOM     17  C   UNL     1       2.672   3.231  18.607  0.00  0.00    +0.000 C 
ATOM     18  C   UNL     1       3.074   2.219  19.686  0.00  0.00    +0.000 C 
ATOM     19  C   UNL     1       2.719   2.632  21.111  0.00  0.00    +0.000 C 
ATOM     20  C   UNL     1       1.275   3.106  21.263  0.00  0.00    +0.000 C 
ATOM     21  C   UNL     1       0.777   4.052  20.171  0.00  0.00    +0.000 C 
ATOM     22  C   UNL     1       1.204   3.656  18.759  0.00  0.00    +0.000 C 
ENDBRANCH  12  17
ENDBRANCH   7  15
ENDBRANCH   1   7
BRANCH   4  23
ATOM     23  C   UNL     1       9.143  10.546  19.108  0.00  0.00    +0.000 C 
BRANCH  23  24
ATOM     24  C   UNL     1       9.191  11.619  18.014  0.00  0.00    +0.000 C 
BRANCH  24  25
ATOM     25  N   UNL     1       9.187  12.964  18.547  0.00  0.00    +0.000 N 
ATOM     26  C   UNL     1      10.337  13.703  18.721  0.00  0.00    +0.000 C 
ATOM     27  O   UNL     1      11.436  13.280  18.369  0.00  0.00    +0.000 OA
ATOM     28  H   UNL     1       8.313  13.371  18.854  0.00  0.00    +0.000 HD
BRANCH  26  29
ATOM     29  C   UNL     1      10.156  15.005  19.350  0.00  0.00    +0.000 A 
ATOM     30  C   UNL     1       9.577  16.126  18.781  0.00  0.00    +0.000 A 
ATOM     31  C   UNL     1       9.549  17.241  19.667  0.00  0.00    +0.000 A 
ATOM     32  C   UNL     1      10.115  16.943  20.885  0.00  0.00    +0.000 A 
ATOM     33  S   UNL     1      10.674  15.331  20.955  0.00  0.00    +0.000 S 
ENDBRANCH  26  29
ENDBRANCH  24  25
ENDBRANCH  23  24
ENDBRANCH   4  23
TORSDOF 7
ENDMDL
MODEL 7
REMARK VINA RESULT:      -7.9      6.439      8.788
REMARK  Name = 
REMARK  7 active torsions:
REMARK  status: ('A' for Active; 'I' for Inactive)
REMARK    1  A    between atoms: N_3  and  C_4
REMARK    2  A    between atoms: N_12  and  S_13
REMARK    3  A    between atoms: S_13  and  C_16
REMARK    4  A    between atoms: C_19  and  C_20
REMARK    5  A    between atoms: C_20  and  C_21
REMARK    6  A    between atoms: C_21  and  N_22
REMARK    7  A    between atoms: C_23  and  C_25
REMARK                            x       y       z     vdW  Elec       q    Type
REMARK                         _______ _______ _______ _____ _____    ______ ____
ROOT
ATOM      1  C   UNL     1       2.012   5.805  19.993  0.00  0.00    +0.000 A 
ATOM      2  C   UNL     1       2.406   6.582  18.906  0.00  0.00    +0.000 A 
ATOM      3  C   UNL     1       2.155   7.955  18.909  0.00  0.00    +0.000 A 
ATOM      4  C   UNL     1       1.492   8.570  19.984  0.00  0.00    +0.000 A 
ATOM      5  C   UNL     1       1.136   7.780  21.087  0.00  0.00    +0.000 A 
ATOM      6  C   UNL     1       1.375   6.402  21.085  0.00  0.00    +0.000 A 
ENDROOT
BRANCH   1   7
ATOM      7  S   UNL     1       2.198   4.032  19.911  0.00  0.00    +0.000 S 
ATOM      8  O   UNL     1       0.955   3.477  19.422  0.00  0.00    +0.000 OA
ATOM      9  O   UNL     1       2.706   3.631  21.214  0.00  0.00    +0.000 OA
BRANCH   7  15
ATOM     10  N   UNL     1       5.355   4.325  20.052  0.00  0.00    +0.000 NA
ATOM     11  C   UNL     1       4.802   4.018  18.948  0.00  0.00    +0.000 C 
ATOM     12  N   UNL     1       5.393   3.777  17.726  0.00  0.00    +0.000 N 
ATOM     13  C   UNL     1       4.431   3.091  16.854  0.00  0.00    +0.000 C 
ATOM     14  C   UNL     1       3.064   3.462  17.431  0.00  0.00    +0.000 C 
ATOM     15  N   UNL     1       3.425   3.821  18.809  0.00  0.00    +0.000 N 
ATOM     16  H   UNL     1       6.365   4.354  19.921  0.00  0.00    +0.000 HD
BRANCH  12  17
ATOM     17  C   UNL     1       6.444   4.648  17.176  0.00  0.00    +0.000 C 
ATOM     18  C   UNL     1       6.693   4.406  15.683  0.00  0.00    +0.000 C 
ATOM     19  C   UNL     1       5.674   5.055  14.753  0.00  0.00    +0.000 C 
ATOM     20  C   UNL     1       5.413   6.526  15.071  0.00  0.00    +0.000 C 
ATOM     21  C   UNL     1       5.240   6.856  16.553  0.00  0.00    +0.000 C 
ATOM     22  C   UNL     1       6.229   6.140  17.472  0.00  0.00    +0.000 C 
ENDBRANCH  12  17
ENDBRANCH   7  15
ENDBRANCH   1   7
BRANCH   4  23
ATOM     23  C   UNL     1       1.173  10.052  19.993  0.00  0.00    +0.000 C 
BRANCH  23  24
ATOM     24  C   UNL     1       1.159  10.699  18.603  0.00  0.00    +0.000 C 
BRANCH  24  25
ATOM     25  N   UNL     1      -0.165  10.754  18.024  0.00  0.00    +0.000 N 
ATOM     26  C   UNL     1      -1.161  11.575  18.508  0.00  0.00    +0.000 C 
ATOM     27  O   UNL     1      -0.956  12.362  19.429  0.00  0.00    +0.000 OA
ATOM     28  H   UNL     1      -0.396  10.132  17.260  0.00  0.00    +0.000 HD
BRANCH  26  29
ATOM     29  C   UNL     1      -2.458  11.438  17.858  0.00  0.00    +0.000 A 
ATOM     30  C   UNL     1      -3.692  11.747  18.401  0.00  0.00    +0.000 A 
ATOM     31  C   UNL     1      -4.767  11.502  17.499  0.00  0.00    +0.000 A 
ATOM     32  C   UNL     1      -4.324  11.004  16.295  0.00  0.00    +0.000 A 
ATOM     33  S   UNL     1      -2.625  10.836  16.258  0.00  0.00    +0.000 S 
ENDBRANCH  26  29
ENDBRANCH  24  25
ENDBRANCH  23  24
ENDBRANCH   4  23
TORSDOF 7
ENDMDL
MODEL 8
REMARK VINA RESULT:      -7.9      6.413      8.983
REMARK  Name = 
REMARK  7 active torsions:
REMARK  status: ('A' for Active; 'I' for Inactive)
REMARK    1  A    between atoms: N_3  and  C_4
REMARK    2  A    between atoms: N_12  and  S_13
REMARK    3  A    between atoms: S_13  and  C_16
REMARK    4  A    between atoms: C_19  and  C_20
REMARK    5  A    between atoms: C_20  and  C_21
REMARK    6  A    between atoms: C_21  and  N_22
REMARK    7  A    between atoms: C_23  and  C_25
REMARK                            x       y       z     vdW  Elec       q    Type
REMARK                         _______ _______ _______ _____ _____    ______ ____
ROOT
ATOM      1  C   UNL     1       2.045   6.550  19.558  0.00  0.00    +0.000 A 
ATOM      2  C   UNL     1       2.365   6.950  18.262  0.00  0.00    +0.000 A 
ATOM      3  C   UNL     1       2.205   8.286  17.891  0.00  0.00    +0.000 A 
ATOM      4  C   UNL     1       1.707   9.237  18.796  0.00  0.00    +0.000 A 
ATOM      5  C   UNL     1       1.425   8.825  20.108  0.00  0.00    +0.000 A 
ATOM      6  C   UNL     1       1.572   7.486  20.482  0.00  0.00    +0.000 A 
ENDROOT
BRANCH   1   7
ATOM      7  S   UNL     1       2.105   4.816  19.976  0.00  0.00    +0.000 S 
ATOM      8  O   UNL     1       0.841   4.224  19.597  0.00  0.00    +0.000 OA
ATOM      9  O   UNL     1       2.543   4.762  21.362  0.00  0.00    +0.000 OA
BRANCH   7  15
ATOM     10  N   UNL     1       5.260   5.150  20.047  0.00  0.00    +0.000 NA
ATOM     11  C   UNL     1       4.723   4.471  19.115  0.00  0.00    +0.000 C 
ATOM     12  N   UNL     1       5.330   3.816  18.066  0.00  0.00    +0.000 N 
ATOM     13  C   UNL     1       4.379   2.863  17.478  0.00  0.00    +0.000 C 
ATOM     14  C   UNL     1       3.004   3.410  17.869  0.00  0.00    +0.000 C 
ATOM     15  N   UNL     1       3.347   4.233  19.036  0.00  0.00    +0.000 N 
ATOM     16  H   UNL     1       6.272   5.134  19.929  0.00  0.00    +0.000 HD
BRANCH  12  17
ATOM     17  C   UNL     1       6.390   4.441  17.258  0.00  0.00    +0.000 C 
ATOM     18  C   UNL     1       6.388   3.959  15.803  0.00  0.00    +0.000 C 
ATOM     19  C   UNL     1       5.334   4.612  14.916  0.00  0.00    +0.000 C 
ATOM     20  C   UNL     1       5.307   6.135  15.027  0.00  0.00    +0.000 C 
ATOM     21  C   UNL     1       5.393   6.691  16.448  0.00  0.00    +0.000 C 
ATOM     22  C   UNL     1       6.407   5.975  17.338  0.00  0.00    +0.000 C 
ENDBRANCH  12  17
ENDBRANCH   7  15
ENDBRANCH   1   7
BRANCH   4  23
ATOM     23  C   UNL     1       1.488  10.685  18.405  0.00  0.00    +0.000 C 
BRANCH  23  24
ATOM     24  C   UNL     1       0.472  11.426  19.282  0.00  0.00    +0.000 C 
BRANCH  24  25
ATOM     25  N   UNL     1      -0.831  11.530  18.664  0.00  0.00    +0.000 N 
ATOM     26  C   UNL     1      -1.988  11.735  19.385  0.00  0.00    +0.000 C 
ATOM     27  O   UNL     1      -1.967  11.906  20.602  0.00  0.00    +0.000 OA
ATOM     28  H   UNL     1      -0.915  11.401  17.664  0.00  0.00    +0.000 HD
BRANCH  26  29
ATOM     29  C   UNL     1      -3.221  11.728  18.608  0.00  0.00    +0.000 A 
ATOM     30  C   UNL     1      -3.357  11.373  17.277  0.00  0.00    +0.000 A 
ATOM     31  C   UNL     1      -4.703  11.471  16.818  0.00  0.00    +0.000 A 
ATOM     32  C   UNL     1      -5.553  11.907  17.808  0.00  0.00    +0.000 A 
ATOM     33  S   UNL     1      -4.731  12.193  19.277  0.00  0.00    +0.000 S 
ENDBRANCH  26  29
ENDBRANCH  24  25
ENDBRANCH  23  24
ENDBRANCH   4  23
TORSDOF 7
ENDMDL
MODEL 9
REMARK VINA RESULT:      -7.9      1.062      1.294
REMARK  Name = 
REMARK  7 active torsions:
REMARK  status: ('A' for Active; 'I' for Inactive)
REMARK    1  A    between atoms: N_3  and  C_4
REMARK    2  A    between atoms: N_12  and  S_13
REMARK    3  A    between atoms: S_13  and  C_16
REMARK    4  A    between atoms: C_19  and  C_20
REMARK    5  A    between atoms: C_20  and  C_21
REMARK    6  A    between atoms: C_21  and  N_22
REMARK    7  A    between atoms: C_23  and  C_25
REMARK                            x       y       z     vdW  Elec       q    Type
REMARK                         _______ _______ _______ _____ _____    ______ ____
ROOT
ATOM      1  C   UNL     1       7.275   7.260  17.425  0.00  0.00    +0.000 A 
ATOM      2  C   UNL     1       8.091   6.912  18.500  0.00  0.00    +0.000 A 
ATOM      3  C   UNL     1       8.776   7.907  19.200  0.00  0.00    +0.000 A 
ATOM      4  C   UNL     1       8.673   9.258  18.830  0.00  0.00    +0.000 A 
ATOM      5  C   UNL     1       7.818   9.596  17.770  0.00  0.00    +0.000 A 
ATOM      6  C   UNL     1       7.138   8.602  17.057  0.00  0.00    +0.000 A 
ENDROOT
BRANCH   1   7
ATOM      7  S   UNL     1       6.529   5.972  16.442  0.00  0.00    +0.000 S 
ATOM      8  O   UNL     1       7.578   5.064  16.030  0.00  0.00    +0.000 OA
ATOM      9  O   UNL     1       5.731   6.657  15.438  0.00  0.00    +0.000 OA
BRANCH   7  15
ATOM     10  N   UNL     1       5.254   3.070  16.614  0.00  0.00    +0.000 NA
ATOM     11  C   UNL     1       4.929   3.950  17.473  0.00  0.00    +0.000 C 
ATOM     12  N   UNL     1       4.057   3.837  18.534  0.00  0.00    +0.000 N 
ATOM     13  C   UNL     1       4.284   4.951  19.465  0.00  0.00    +0.000 C 
ATOM     14  C   UNL     1       4.935   6.037  18.605  0.00  0.00    +0.000 C 
ATOM     15  N   UNL     1       5.479   5.235  17.500  0.00  0.00    +0.000 N 
ATOM     16  H   UNL     1       4.772   2.200  16.832  0.00  0.00    +0.000 HD
BRANCH  12  17
ATOM     17  C   UNL     1       2.734   3.206  18.400  0.00  0.00    +0.000 C 
ATOM     18  C   UNL     1       2.548   2.013  19.344  0.00  0.00    +0.000 C 
ATOM     19  C   UNL     1       2.218   2.386  20.786  0.00  0.00    +0.000 C 
ATOM     20  C   UNL     1       1.089   3.408  20.905  0.00  0.00    +0.000 C 
ATOM     21  C   UNL     1       1.163   4.584  19.932  0.00  0.00    +0.000 C 
ATOM     22  C   UNL     1       1.563   4.194  18.510  0.00  0.00    +0.000 C 
ENDBRANCH  12  17
ENDBRANCH   7  15
ENDBRANCH   1   7
BRANCH   4  23
ATOM     23  C   UNL     1       9.437  10.351  19.550  0.00  0.00    +0.000 C 
BRANCH  23  24
ATOM     24  C   UNL     1      10.484  11.061  18.684  0.00  0.00    +0.000 C 
BRANCH  24  25
ATOM     25  N   UNL     1      10.137  12.437  18.402  0.00  0.00    +0.000 N 
ATOM     26  C   UNL     1      11.066  13.381  18.023  0.00  0.00    +0.000 C 
ATOM     27  O   UNL     1      12.246  13.088  17.841  0.00  0.00    +0.000 OA
ATOM     28  H   UNL     1       9.180  12.741  18.531  0.00  0.00    +0.000 HD
BRANCH  26  29
ATOM     29  C   UNL     1      10.554  14.736  17.863  0.00  0.00    +0.000 A 
ATOM     30  C   UNL     1       9.357  15.231  18.351  0.00  0.00    +0.000 A 
ATOM     31  C   UNL     1       9.155  16.603  18.022  0.00  0.00    +0.000 A 
ATOM     32  C   UNL     1      10.199  17.114  17.286  0.00  0.00    +0.000 A 
ATOM     33  S   UNL     1      11.411  15.945  16.996  0.00  0.00    +0.000 S 
ENDBRANCH  26  29
ENDBRANCH  24  25
ENDBRANCH  23  24
ENDBRANCH   4  23
TORSDOF 7
ENDMDL
