MODEL 1
REMARK VINA RESULT:      -8.8      0.000      0.000
REMARK  Name = 
REMARK  5 active torsions:
REMARK  status: ('A' for Active; 'I' for Inactive)
REMARK    1  A    between atoms: C_1  and  C_2
REMARK    2  A    between atoms: C_5  and  N_6
REMARK    3  A    between atoms: C_7  and  C_8
REMARK    4  A    between atoms: C_10  and  C_11
REMARK    5  A    between atoms: C_25  and  C_26
REMARK                            x       y       z     vdW  Elec       q    Type
REMARK                         _______ _______ _______ _____ _____    ______ ____
ROOT
ATOM      1  N   UNL     1      -0.923  11.185  21.545  0.00  0.00    +0.000 N 
ATOM      2  C   UNL     1      -0.977  11.172  20.144  0.00  0.00    +0.000 A 
ATOM      3  C   UNL     1      -1.522  12.254  19.272  0.00  0.00    +0.000 C 
ATOM      4  C   UNL     1      -0.349  10.029  19.667  0.00  0.00    +0.000 A 
ATOM      5  C   UNL     1       0.183   9.329  20.754  0.00  0.00    +0.000 A 
ATOM      6  C   UNL     1      -0.202  10.025  21.915  0.00  0.00    +0.000 A 
ATOM      7  C   UNL     1      -0.004   9.629  23.352  0.00  0.00    +0.000 C 
ENDROOT
BRANCH   5   8
ATOM      8  C   UNL     1       0.939   8.107  20.771  0.00  0.00    +0.000 C 
ATOM      9  C   UNL     1       1.873   7.478  20.031  0.00  0.00    +0.000 A 
ATOM     10  S   UNL     1       2.229   5.823  20.633  0.00  0.00    +0.000 S 
ATOM     11  C   UNL     1       3.025   5.449  19.186  0.00  0.00    +0.000 A 
ATOM     12  N   UNL     1       3.275   4.295  18.643  0.00  0.00    +0.000 NA
ATOM     13  C   UNL     1       3.924   4.634  17.489  0.00  0.00    +0.000 A 
ATOM     14  C   UNL     1       4.348   3.782  16.464  0.00  0.00    +0.000 A 
ATOM     15  C   UNL     1       5.049   4.332  15.395  0.00  0.00    +0.000 A 
ATOM     16  C   UNL     1       5.524   5.642  15.482  0.00  0.00    +0.000 A 
ATOM     17  C   UNL     1       5.028   6.542  16.446  0.00  0.00    +0.000 A 
ATOM     18  C   UNL     1       4.137   6.024  17.399  0.00  0.00    +0.000 A 
ATOM     19  N   UNL     1       3.315   6.523  18.406  0.00  0.00    +0.000 N 
ATOM     20  C   UNL     1       2.701   7.732  18.775  0.00  0.00    +0.000 A 
ATOM     21  O   UNL     1       2.842   8.752  18.116  0.00  0.00    +0.000 OA
ENDBRANCH   5   8
BRANCH   1  26
ATOM     22  C   UNL     1      -3.240  15.213  25.064  0.00  0.00    +0.000 C 
ATOM     23  C   UNL     1      -2.628  14.167  24.173  0.00  0.00    +0.000 A 
ATOM     24  C   UNL     1      -1.353  14.326  23.629  0.00  0.00    +0.000 A 
ATOM     25  C   UNL     1      -0.809  13.362  22.757  0.00  0.00    +0.000 A 
ATOM     26  C   UNL     1      -1.505  12.185  22.435  0.00  0.00    +0.000 A 
ATOM     27  C   UNL     1      -2.777  12.027  23.007  0.00  0.00    +0.000 A 
ATOM     28  C   UNL     1      -3.342  13.010  23.850  0.00  0.00    +0.000 A 
ENDBRANCH   1  26
TORSDOF 2
ENDMDL
MODEL 2
REMARK VINA RESULT:      -7.7      2.122      2.691
REMARK  Name = 
REMARK  5 active torsions:
REMARK  status: ('A' for Active; 'I' for Inactive)
REMARK    1  A    between atoms: C_1  and  C_2
REMARK    2  A    between atoms: C_5  and  N_6
REMARK    3  A    between atoms: C_7  and  C_8
REMARK    4  A    between atoms: C_10  and  C_11
REMARK    5  A    between atoms: C_25  and  C_26
REMARK                            x       y       z     vdW  Elec       q    Type
REMARK                         _______ _______ _______ _____ _____    ______ ____
ROOT
ATOM      1  N   UNL     1      -0.839  12.275  19.389  0.00  0.00    +0.000 N 
ATOM      2  C   UNL     1      -1.759  11.424  18.760  0.00  0.00    +0.000 A 
ATOM      3  C   UNL     1      -2.947  11.846  17.963  0.00  0.00    +0.000 C 
ATOM      4  C   UNL     1      -1.344  10.107  18.903  0.00  0.00    +0.000 A 
ATOM      5  C   UNL     1      -0.111  10.099  19.562  0.00  0.00    +0.000 A 
ATOM      6  C   UNL     1       0.182  11.435  19.893  0.00  0.00    +0.000 A 
ATOM      7  C   UNL     1       1.321  11.965  20.721  0.00  0.00    +0.000 C 
ENDROOT
BRANCH   5   8
ATOM      8  C   UNL     1       0.727   8.987  19.917  0.00  0.00    +0.000 C 
ATOM      9  C   UNL     1       1.719   8.248  19.381  0.00  0.00    +0.000 A 
ATOM     10  S   UNL     1       2.174   6.853  20.417  0.00  0.00    +0.000 S 
ATOM     11  C   UNL     1       3.026   6.153  19.130  0.00  0.00    +0.000 A 
ATOM     12  N   UNL     1       3.367   4.916  18.928  0.00  0.00    +0.000 NA
ATOM     13  C   UNL     1       4.015   4.971  17.726  0.00  0.00    +0.000 A 
ATOM     14  C   UNL     1       4.519   3.902  16.977  0.00  0.00    +0.000 A 
ATOM     15  C   UNL     1       5.203   4.187  15.799  0.00  0.00    +0.000 A 
ATOM     16  C   UNL     1       5.585   5.500  15.522  0.00  0.00    +0.000 A 
ATOM     17  C   UNL     1       5.007   6.593  16.199  0.00  0.00    +0.000 A 
ATOM     18  C   UNL     1       4.134   6.293  17.256  0.00  0.00    +0.000 A 
ATOM     19  N   UNL     1       3.257   6.990  18.085  0.00  0.00    +0.000 N 
ATOM     20  C   UNL     1       2.554   8.206  18.105  0.00  0.00    +0.000 A 
ATOM     21  O   UNL     1       2.638   9.013  17.190  0.00  0.00    +0.000 OA
ENDBRANCH   5   8
BRANCH   1  26
ATOM     22  C   UNL     1      -1.210  18.075  19.822  0.00  0.00    +0.000 C 
ATOM     23  C   UNL     1      -1.093  16.579  19.719  0.00  0.00    +0.000 A 
ATOM     24  C   UNL     1      -0.291  15.974  18.751  0.00  0.00    +0.000 A 
ATOM     25  C   UNL     1      -0.227  14.571  18.634  0.00  0.00    +0.000 A 
ATOM     26  C   UNL     1      -0.928  13.727  19.509  0.00  0.00    +0.000 A 
ATOM     27  C   UNL     1      -1.713  14.349  20.493  0.00  0.00    +0.000 A 
ATOM     28  C   UNL     1      -1.811  15.755  20.589  0.00  0.00    +0.000 A 
ENDBRANCH   1  26
TORSDOF 2
ENDMDL
MODEL 3
REMARK VINA RESULT:      -7.6      2.348     10.178
REMARK  Name = 
REMARK  5 active torsions:
REMARK  status: ('A' for Active; 'I' for Inactive)
REMARK    1  A    between atoms: C_1  and  C_2
REMARK    2  A    between atoms: C_5  and  N_6
REMARK    3  A    between atoms: C_7  and  C_8
REMARK    4  A    between atoms: C_10  and  C_11
REMARK    5  A    between atoms: C_25  and  C_26
REMARK                            x       y       z     vdW  Elec       q    Type
REMARK                         _______ _______ _______ _____ _____    ______ ____
ROOT
ATOM      1  N   UNL     1       2.417   7.124  19.092  0.00  0.00    +0.000 N 
ATOM      2  C   UNL     1       1.882   6.823  20.353  0.00  0.00    +0.000 A 
ATOM      3  C   UNL     1       2.150   5.593  21.154  0.00  0.00    +0.000 C 
ATOM      4  C   UNL     1       1.130   7.899  20.805  0.00  0.00    +0.000 A 
ATOM      5  C   UNL     1       1.233   8.935  19.872  0.00  0.00    +0.000 A 
ATOM      6  C   UNL     1       1.998   8.443  18.799  0.00  0.00    +0.000 A 
ATOM      7  C   UNL     1       2.296   9.106  17.482  0.00  0.00    +0.000 C 
ENDROOT
BRANCH   5   8
ATOM      8  C   UNL     1       0.657  10.252  19.904  0.00  0.00    +0.000 C 
ATOM      9  C   UNL     1      -0.202  10.970  20.655  0.00  0.00    +0.000 A 
ATOM     10  S   UNL     1      -0.570  12.574  19.935  0.00  0.00    +0.000 S 
ATOM     11  C   UNL     1      -1.892  12.758  20.979  0.00  0.00    +0.000 A 
ATOM     12  N   UNL     1      -2.947  13.507  20.867  0.00  0.00    +0.000 NA
ATOM     13  C   UNL     1      -3.650  13.215  22.002  0.00  0.00    +0.000 A 
ATOM     14  C   UNL     1      -4.923  13.673  22.362  0.00  0.00    +0.000 A 
ATOM     15  C   UNL     1      -5.433  13.298  23.601  0.00  0.00    +0.000 A 
ATOM     16  C   UNL     1      -4.593  12.701  24.542  0.00  0.00    +0.000 A 
ATOM     17  C   UNL     1      -3.352  12.143  24.172  0.00  0.00    +0.000 A 
ATOM     18  C   UNL     1      -2.941  12.337  22.845  0.00  0.00    +0.000 A 
ATOM     19  N   UNL     1      -1.919  11.880  22.015  0.00  0.00    +0.000 N 
ATOM     20  C   UNL     1      -1.016  10.806  21.934  0.00  0.00    +0.000 A 
ATOM     21  O   UNL     1      -0.989   9.923  22.780  0.00  0.00    +0.000 OA
ENDBRANCH   5   8
BRANCH   1  26
ATOM     22  C   UNL     1       5.618   3.624  15.705  0.00  0.00    +0.000 C 
ATOM     23  C   UNL     1       4.796   4.513  16.597  0.00  0.00    +0.000 A 
ATOM     24  C   UNL     1       3.519   4.143  17.021  0.00  0.00    +0.000 A 
ATOM     25  C   UNL     1       2.739   5.005  17.817  0.00  0.00    +0.000 A 
ATOM     26  C   UNL     1       3.228   6.247  18.252  0.00  0.00    +0.000 A 
ATOM     27  C   UNL     1       4.523   6.597  17.837  0.00  0.00    +0.000 A 
ATOM     28  C   UNL     1       5.292   5.753  17.006  0.00  0.00    +0.000 A 
ENDBRANCH   1  26
TORSDOF 2
ENDMDL
MODEL 4
REMARK VINA RESULT:      -7.5      2.616      9.884
REMARK  Name = 
REMARK  5 active torsions:
REMARK  status: ('A' for Active; 'I' for Inactive)
REMARK    1  A    between atoms: C_1  and  C_2
REMARK    2  A    between atoms: C_5  and  N_6
REMARK    3  A    between atoms: C_7  and  C_8
REMARK    4  A    between atoms: C_10  and  C_11
REMARK    5  A    between atoms: C_25  and  C_26
REMARK                            x       y       z     vdW  Elec       q    Type
REMARK                         _______ _______ _______ _____ _____    ______ ____
ROOT
ATOM      1  N   UNL     1       4.108   5.017  17.520  0.00  0.00    +0.000 N 
ATOM      2  C   UNL     1       3.435   3.953  18.137  0.00  0.00    +0.000 A 
ATOM      3  C   UNL     1       3.637   2.501  17.859  0.00  0.00    +0.000 C 
ATOM      4  C   UNL     1       2.606   4.448  19.135  0.00  0.00    +0.000 A 
ATOM      5  C   UNL     1       2.792   5.831  19.222  0.00  0.00    +0.000 A 
ATOM      6  C   UNL     1       3.693   6.185  18.201  0.00  0.00    +0.000 A 
ATOM      7  C   UNL     1       4.129   7.560  17.774  0.00  0.00    +0.000 C 
ENDROOT
BRANCH   5   8
ATOM      8  C   UNL     1       2.183   6.779  20.113  0.00  0.00    +0.000 C 
ATOM      9  C   UNL     1       1.594   7.990  20.063  0.00  0.00    +0.000 A 
ATOM     10  S   UNL     1       1.214   8.638  21.695  0.00  0.00    +0.000 S 
ATOM     11  C   UNL     1       0.959  10.180  21.042  0.00  0.00    +0.000 A 
ATOM     12  N   UNL     1       0.999  11.347  21.612  0.00  0.00    +0.000 NA
ATOM     13  C   UNL     1       0.726  12.201  20.581  0.00  0.00    +0.000 A 
ATOM     14  C   UNL     1       0.729  13.600  20.604  0.00  0.00    +0.000 A 
ATOM     15  C   UNL     1       0.360  14.280  19.448  0.00  0.00    +0.000 A 
ATOM     16  C   UNL     1      -0.233  13.582  18.395  0.00  0.00    +0.000 A 
ATOM     17  C   UNL     1      -0.154  12.178  18.306  0.00  0.00    +0.000 A 
ATOM     18  C   UNL     1       0.429  11.506  19.392  0.00  0.00    +0.000 A 
ATOM     19  N   UNL     1       0.838  10.208  19.689  0.00  0.00    +0.000 N 
ATOM     20  C   UNL     1       1.191   9.025  19.017  0.00  0.00    +0.000 A 
ATOM     21  O   UNL     1       1.178   8.950  17.797  0.00  0.00    +0.000 OA
ENDBRANCH   5   8
BRANCH   1  26
ATOM     22  C   UNL     1       7.784   4.708  13.007  0.00  0.00    +0.000 C 
ATOM     23  C   UNL     1       6.835   4.765  14.172  0.00  0.00    +0.000 A 
ATOM     24  C   UNL     1       5.493   4.407  14.041  0.00  0.00    +0.000 A 
ATOM     25  C   UNL     1       4.603   4.510  15.128  0.00  0.00    +0.000 A 
ATOM     26  C   UNL     1       5.036   4.932  16.396  0.00  0.00    +0.000 A 
ATOM     27  C   UNL     1       6.394   5.267  16.520  0.00  0.00    +0.000 A 
ATOM     28  C   UNL     1       7.280   5.203  15.422  0.00  0.00    +0.000 A 
ENDBRANCH   1  26
TORSDOF 2
ENDMDL
MODEL 5
REMARK VINA RESULT:      -7.5      1.428      1.512
REMARK  Name = 
REMARK  5 active torsions:
REMARK  status: ('A' for Active; 'I' for Inactive)
REMARK    1  A    between atoms: C_1  and  C_2
REMARK    2  A    between atoms: C_5  and  N_6
REMARK    3  A    between atoms: C_7  and  C_8
REMARK    4  A    between atoms: C_10  and  C_11
REMARK    5  A    between atoms: C_25  and  C_26
REMARK                            x       y       z     vdW  Elec       q    Type
REMARK                         _______ _______ _______ _____ _____    ______ ____
ROOT
ATOM      1  N   UNL     1      -1.568  11.722  20.137  0.00  0.00    +0.000 N 
ATOM      2  C   UNL     1      -1.711  11.255  18.823  0.00  0.00    +0.000 A 
ATOM      3  C   UNL     1      -2.461  11.930  17.724  0.00  0.00    +0.000 C 
ATOM      4  C   UNL     1      -0.958  10.100  18.657  0.00  0.00    +0.000 A 
ATOM      5  C   UNL     1      -0.261   9.851  19.844  0.00  0.00    +0.000 A 
ATOM      6  C   UNL     1      -0.666  10.833  20.767  0.00  0.00    +0.000 A 
ATOM      7  C   UNL     1      -0.319  10.943  22.227  0.00  0.00    +0.000 C 
ENDROOT
BRANCH   5   8
ATOM      8  C   UNL     1       0.662   8.795  20.155  0.00  0.00    +0.000 C 
ATOM      9  C   UNL     1       1.670   8.118  19.570  0.00  0.00    +0.000 A 
ATOM     10  S   UNL     1       2.263   6.757  20.582  0.00  0.00    +0.000 S 
ATOM     11  C   UNL     1       3.092   6.109  19.254  0.00  0.00    +0.000 A 
ATOM     12  N   UNL     1       3.499   4.895  19.034  0.00  0.00    +0.000 NA
ATOM     13  C   UNL     1       4.082   4.987  17.801  0.00  0.00    +0.000 A 
ATOM     14  C   UNL     1       4.615   3.950  17.027  0.00  0.00    +0.000 A 
ATOM     15  C   UNL     1       5.219   4.274  15.817  0.00  0.00    +0.000 A 
ATOM     16  C   UNL     1       5.504   5.608  15.521  0.00  0.00    +0.000 A 
ATOM     17  C   UNL     1       4.893   6.664  16.228  0.00  0.00    +0.000 A 
ATOM     18  C   UNL     1       4.094   6.313  17.327  0.00  0.00    +0.000 A 
ATOM     19  N   UNL     1       3.218   6.956  18.199  0.00  0.00    +0.000 N 
ATOM     20  C   UNL     1       2.441   8.126  18.255  0.00  0.00    +0.000 A 
ATOM     21  O   UNL     1       2.429   8.933  17.336  0.00  0.00    +0.000 OA
ENDBRANCH   5   8
BRANCH   1  26
ATOM     22  C   UNL     1      -4.200  16.370  22.469  0.00  0.00    +0.000 C 
ATOM     23  C   UNL     1      -3.506  15.171  21.885  0.00  0.00    +0.000 A 
ATOM     24  C   UNL     1      -2.254  15.274  21.277  0.00  0.00    +0.000 A 
ATOM     25  C   UNL     1      -1.636  14.152  20.691  0.00  0.00    +0.000 A 
ATOM     26  C   UNL     1      -2.228  12.880  20.732  0.00  0.00    +0.000 A 
ATOM     27  C   UNL     1      -3.477  12.785  21.366  0.00  0.00    +0.000 A 
ATOM     28  C   UNL     1      -4.118  13.915  21.920  0.00  0.00    +0.000 A 
ENDBRANCH   1  26
TORSDOF 2
ENDMDL
MODEL 6
REMARK VINA RESULT:      -7.2      2.570      3.608
REMARK  Name = 
REMARK  5 active torsions:
REMARK  status: ('A' for Active; 'I' for Inactive)
REMARK    1  A    between atoms: C_1  and  C_2
REMARK    2  A    between atoms: C_5  and  N_6
REMARK    3  A    between atoms: C_7  and  C_8
REMARK    4  A    between atoms: C_10  and  C_11
REMARK    5  A    between atoms: C_25  and  C_26
REMARK                            x       y       z     vdW  Elec       q    Type
REMARK                         _______ _______ _______ _____ _____    ______ ____
ROOT
ATOM      1  N   UNL     1       0.911   9.937  20.261  0.00  0.00    +0.000 N 
ATOM      2  C   UNL     1       0.747   9.426  21.556  0.00  0.00    +0.000 A 
ATOM      3  C   UNL     1       0.130  10.139  22.713  0.00  0.00    +0.000 C 
ATOM      4  C   UNL     1       1.158   8.101  21.587  0.00  0.00    +0.000 A 
ATOM      5  C   UNL     1       1.523   7.719  20.292  0.00  0.00    +0.000 A 
ATOM      6  C   UNL     1       1.402   8.863  19.481  0.00  0.00    +0.000 A 
ATOM      7  C   UNL     1       1.795   9.033  18.039  0.00  0.00    +0.000 C 
ENDROOT
BRANCH   5   8
ATOM      8  C   UNL     1       1.988   6.447  19.812  0.00  0.00    +0.000 C 
ATOM      9  C   UNL     1       2.956   5.950  19.017  0.00  0.00    +0.000 A 
ATOM     10  S   UNL     1       2.791   4.181  18.754  0.00  0.00    +0.000 S 
ATOM     11  C   UNL     1       3.886   4.253  17.464  0.00  0.00    +0.000 A 
ATOM     12  N   UNL     1       4.054   3.442  16.463  0.00  0.00    +0.000 NA
ATOM     13  C   UNL     1       5.064   4.032  15.757  0.00  0.00    +0.000 A 
ATOM     14  C   UNL     1       5.595   3.632  14.526  0.00  0.00    +0.000 A 
ATOM     15  C   UNL     1       6.670   4.347  14.007  0.00  0.00    +0.000 A 
ATOM     16  C   UNL     1       7.345   5.263  14.815  0.00  0.00    +0.000 A 
ATOM     17  C   UNL     1       6.774   5.753  16.008  0.00  0.00    +0.000 A 
ATOM     18  C   UNL     1       5.561   5.175  16.414  0.00  0.00    +0.000 A 
ATOM     19  N   UNL     1       4.594   5.411  17.388  0.00  0.00    +0.000 N 
ATOM     20  C   UNL     1       4.147   6.458  18.212  0.00  0.00    +0.000 A 
ATOM     21  O   UNL     1       4.671   7.563  18.186  0.00  0.00    +0.000 OA
ENDBRANCH   5   8
BRANCH   1  26
ATOM     22  C   UNL     1      -0.210  15.381  18.509  0.00  0.00    +0.000 C 
ATOM     23  C   UNL     1       0.083  13.971  18.939  0.00  0.00    +0.000 A 
ATOM     24  C   UNL     1      -0.809  12.928  18.685  0.00  0.00    +0.000 A 
ATOM     25  C   UNL     1      -0.545  11.620  19.135  0.00  0.00    +0.000 A 
ATOM     26  C   UNL     1       0.640  11.300  19.815  0.00  0.00    +0.000 A 
ATOM     27  C   UNL     1       1.540  12.354  20.045  0.00  0.00    +0.000 A 
ATOM     28  C   UNL     1       1.261  13.675  19.630  0.00  0.00    +0.000 A 
ENDBRANCH   1  26
TORSDOF 2
ENDMDL
MODEL 7
REMARK VINA RESULT:      -7.1      2.309      9.472
REMARK  Name = 
REMARK  5 active torsions:
REMARK  status: ('A' for Active; 'I' for Inactive)
REMARK    1  A    between atoms: C_1  and  C_2
REMARK    2  A    between atoms: C_5  and  N_6
REMARK    3  A    between atoms: C_7  and  C_8
REMARK    4  A    between atoms: C_10  and  C_11
REMARK    5  A    between atoms: C_25  and  C_26
REMARK                            x       y       z     vdW  Elec       q    Type
REMARK                         _______ _______ _______ _____ _____    ______ ____
ROOT
ATOM      1  N   UNL     1       3.248   5.429  18.907  0.00  0.00    +0.000 N 
ATOM      2  C   UNL     1       2.751   4.467  19.798  0.00  0.00    +0.000 A 
ATOM      3  C   UNL     1       3.145   3.029  19.853  0.00  0.00    +0.000 C 
ATOM      4  C   UNL     1       1.894   5.075  20.705  0.00  0.00    +0.000 A 
ATOM      5  C   UNL     1       1.887   6.451  20.455  0.00  0.00    +0.000 A 
ATOM      6  C   UNL     1       2.696   6.663  19.323  0.00  0.00    +0.000 A 
ATOM      7  C   UNL     1       2.921   7.940  18.561  0.00  0.00    +0.000 C 
ENDROOT
BRANCH   5   8
ATOM      8  C   UNL     1       1.181   7.499  21.139  0.00  0.00    +0.000 C 
ATOM      9  C   UNL     1       0.695   8.731  20.888  0.00  0.00    +0.000 A 
ATOM     10  S   UNL     1       0.048   9.529  22.362  0.00  0.00    +0.000 S 
ATOM     11  C   UNL     1       0.029  11.023  21.565  0.00  0.00    +0.000 A 
ATOM     12  N   UNL     1       0.035  12.229  22.050  0.00  0.00    +0.000 NA
ATOM     13  C   UNL     1       0.026  13.009  20.928  0.00  0.00    +0.000 A 
ATOM     14  C   UNL     1       0.117  14.403  20.854  0.00  0.00    +0.000 A 
ATOM     15  C   UNL     1       0.027  15.005  19.603  0.00  0.00    +0.000 A 
ATOM     16  C   UNL     1      -0.394  14.255  18.504  0.00  0.00    +0.000 A 
ATOM     17  C   UNL     1      -0.393  12.846  18.531  0.00  0.00    +0.000 A 
ATOM     18  C   UNL     1      -0.080  12.235  19.755  0.00  0.00    +0.000 A 
ATOM     19  N   UNL     1       0.177  10.947  20.217  0.00  0.00    +0.000 N 
ATOM     20  C   UNL     1       0.574   9.696  19.714  0.00  0.00    +0.000 A 
ATOM     21  O   UNL     1       0.794   9.523  18.523  0.00  0.00    +0.000 OA
ENDBRANCH   5   8
BRANCH   1  26
ATOM     22  C   UNL     1       6.852   4.495  14.422  0.00  0.00    +0.000 C 
ATOM     23  C   UNL     1       5.915   4.755  15.569  0.00  0.00    +0.000 A 
ATOM     24  C   UNL     1       6.169   5.756  16.508  0.00  0.00    +0.000 A 
ATOM     25  C   UNL     1       5.309   5.958  17.605  0.00  0.00    +0.000 A 
ATOM     26  C   UNL     1       4.142   5.197  17.776  0.00  0.00    +0.000 A 
ATOM     27  C   UNL     1       3.886   4.208  16.812  0.00  0.00    +0.000 A 
ATOM     28  C   UNL     1       4.767   3.976  15.732  0.00  0.00    +0.000 A 
ENDBRANCH   1  26
TORSDOF 2
ENDMDL
MODEL 8
REMARK VINA RESULT:      -7.0      2.170      3.018
REMARK  Name = 
REMARK  5 active torsions:
REMARK  status: ('A' for Active; 'I' for Inactive)
REMARK    1  A    between atoms: C_1  and  C_2
REMARK    2  A    between atoms: C_5  and  N_6
REMARK    3  A    between atoms: C_7  and  C_8
REMARK    4  A    between atoms: C_10  and  C_11
REMARK    5  A    between atoms: C_25  and  C_26
REMARK                            x       y       z     vdW  Elec       q    Type
REMARK                         _______ _______ _______ _____ _____    ______ ____
ROOT
ATOM      1  N   UNL     1      -0.459  12.031  20.892  0.00  0.00    +0.000 N 
ATOM      2  C   UNL     1       0.716  12.793  20.821  0.00  0.00    +0.000 A 
ATOM      3  C   UNL     1       0.997  14.052  21.570  0.00  0.00    +0.000 C 
ATOM      4  C   UNL     1       1.641  12.143  20.014  0.00  0.00    +0.000 A 
ATOM      5  C   UNL     1       1.098  10.918  19.616  0.00  0.00    +0.000 A 
ATOM      6  C   UNL     1      -0.211  10.865  20.129  0.00  0.00    +0.000 A 
ATOM      7  C   UNL     1      -1.271   9.826  19.884  0.00  0.00    +0.000 C 
ENDROOT
BRANCH   5   8
ATOM      8  C   UNL     1       1.678   9.885  18.801  0.00  0.00    +0.000 C 
ATOM      9  C   UNL     1       1.934   8.563  18.862  0.00  0.00    +0.000 A 
ATOM     10  S   UNL     1       2.877   7.979  17.449  0.00  0.00    +0.000 S 
ATOM     11  C   UNL     1       3.226   6.533  18.259  0.00  0.00    +0.000 A 
ATOM     12  N   UNL     1       4.189   5.681  18.071  0.00  0.00    +0.000 NA
ATOM     13  C   UNL     1       3.953   4.736  19.030  0.00  0.00    +0.000 A 
ATOM     14  C   UNL     1       4.739   3.623  19.347  0.00  0.00    +0.000 A 
ATOM     15  C   UNL     1       4.281   2.748  20.326  0.00  0.00    +0.000 A 
ATOM     16  C   UNL     1       2.965   2.850  20.783  0.00  0.00    +0.000 A 
ATOM     17  C   UNL     1       2.197   4.010  20.558  0.00  0.00    +0.000 A 
ATOM     18  C   UNL     1       2.765   4.999  19.740  0.00  0.00    +0.000 A 
ATOM     19  N   UNL     1       2.469   6.307  19.364  0.00  0.00    +0.000 N 
ATOM     20  C   UNL     1       1.704   7.396  19.816  0.00  0.00    +0.000 A 
ATOM     21  O   UNL     1       1.029   7.329  20.834  0.00  0.00    +0.000 OA
ENDBRANCH   5   8
BRANCH   1  26
ATOM     22  C   UNL     1      -5.393  13.402  23.676  0.00  0.00    +0.000 C 
ATOM     23  C   UNL     1      -4.112  13.070  22.960  0.00  0.00    +0.000 A 
ATOM     24  C   UNL     1      -3.871  13.503  21.656  0.00  0.00    +0.000 A 
ATOM     25  C   UNL     1      -2.688  13.145  20.978  0.00  0.00    +0.000 A 
ATOM     26  C   UNL     1      -1.688  12.380  21.598  0.00  0.00    +0.000 A 
ATOM     27  C   UNL     1      -1.934  11.969  22.918  0.00  0.00    +0.000 A 
ATOM     28  C   UNL     1      -3.136  12.293  23.587  0.00  0.00    +0.000 A 
ENDBRANCH   1  26
TORSDOF 2
ENDMDL
MODEL 9
REMARK VINA RESULT:      -6.9      3.144      9.456
REMARK  Name = 
REMARK  5 active torsions:
REMARK  status: ('A' for Active; 'I' for Inactive)
REMARK    1  A    between atoms: C_1  and  C_2
REMARK    2  A    between atoms: C_5  and  N_6
REMARK    3  A    between atoms: C_7  and  C_8
REMARK    4  A    between atoms: C_10  and  C_11
REMARK    5  A    between atoms: C_25  and  C_26
REMARK                            x       y       z     vdW  Elec       q    Type
REMARK                         _______ _______ _______ _____ _____    ______ ____
ROOT
ATOM      1  N   UNL     1       2.523   6.886  18.991  0.00  0.00    +0.000 N 
ATOM      2  C   UNL     1       2.127   6.481  20.274  0.00  0.00    +0.000 A 
ATOM      3  C   UNL     1       2.591   5.261  20.996  0.00  0.00    +0.000 C 
ATOM      4  C   UNL     1       1.299   7.448  20.829  0.00  0.00    +0.000 A 
ATOM      5  C   UNL     1       1.213   8.523  19.939  0.00  0.00    +0.000 A 
ATOM      6  C   UNL     1       1.940   8.160  18.791  0.00  0.00    +0.000 A 
ATOM      7  C   UNL     1       2.058   8.899  17.486  0.00  0.00    +0.000 C 
ENDROOT
BRANCH   5   8
ATOM      8  C   UNL     1       0.501   9.764  20.074  0.00  0.00    +0.000 C 
ATOM      9  C   UNL     1       0.654  11.065  19.758  0.00  0.00    +0.000 A 
ATOM     10  S   UNL     1      -0.652  12.096  20.434  0.00  0.00    +0.000 S 
ATOM     11  C   UNL     1       0.261  13.488  20.119  0.00  0.00    +0.000 A 
ATOM     12  N   UNL     1       0.191  14.672  20.651  0.00  0.00    +0.000 NA
ATOM     13  C   UNL     1       1.182  15.356  20.005  0.00  0.00    +0.000 A 
ATOM     14  C   UNL     1       1.617  16.664  20.246  0.00  0.00    +0.000 A 
ATOM     15  C   UNL     1       2.608  17.192  19.426  0.00  0.00    +0.000 A 
ATOM     16  C   UNL     1       2.962  16.524  18.252  0.00  0.00    +0.000 A 
ATOM     17  C   UNL     1       2.618  15.173  18.042  0.00  0.00    +0.000 A 
ATOM     18  C   UNL     1       1.788  14.574  19.003  0.00  0.00    +0.000 A 
ATOM     19  N   UNL     1       1.320  13.294  19.291  0.00  0.00    +0.000 N 
ATOM     20  C   UNL     1       1.654  11.955  19.026  0.00  0.00    +0.000 A 
ATOM     21  O   UNL     1       2.622  11.658  18.341  0.00  0.00    +0.000 OA
ENDBRANCH   5   8
BRANCH   1  26
ATOM     22  C   UNL     1       5.883   3.905  15.278  0.00  0.00    +0.000 C 
ATOM     23  C   UNL     1       5.008   4.686  16.218  0.00  0.00    +0.000 A 
ATOM     24  C   UNL     1       5.298   6.008  16.558  0.00  0.00    +0.000 A 
ATOM     25  C   UNL     1       4.497   6.715  17.477  0.00  0.00    +0.000 A 
ATOM     26  C   UNL     1       3.355   6.138  18.054  0.00  0.00    +0.000 A 
ATOM     27  C   UNL     1       3.062   4.815  17.686  0.00  0.00    +0.000 A 
ATOM     28  C   UNL     1       3.884   4.090  16.795  0.00  0.00    +0.000 A 
ENDBRANCH   1  26
TORSDOF 2
ENDMDL
