MODEL 1
REMARK VINA RESULT:      -8.0      0.000      0.000
REMARK  Name = 
REMARK  7 active torsions:
REMARK  status: ('A' for Active; 'I' for Inactive)
REMARK    1  A    between atoms: C_1  and  O_2
REMARK    2  A    between atoms: O_2  and  C_3
REMARK    3  A    between atoms: C_6  and  C_7
REMARK    4  A    between atoms: C_7  and  N_8
REMARK    5  A    between atoms: C_12  and  O_13
REMARK    6  A    between atoms: C_17  and  C_18
REMARK    7  A    between atoms: C_18  and  C_19
REMARK                            x       y       z     vdW  Elec       q    Type
REMARK                         _______ _______ _______ _____ _____    ______ ____
ROOT
ATOM      1  N   UNL     1       3.450   4.844  17.275  0.00  0.00    +0.000 NA
ATOM      2  C   UNL     1       2.572   3.757  17.758  0.00  0.00    +0.000 C 
ATOM      3  C   UNL     1       2.681   3.513  19.266  0.00  0.00    +0.000 C 
ATOM      4  C   UNL     1       1.729   2.463  19.831  0.00  0.00    +0.000 C 
ATOM      5  C   UNL     1       1.344   3.004  21.218  0.00  0.00    +0.000 C 
ATOM      6  C   UNL     1       2.125   4.318  21.365  0.00  0.00    +0.000 C 
ATOM      7  N   UNL     1       2.258   4.719  19.972  0.00  0.00    +0.000 NA
ATOM      8  C   UNL     1       3.139   5.845  19.692  0.00  0.00    +0.000 C 
ATOM      9  C   UNL     1       3.427   6.060  18.155  0.00  0.00    +0.000 C 
ENDROOT
BRANCH   5  10
ATOM     10  O   UNL     1       1.645   2.072  22.245  0.00  0.00    +0.000 OA
ATOM     11  H   UNL     1       1.988   2.562  23.016  0.00  0.00    +0.000 HD
ENDBRANCH   5  10
BRANCH   1  12
ATOM     12  C   UNL     1       4.794   4.393  16.910  0.00  0.00    +0.000 C 
BRANCH  12  16
ATOM     13  C   UNL     1       7.693   7.194  18.136  0.00  0.00    +0.000 A 
ATOM     14  N   UNL     1       7.022   7.455  17.004  0.00  0.00    +0.000 NA
ATOM     15  C   UNL     1       6.122   6.526  16.625  0.00  0.00    +0.000 A 
ATOM     16  C   UNL     1       5.863   5.365  17.330  0.00  0.00    +0.000 A 
ATOM     17  C   UNL     1       6.634   5.202  18.462  0.00  0.00    +0.000 A 
ATOM     18  N   UNL     1       7.559   6.091  18.881  0.00  0.00    +0.000 NA
BRANCH  13  20
ATOM     19  C   UNL     1       8.343   9.411  18.086  0.00  0.00    +0.000 C 
ATOM     20  O   UNL     1       8.601   8.116  18.612  0.00  0.00    +0.000 OA
ENDBRANCH  13  20
ENDBRANCH  12  16
ENDBRANCH   1  12
BRANCH   9  21
ATOM     21  C   UNL     1       2.404   7.029  17.505  0.00  0.00    +0.000 C 
BRANCH  21  22
ATOM     22  C   UNL     1       1.961   8.189  18.372  0.00  0.00    +0.000 A 
ATOM     23  C   UNL     1       1.610   8.004  19.717  0.00  0.00    +0.000 A 
ATOM     24  C   UNL     1       1.212   9.090  20.501  0.00  0.00    +0.000 A 
ATOM     25  C   UNL     1       1.167  10.370  19.952  0.00  0.00    +0.000 A 
ATOM     26  C   UNL     1       1.522  10.568  18.621  0.00  0.00    +0.000 A 
ATOM     27  C   UNL     1       1.915   9.483  17.835  0.00  0.00    +0.000 A 
ENDBRANCH  21  22
ENDBRANCH   9  21
TORSDOF 6
ENDMDL
MODEL 2
REMARK VINA RESULT:      -7.9      2.257      2.993
REMARK  Name = 
REMARK  7 active torsions:
REMARK  status: ('A' for Active; 'I' for Inactive)
REMARK    1  A    between atoms: C_1  and  O_2
REMARK    2  A    between atoms: O_2  and  C_3
REMARK    3  A    between atoms: C_6  and  C_7
REMARK    4  A    between atoms: C_7  and  N_8
REMARK    5  A    between atoms: C_12  and  O_13
REMARK    6  A    between atoms: C_17  and  C_18
REMARK    7  A    between atoms: C_18  and  C_19
REMARK                            x       y       z     vdW  Elec       q    Type
REMARK                         _______ _______ _______ _____ _____    ______ ____
ROOT
ATOM      1  N   UNL     1       3.649   6.352  17.717  0.00  0.00    +0.000 NA
ATOM      2  C   UNL     1       3.148   4.973  17.897  0.00  0.00    +0.000 C 
ATOM      3  C   UNL     1       2.928   4.594  19.364  0.00  0.00    +0.000 C 
ATOM      4  C   UNL     1       2.325   3.212  19.601  0.00  0.00    +0.000 C 
ATOM      5  C   UNL     1       1.405   3.401  20.819  0.00  0.00    +0.000 C 
ATOM      6  C   UNL     1       1.564   4.877  21.214  0.00  0.00    +0.000 C 
ATOM      7  N   UNL     1       1.909   5.473  19.932  0.00  0.00    +0.000 NA
ATOM      8  C   UNL     1       2.342   6.863  19.946  0.00  0.00    +0.000 C 
ATOM      9  C   UNL     1       2.933   7.359  18.570  0.00  0.00    +0.000 C 
ENDROOT
BRANCH   5  10
ATOM     10  O   UNL     1       1.743   2.514  21.873  0.00  0.00    +0.000 OA
ATOM     11  H   UNL     1       1.015   2.514  22.523  0.00  0.00    +0.000 HD
ENDBRANCH   5  10
BRANCH   1  12
ATOM     12  C   UNL     1       5.109   6.457  17.762  0.00  0.00    +0.000 C 
BRANCH  12  16
ATOM     13  C   UNL     1       6.891   4.854  14.298  0.00  0.00    +0.000 A 
ATOM     14  N   UNL     1       7.511   4.638  15.467  0.00  0.00    +0.000 NA
ATOM     15  C   UNL     1       6.930   5.187  16.552  0.00  0.00    +0.000 A 
ATOM     16  C   UNL     1       5.763   5.927  16.515  0.00  0.00    +0.000 A 
ATOM     17  C   UNL     1       5.236   6.097  15.252  0.00  0.00    +0.000 A 
ATOM     18  N   UNL     1       5.782   5.583  14.130  0.00  0.00    +0.000 NA
BRANCH  13  20
ATOM     19  C   UNL     1       6.402   3.565  12.442  0.00  0.00    +0.000 C 
ATOM     20  O   UNL     1       7.402   4.289  13.147  0.00  0.00    +0.000 OA
ENDBRANCH  13  20
ENDBRANCH  12  16
ENDBRANCH   1  12
BRANCH   9  21
ATOM     21  C   UNL     1       1.839   7.979  17.659  0.00  0.00    +0.000 C 
BRANCH  21  22
ATOM     22  C   UNL     1       1.382   9.371  18.043  0.00  0.00    +0.000 A 
ATOM     23  C   UNL     1       0.047   9.636  18.379  0.00  0.00    +0.000 A 
ATOM     24  C   UNL     1      -0.350  10.926  18.738  0.00  0.00    +0.000 A 
ATOM     25  C   UNL     1       0.583  11.961  18.772  0.00  0.00    +0.000 A 
ATOM     26  C   UNL     1       1.913  11.708  18.450  0.00  0.00    +0.000 A 
ATOM     27  C   UNL     1       2.310  10.421  18.086  0.00  0.00    +0.000 A 
ENDBRANCH  21  22
ENDBRANCH   9  21
TORSDOF 6
ENDMDL
MODEL 3
REMARK VINA RESULT:      -7.9      2.220      2.867
REMARK  Name = 
REMARK  7 active torsions:
REMARK  status: ('A' for Active; 'I' for Inactive)
REMARK    1  A    between atoms: C_1  and  O_2
REMARK    2  A    between atoms: O_2  and  C_3
REMARK    3  A    between atoms: C_6  and  C_7
REMARK    4  A    between atoms: C_7  and  N_8
REMARK    5  A    between atoms: C_12  and  O_13
REMARK    6  A    between atoms: C_17  and  C_18
REMARK    7  A    between atoms: C_18  and  C_19
REMARK                            x       y       z     vdW  Elec       q    Type
REMARK                         _______ _______ _______ _____ _____    ______ ____
ROOT
ATOM      1  N   UNL     1       3.965   5.103  17.893  0.00  0.00    +0.000 NA
ATOM      2  C   UNL     1       3.227   3.847  18.151  0.00  0.00    +0.000 C 
ATOM      3  C   UNL     1       3.066   3.533  19.641  0.00  0.00    +0.000 C 
ATOM      4  C   UNL     1       2.233   2.296  19.964  0.00  0.00    +0.000 C 
ATOM      5  C   UNL     1       1.476   2.671  21.249  0.00  0.00    +0.000 C 
ATOM      6  C   UNL     1       1.947   4.092  21.590  0.00  0.00    +0.000 C 
ATOM      7  N   UNL     1       2.288   4.597  20.268  0.00  0.00    +0.000 NA
ATOM      8  C   UNL     1       2.978   5.878  20.209  0.00  0.00    +0.000 C 
ATOM      9  C   UNL     1       3.531   6.237  18.776  0.00  0.00    +0.000 C 
ENDROOT
BRANCH   5  10
ATOM     10  O   UNL     1       1.729   1.746  22.294  0.00  0.00    +0.000 OA
ATOM     11  H   UNL     1       2.594   1.325  22.132  0.00  0.00    +0.000 HD
ENDBRANCH   5  10
BRANCH   1  12
ATOM     12  C   UNL     1       5.416   4.924  17.814  0.00  0.00    +0.000 C 
BRANCH  12  16
ATOM     13  C   UNL     1       6.891   4.681  13.876  0.00  0.00    +0.000 A 
ATOM     14  N   UNL     1       7.640   5.335  14.776  0.00  0.00    +0.000 NA
ATOM     15  C   UNL     1       7.127   5.419  16.020  0.00  0.00    +0.000 A 
ATOM     16  C   UNL     1       5.914   4.872  16.395  0.00  0.00    +0.000 A 
ATOM     17  C   UNL     1       5.230   4.247  15.374  0.00  0.00    +0.000 A 
ATOM     18  N   UNL     1       5.688   4.145  14.109  0.00  0.00    +0.000 NA
BRANCH  13  20
ATOM     19  C   UNL     1       6.713   3.438  11.935  0.00  0.00    +0.000 C 
ATOM     20  O   UNL     1       7.367   4.516  12.591  0.00  0.00    +0.000 OA
ENDBRANCH  13  20
ENDBRANCH  12  16
ENDBRANCH   1  12
BRANCH   9  21
ATOM     21  C   UNL     1       2.502   7.046  17.944  0.00  0.00    +0.000 C 
BRANCH  21  22
ATOM     22  C   UNL     1       1.894   8.244  18.644  0.00  0.00    +0.000 A 
ATOM     23  C   UNL     1       1.643   8.235  20.023  0.00  0.00    +0.000 A 
ATOM     24  C   UNL     1       1.090   9.354  20.650  0.00  0.00    +0.000 A 
ATOM     25  C   UNL     1       0.787  10.494  19.907  0.00  0.00    +0.000 A 
ATOM     26  C   UNL     1       1.040  10.518  18.538  0.00  0.00    +0.000 A 
ATOM     27  C   UNL     1       1.588   9.398  17.910  0.00  0.00    +0.000 A 
ENDBRANCH  21  22
ENDBRANCH   9  21
TORSDOF 6
ENDMDL
MODEL 4
REMARK VINA RESULT:      -7.9      0.218      1.338
REMARK  Name = 
REMARK  7 active torsions:
REMARK  status: ('A' for Active; 'I' for Inactive)
REMARK    1  A    between atoms: C_1  and  O_2
REMARK    2  A    between atoms: O_2  and  C_3
REMARK    3  A    between atoms: C_6  and  C_7
REMARK    4  A    between atoms: C_7  and  N_8
REMARK    5  A    between atoms: C_12  and  O_13
REMARK    6  A    between atoms: C_17  and  C_18
REMARK    7  A    between atoms: C_18  and  C_19
REMARK                            x       y       z     vdW  Elec       q    Type
REMARK                         _______ _______ _______ _____ _____    ______ ____
ROOT
ATOM      1  N   UNL     1       3.627   4.947  17.339  0.00  0.00    +0.000 NA
ATOM      2  C   UNL     1       2.783   3.807  17.756  0.00  0.00    +0.000 C 
ATOM      3  C   UNL     1       2.820   3.544  19.264  0.00  0.00    +0.000 C 
ATOM      4  C   UNL     1       1.895   2.434  19.759  0.00  0.00    +0.000 C 
ATOM      5  C   UNL     1       1.404   2.930  21.130  0.00  0.00    +0.000 C 
ATOM      6  C   UNL     1       2.104   4.282  21.339  0.00  0.00    +0.000 C 
ATOM      7  N   UNL     1       2.293   4.713  19.962  0.00  0.00    +0.000 NA
ATOM      8  C   UNL     1       3.126   5.889  19.747  0.00  0.00    +0.000 C 
ATOM      9  C   UNL     1       3.488   6.144  18.233  0.00  0.00    +0.000 C 
ENDROOT
BRANCH   5  10
ATOM     10  O   UNL     1       1.697   1.999  22.159  0.00  0.00    +0.000 OA
ATOM     11  H   UNL     1       1.265   1.152  21.941  0.00  0.00    +0.000 HD
ENDBRANCH   5  10
BRANCH   1  12
ATOM     12  C   UNL     1       5.012   4.575  17.045  0.00  0.00    +0.000 C 
BRANCH  12  16
ATOM     13  C   UNL     1       7.872   7.410  18.281  0.00  0.00    +0.000 A 
ATOM     14  N   UNL     1       7.775   6.279  18.995  0.00  0.00    +0.000 NA
ATOM     15  C   UNL     1       6.832   5.405  18.590  0.00  0.00    +0.000 A 
ATOM     16  C   UNL     1       5.999   5.612  17.507  0.00  0.00    +0.000 A 
ATOM     17  C   UNL     1       6.181   6.821  16.870  0.00  0.00    +0.000 A 
ATOM     18  N   UNL     1       7.099   7.739  17.240  0.00  0.00    +0.000 NA
BRANCH  13  20
ATOM     19  C   UNL     1       8.472   9.640  18.178  0.00  0.00    +0.000 C 
ATOM     20  O   UNL     1       8.842   8.336  18.607  0.00  0.00    +0.000 OA
ENDBRANCH  13  20
ENDBRANCH  12  16
ENDBRANCH   1  12
BRANCH   9  21
ATOM     21  C   UNL     1       2.453   7.069  17.539  0.00  0.00    +0.000 C 
BRANCH  21  22
ATOM     22  C   UNL     1       1.979   8.251  18.359  0.00  0.00    +0.000 A 
ATOM     23  C   UNL     1       1.925   9.543  17.818  0.00  0.00    +0.000 A 
ATOM     24  C   UNL     1       1.477  10.617  18.591  0.00  0.00    +0.000 A 
ATOM     25  C   UNL     1       1.072  10.410  19.908  0.00  0.00    +0.000 A 
ATOM     26  C   UNL     1       1.113   9.131  20.454  0.00  0.00    +0.000 A 
ATOM     27  C   UNL     1       1.566   8.057  19.685  0.00  0.00    +0.000 A 
ENDBRANCH  21  22
ENDBRANCH   9  21
TORSDOF 6
ENDMDL
MODEL 5
REMARK VINA RESULT:      -7.7      2.913      5.872
REMARK  Name = 
REMARK  7 active torsions:
REMARK  status: ('A' for Active; 'I' for Inactive)
REMARK    1  A    between atoms: C_1  and  O_2
REMARK    2  A    between atoms: O_2  and  C_3
REMARK    3  A    between atoms: C_6  and  C_7
REMARK    4  A    between atoms: C_7  and  N_8
REMARK    5  A    between atoms: C_12  and  O_13
REMARK    6  A    between atoms: C_17  and  C_18
REMARK    7  A    between atoms: C_18  and  C_19
REMARK                            x       y       z     vdW  Elec       q    Type
REMARK                         _______ _______ _______ _____ _____    ______ ____
ROOT
ATOM      1  N   UNL     1       2.790   6.352  19.697  0.00  0.00    +0.000 NA
ATOM      2  C   UNL     1       3.522   5.166  20.192  0.00  0.00    +0.000 C 
ATOM      3  C   UNL     1       3.047   3.854  19.562  0.00  0.00    +0.000 C 
ATOM      4  C   UNL     1       3.831   2.609  19.970  0.00  0.00    +0.000 C 
ATOM      5  C   UNL     1       3.866   1.746  18.697  0.00  0.00    +0.000 C 
ATOM      6  C   UNL     1       3.075   2.546  17.651  0.00  0.00    +0.000 C 
ATOM      7  N   UNL     1       3.286   3.906  18.122  0.00  0.00    +0.000 NA
ATOM      8  C   UNL     1       2.504   4.955  17.483  0.00  0.00    +0.000 C 
ATOM      9  C   UNL     1       2.600   6.353  18.209  0.00  0.00    +0.000 C 
ENDROOT
BRANCH   5  10
ATOM     10  O   UNL     1       3.321   0.456  18.925  0.00  0.00    +0.000 OA
ATOM     11  H   UNL     1       3.942  -0.208  18.571  0.00  0.00    +0.000 HD
ENDBRANCH   5  10
BRANCH   1  12
ATOM     12  C   UNL     1       1.575   6.651  20.458  0.00  0.00    +0.000 C 
BRANCH  12  16
ATOM     13  C   UNL     1       0.939  10.763  21.117  0.00  0.00    +0.000 A 
ATOM     14  N   UNL     1       0.961  10.338  19.845  0.00  0.00    +0.000 NA
ATOM     15  C   UNL     1       1.194   9.022  19.668  0.00  0.00    +0.000 A 
ATOM     16  C   UNL     1       1.394   8.125  20.700  0.00  0.00    +0.000 A 
ATOM     17  C   UNL     1       1.371   8.689  21.958  0.00  0.00    +0.000 A 
ATOM     18  N   UNL     1       1.157  10.000  22.195  0.00  0.00    +0.000 NA
BRANCH  13  20
ATOM     19  C   UNL     1      -0.526  12.224  22.149  0.00  0.00    +0.000 C 
ATOM     20  O   UNL     1       0.664  12.089  21.383  0.00  0.00    +0.000 OA
ENDBRANCH  13  20
ENDBRANCH  12  16
ENDBRANCH   1  12
BRANCH   9  21
ATOM     21  C   UNL     1       3.752   7.223  17.638  0.00  0.00    +0.000 C 
BRANCH  21  22
ATOM     22  C   UNL     1       4.946   6.457  17.105  0.00  0.00    +0.000 A 
ATOM     23  C   UNL     1       5.036   6.093  15.754  0.00  0.00    +0.000 A 
ATOM     24  C   UNL     1       6.150   5.395  15.282  0.00  0.00    +0.000 A 
ATOM     25  C   UNL     1       7.186   5.060  16.152  0.00  0.00    +0.000 A 
ATOM     26  C   UNL     1       7.112   5.424  17.493  0.00  0.00    +0.000 A 
ATOM     27  C   UNL     1       5.997   6.117  17.968  0.00  0.00    +0.000 A 
ENDBRANCH  21  22
ENDBRANCH   9  21
TORSDOF 6
ENDMDL
MODEL 6
REMARK VINA RESULT:      -7.7      2.895      5.699
REMARK  Name = 
REMARK  7 active torsions:
REMARK  status: ('A' for Active; 'I' for Inactive)
REMARK    1  A    between atoms: C_1  and  O_2
REMARK    2  A    between atoms: O_2  and  C_3
REMARK    3  A    between atoms: C_6  and  C_7
REMARK    4  A    between atoms: C_7  and  N_8
REMARK    5  A    between atoms: C_12  and  O_13
REMARK    6  A    between atoms: C_17  and  C_18
REMARK    7  A    between atoms: C_18  and  C_19
REMARK                            x       y       z     vdW  Elec       q    Type
REMARK                         _______ _______ _______ _____ _____    ______ ____
ROOT
ATOM      1  N   UNL     1       2.794   6.350  19.685  0.00  0.00    +0.000 NA
ATOM      2  C   UNL     1       3.522   5.165  20.189  0.00  0.00    +0.000 C 
ATOM      3  C   UNL     1       3.053   3.852  19.558  0.00  0.00    +0.000 C 
ATOM      4  C   UNL     1       3.833   2.608  19.977  0.00  0.00    +0.000 C 
ATOM      5  C   UNL     1       3.880   1.742  18.707  0.00  0.00    +0.000 C 
ATOM      6  C   UNL     1       3.100   2.538  17.651  0.00  0.00    +0.000 C 
ATOM      7  N   UNL     1       3.307   3.900  18.121  0.00  0.00    +0.000 NA
ATOM      8  C   UNL     1       2.530   4.947  17.472  0.00  0.00    +0.000 C 
ATOM      9  C   UNL     1       2.619   6.346  18.194  0.00  0.00    +0.000 C 
ENDROOT
BRANCH   5  10
ATOM     10  O   UNL     1       3.334   0.452  18.933  0.00  0.00    +0.000 OA
ATOM     11  H   UNL     1       3.828  -0.192  18.392  0.00  0.00    +0.000 HD
ENDBRANCH   5  10
BRANCH   1  12
ATOM     12  C   UNL     1       1.572   6.650  20.433  0.00  0.00    +0.000 C 
BRANCH  12  16
ATOM     13  C   UNL     1       0.965  10.758  21.141  0.00  0.00    +0.000 A 
ATOM     14  N   UNL     1       0.973  10.347  19.865  0.00  0.00    +0.000 NA
ATOM     15  C   UNL     1       1.197   9.031  19.671  0.00  0.00    +0.000 A 
ATOM     16  C   UNL     1       1.402   8.123  20.692  0.00  0.00    +0.000 A 
ATOM     17  C   UNL     1       1.394   8.674  21.956  0.00  0.00    +0.000 A 
ATOM     18  N   UNL     1       1.189   9.984  22.208  0.00  0.00    +0.000 NA
BRANCH  13  20
ATOM     19  C   UNL     1       1.482  12.948  20.608  0.00  0.00    +0.000 C 
ATOM     20  O   UNL     1       0.701  12.083  21.423  0.00  0.00    +0.000 OA
ENDBRANCH  13  20
ENDBRANCH  12  16
ENDBRANCH   1  12
BRANCH   9  21
ATOM     21  C   UNL     1       3.777   7.215  17.633  0.00  0.00    +0.000 C 
BRANCH  21  22
ATOM     22  C   UNL     1       4.977   6.449  17.117  0.00  0.00    +0.000 A 
ATOM     23  C   UNL     1       6.026   6.073  17.969  0.00  0.00    +0.000 A 
ATOM     24  C   UNL     1       7.119   5.359  17.473  0.00  0.00    +0.000 A 
ATOM     25  C   UNL     1       7.173   5.008  16.125  0.00  0.00    +0.000 A 
ATOM     26  C   UNL     1       6.134   5.368  15.272  0.00  0.00    +0.000 A 
ATOM     27  C   UNL     1       5.043   6.086  15.765  0.00  0.00    +0.000 A 
ENDBRANCH  21  22
ENDBRANCH   9  21
TORSDOF 6
ENDMDL
MODEL 7
REMARK VINA RESULT:      -7.7      2.114      3.041
REMARK  Name = 
REMARK  7 active torsions:
REMARK  status: ('A' for Active; 'I' for Inactive)
REMARK    1  A    between atoms: C_1  and  O_2
REMARK    2  A    between atoms: O_2  and  C_3
REMARK    3  A    between atoms: C_6  and  C_7
REMARK    4  A    between atoms: C_7  and  N_8
REMARK    5  A    between atoms: C_12  and  O_13
REMARK    6  A    between atoms: C_17  and  C_18
REMARK    7  A    between atoms: C_18  and  C_19
REMARK                            x       y       z     vdW  Elec       q    Type
REMARK                         _______ _______ _______ _____ _____    ______ ____
ROOT
ATOM      1  N   UNL     1       3.473   6.514  18.480  0.00  0.00    +0.000 NA
ATOM      2  C   UNL     1       2.972   5.349  17.719  0.00  0.00    +0.000 C 
ATOM      3  C   UNL     1       2.549   4.179  18.611  0.00  0.00    +0.000 C 
ATOM      4  C   UNL     1       1.939   2.985  17.881  0.00  0.00    +0.000 C 
ATOM      5  C   UNL     1       0.851   2.468  18.837  0.00  0.00    +0.000 C 
ATOM      6  C   UNL     1       0.930   3.387  20.065  0.00  0.00    +0.000 C 
ATOM      7  N   UNL     1       1.447   4.609  19.466  0.00  0.00    +0.000 NA
ATOM      8  C   UNL     1       1.853   5.670  20.377  0.00  0.00    +0.000 C 
ATOM      9  C   UNL     1       2.628   6.850  19.674  0.00  0.00    +0.000 C 
ENDROOT
BRANCH   5  10
ATOM     10  O   UNL     1       1.048   1.102  19.164  0.00  0.00    +0.000 OA
ATOM     11  H   UNL     1       0.290   0.591  18.823  0.00  0.00    +0.000 HD
ENDBRANCH   5  10
BRANCH   1  12
ATOM     12  C   UNL     1       4.910   6.459  18.758  0.00  0.00    +0.000 C 
BRANCH  12  16
ATOM     13  C   UNL     1       7.082   5.083  15.421  0.00  0.00    +0.000 A 
ATOM     14  N   UNL     1       7.431   4.605  16.624  0.00  0.00    +0.000 NA
ATOM     15  C   UNL     1       6.735   5.086  17.674  0.00  0.00    +0.000 A 
ATOM     16  C   UNL     1       5.711   6.008  17.567  0.00  0.00    +0.000 A 
ATOM     17  C   UNL     1       5.463   6.439  16.281  0.00  0.00    +0.000 A 
ATOM     18  N   UNL     1       6.137   6.003  15.195  0.00  0.00    +0.000 NA
BRANCH  13  20
ATOM     19  C   UNL     1       6.788   4.323  13.258  0.00  0.00    +0.000 C 
ATOM     20  O   UNL     1       7.719   4.609  14.293  0.00  0.00    +0.000 OA
ENDBRANCH  13  20
ENDBRANCH  12  16
ENDBRANCH   1  12
BRANCH   9  21
ATOM     21  C   UNL     1       1.667   7.975  19.204  0.00  0.00    +0.000 C 
BRANCH  21  22
ATOM     22  C   UNL     1       1.033   8.796  20.308  0.00  0.00    +0.000 A 
ATOM     23  C   UNL     1       0.058   9.765  20.032  0.00  0.00    +0.000 A 
ATOM     24  C   UNL     1      -0.518  10.505  21.067  0.00  0.00    +0.000 A 
ATOM     25  C   UNL     1      -0.133  10.279  22.387  0.00  0.00    +0.000 A 
ATOM     26  C   UNL     1       0.827   9.313  22.675  0.00  0.00    +0.000 A 
ATOM     27  C   UNL     1       1.408   8.577  21.641  0.00  0.00    +0.000 A 
ENDBRANCH  21  22
ENDBRANCH   9  21
TORSDOF 6
ENDMDL
MODEL 8
REMARK VINA RESULT:      -7.7      2.168      2.557
REMARK  Name = 
REMARK  7 active torsions:
REMARK  status: ('A' for Active; 'I' for Inactive)
REMARK    1  A    between atoms: C_1  and  O_2
REMARK    2  A    between atoms: O_2  and  C_3
REMARK    3  A    between atoms: C_6  and  C_7
REMARK    4  A    between atoms: C_7  and  N_8
REMARK    5  A    between atoms: C_12  and  O_13
REMARK    6  A    between atoms: C_17  and  C_18
REMARK    7  A    between atoms: C_18  and  C_19
REMARK                            x       y       z     vdW  Elec       q    Type
REMARK                         _______ _______ _______ _____ _____    ______ ____
ROOT
ATOM      1  N   UNL     1       4.135   4.484  17.729  0.00  0.00    +0.000 NA
ATOM      2  C   UNL     1       3.165   3.425  18.083  0.00  0.00    +0.000 C 
ATOM      3  C   UNL     1       2.975   3.257  19.592  0.00  0.00    +0.000 C 
ATOM      4  C   UNL     1       1.916   2.239  20.010  0.00  0.00    +0.000 C 
ATOM      5  C   UNL     1       1.276   2.850  21.268  0.00  0.00    +0.000 C 
ATOM      6  C   UNL     1       2.031   4.167  21.501  0.00  0.00    +0.000 C 
ATOM      7  N   UNL     1       2.439   4.497  20.144  0.00  0.00    +0.000 NA
ATOM      8  C   UNL     1       3.371   5.604  19.987  0.00  0.00    +0.000 C 
ATOM      9  C   UNL     1       3.956   5.742  18.528  0.00  0.00    +0.000 C 
ENDROOT
BRANCH   5  10
ATOM     10  O   UNL     1       1.358   1.969  22.377  0.00  0.00    +0.000 OA
ATOM     11  H   UNL     1       1.900   2.394  23.069  0.00  0.00    +0.000 HD
ENDBRANCH   5  10
BRANCH   1  12
ATOM     12  C   UNL     1       5.518   4.010  17.655  0.00  0.00    +0.000 C 
BRANCH  12  16
ATOM     13  C   UNL     1       7.210   4.924  13.907  0.00  0.00    +0.000 A 
ATOM     14  N   UNL     1       6.317   3.924  13.954  0.00  0.00    +0.000 NA
ATOM     15  C   UNL     1       5.816   3.639  15.172  0.00  0.00    +0.000 A 
ATOM     16  C   UNL     1       6.161   4.312  16.329  0.00  0.00    +0.000 A 
ATOM     17  C   UNL     1       7.105   5.302  16.152  0.00  0.00    +0.000 A 
ATOM     18  N   UNL     1       7.651   5.622  14.960  0.00  0.00    +0.000 NA
BRANCH  13  20
ATOM     19  C   UNL     1       8.998   5.941  12.852  0.00  0.00    +0.000 C 
ATOM     20  O   UNL     1       7.737   5.304  12.690  0.00  0.00    +0.000 OA
ENDBRANCH  13  20
ENDBRANCH  12  16
ENDBRANCH   1  12
BRANCH   9  21
ATOM     21  C   UNL     1       3.094   6.682  17.644  0.00  0.00    +0.000 C 
BRANCH  21  22
ATOM     22  C   UNL     1       2.327   7.755  18.388  0.00  0.00    +0.000 A 
ATOM     23  C   UNL     1       2.060   7.646  19.760  0.00  0.00    +0.000 A 
ATOM     24  C   UNL     1       1.359   8.653  20.427  0.00  0.00    +0.000 A 
ATOM     25  C   UNL     1       0.923   9.780  19.734  0.00  0.00    +0.000 A 
ATOM     26  C   UNL     1       1.189   9.904  18.373  0.00  0.00    +0.000 A 
ATOM     27  C   UNL     1       1.886   8.896  17.704  0.00  0.00    +0.000 A 
ENDBRANCH  21  22
ENDBRANCH   9  21
TORSDOF 6
ENDMDL
MODEL 9
REMARK VINA RESULT:      -7.6      3.094      6.044
REMARK  Name = 
REMARK  7 active torsions:
REMARK  status: ('A' for Active; 'I' for Inactive)
REMARK    1  A    between atoms: C_1  and  O_2
REMARK    2  A    between atoms: O_2  and  C_3
REMARK    3  A    between atoms: C_6  and  C_7
REMARK    4  A    between atoms: C_7  and  N_8
REMARK    5  A    between atoms: C_12  and  O_13
REMARK    6  A    between atoms: C_17  and  C_18
REMARK    7  A    between atoms: C_18  and  C_19
REMARK                            x       y       z     vdW  Elec       q    Type
REMARK                         _______ _______ _______ _____ _____    ______ ____
ROOT
ATOM      1  N   UNL     1       2.564   7.759  18.516  0.00  0.00    +0.000 NA
ATOM      2  C   UNL     1       2.397   7.165  19.860  0.00  0.00    +0.000 C 
ATOM      3  C   UNL     1       1.803   5.755  19.831  0.00  0.00    +0.000 C 
ATOM      4  C   UNL     1       1.694   5.061  21.187  0.00  0.00    +0.000 C 
ATOM      5  C   UNL     1       1.991   3.583  20.883  0.00  0.00    +0.000 C 
ATOM      6  C   UNL     1       2.224   3.525  19.366  0.00  0.00    +0.000 C 
ATOM      7  N   UNL     1       2.713   4.872  19.109  0.00  0.00    +0.000 NA
ATOM      8  C   UNL     1       2.855   5.267  17.715  0.00  0.00    +0.000 C 
ATOM      9  C   UNL     1       3.148   6.805  17.516  0.00  0.00    +0.000 C 
ENDROOT
BRANCH   5  10
ATOM     10  O   UNL     1       0.931   2.739  21.305  0.00  0.00    +0.000 OA
ATOM     11  H   UNL     1       1.145   1.823  21.049  0.00  0.00    +0.000 HD
ENDBRANCH   5  10
BRANCH   1  12
ATOM     12  C   UNL     1       1.379   8.477  18.041  0.00  0.00    +0.000 C 
BRANCH  12  16
ATOM     13  C   UNL     1       1.451  12.498  19.296  0.00  0.00    +0.000 A 
ATOM     14  N   UNL     1       0.558  11.685  19.880  0.00  0.00    +0.000 NA
ATOM     15  C   UNL     1       0.542  10.412  19.436  0.00  0.00    +0.000 A 
ATOM     16  C   UNL     1       1.380   9.925  18.451  0.00  0.00    +0.000 A 
ATOM     17  C   UNL     1       2.235  10.863  17.914  0.00  0.00    +0.000 A 
ATOM     18  N   UNL     1       2.285  12.153  18.308  0.00  0.00    +0.000 NA
BRANCH  13  20
ATOM     19  C   UNL     1       0.583  14.631  19.101  0.00  0.00    +0.000 C 
ATOM     20  O   UNL     1       1.558  13.805  19.724  0.00  0.00    +0.000 OA
ENDBRANCH  13  20
ENDBRANCH  12  16
ENDBRANCH   1  12
BRANCH   9  21
ATOM     21  C   UNL     1       4.670   7.106  17.487  0.00  0.00    +0.000 C 
BRANCH  21  22
ATOM     22  C   UNL     1       5.517   6.115  16.715  0.00  0.00    +0.000 A 
ATOM     23  C   UNL     1       5.326   5.904  15.342  0.00  0.00    +0.000 A 
ATOM     24  C   UNL     1       6.125   4.992  14.648  0.00  0.00    +0.000 A 
ATOM     25  C   UNL     1       7.124   4.287  15.316  0.00  0.00    +0.000 A 
ATOM     26  C   UNL     1       7.329   4.495  16.677  0.00  0.00    +0.000 A 
ATOM     27  C   UNL     1       6.528   5.402  17.373  0.00  0.00    +0.000 A 
ENDBRANCH  21  22
ENDBRANCH   9  21
TORSDOF 6
ENDMDL
