MODEL 1
REMARK VINA RESULT:      -6.8      0.000      0.000
REMARK  Name = 
REMARK  9 active torsions:
REMARK  status: ('A' for Active; 'I' for Inactive)
REMARK    1  A    between atoms: C_1  and  O_2
REMARK    2  A    between atoms: O_2  and  C_3
REMARK    3  A    between atoms: C_3  and  C_5
REMARK    4  A    between atoms: C_5  and  O_6
REMARK    5  A    between atoms: O_6  and  C_7
REMARK    6  A    between atoms: C_10  and  O_11
REMARK    7  A    between atoms: O_11  and  C_12
REMARK    8  A    between atoms: C_14  and  C_15
REMARK    9  A    between atoms: C_17  and  C_18
REMARK                            x       y       z     vdW  Elec       q    Type
REMARK                         _______ _______ _______ _____ _____    ______ ____
ROOT
ATOM      1  C   UNL     1       6.015   4.487  14.845  0.00  0.00    +0.000 A 
ATOM      2  C   UNL     1       4.813   4.060  15.415  0.00  0.00    +0.000 A 
ATOM      3  C   UNL     1       4.698   3.910  16.798  0.00  0.00    +0.000 A 
ATOM      4  C   UNL     1       5.795   4.165  17.618  0.00  0.00    +0.000 A 
ATOM      5  C   UNL     1       6.992   4.616  17.050  0.00  0.00    +0.000 A 
ATOM      6  C   UNL     1       7.111   4.749  15.664  0.00  0.00    +0.000 A 
ENDROOT
BRANCH   1   7
ATOM      7  O   UNL     1       6.008   4.590  13.485  0.00  0.00    +0.000 OA
BRANCH   7   8
ATOM      8  C   UNL     1       6.619   3.522  12.767  0.00  0.00    +0.000 C 
BRANCH   8   9
ATOM      9  C   UNL     1       5.559   2.796  11.954  0.00  0.00    +0.000 C 
ATOM     10  O   UNL     1       5.679   1.694  11.432  0.00  0.00    +0.000 OA
BRANCH   9  12
ATOM     11  C   UNL     1       3.662   3.361  10.713  0.00  0.00    +0.000 C 
ATOM     12  O   UNL     1       4.420   3.553  11.907  0.00  0.00    +0.000 OA
ENDBRANCH   9  12
ENDBRANCH   8   9
ENDBRANCH   7   8
ENDBRANCH   1   7
BRANCH   4  13
ATOM     13  O   UNL     1       5.597   4.014  18.972  0.00  0.00    +0.000 OA
BRANCH  13  14
ATOM     14  C   UNL     1       4.365   4.377  19.498  0.00  0.00    +0.000 A 
ATOM     15  N   UNL     1       3.661   3.382  20.058  0.00  0.00    +0.000 NA
ATOM     16  C   UNL     1       2.436   3.700  20.522  0.00  0.00    +0.000 A 
ATOM     17  C   UNL     1       1.625   2.599  21.136  0.00  0.00    +0.000 C 
ATOM     18  C   UNL     1       1.914   4.978  20.427  0.00  0.00    +0.000 A 
ATOM     19  C   UNL     1       2.723   5.939  19.857  0.00  0.00    +0.000 A 
ATOM     20  C   UNL     1       2.257   7.349  19.666  0.00  0.00    +0.000 C 
ATOM     21  N   UNL     1       3.960   5.657  19.409  0.00  0.00    +0.000 NA
ENDBRANCH  13  14
ENDBRANCH   4  13
TORSDOF 6
ENDMDL
MODEL 2
REMARK VINA RESULT:      -6.8      3.755      8.339
REMARK  Name = 
REMARK  9 active torsions:
REMARK  status: ('A' for Active; 'I' for Inactive)
REMARK    1  A    between atoms: C_1  and  O_2
REMARK    2  A    between atoms: O_2  and  C_3
REMARK    3  A    between atoms: C_3  and  C_5
REMARK    4  A    between atoms: C_5  and  O_6
REMARK    5  A    between atoms: O_6  and  C_7
REMARK    6  A    between atoms: C_10  and  O_11
REMARK    7  A    between atoms: O_11  and  C_12
REMARK    8  A    between atoms: C_14  and  C_15
REMARK    9  A    between atoms: C_17  and  C_18
REMARK                            x       y       z     vdW  Elec       q    Type
REMARK                         _______ _______ _______ _____ _____    ______ ____
ROOT
ATOM      1  C   UNL     1       1.809   7.227  20.354  0.00  0.00    +0.000 A 
ATOM      2  C   UNL     1       1.741   5.858  20.621  0.00  0.00    +0.000 A 
ATOM      3  C   UNL     1       2.212   4.930  19.690  0.00  0.00    +0.000 A 
ATOM      4  C   UNL     1       2.732   5.368  18.474  0.00  0.00    +0.000 A 
ATOM      5  C   UNL     1       2.823   6.741  18.217  0.00  0.00    +0.000 A 
ATOM      6  C   UNL     1       2.336   7.668  19.142  0.00  0.00    +0.000 A 
ENDROOT
BRANCH   1   7
ATOM      7  O   UNL     1       1.314   8.035  21.336  0.00  0.00    +0.000 OA
BRANCH   7   8
ATOM      8  C   UNL     1       0.413   9.056  20.918  0.00  0.00    +0.000 C 
BRANCH   8   9
ATOM      9  C   UNL     1       0.761  10.352  21.632  0.00  0.00    +0.000 C 
ATOM     10  O   UNL     1       1.266  11.344  21.121  0.00  0.00    +0.000 OA
BRANCH   9  12
ATOM     11  C   UNL     1      -1.007  10.379  23.161  0.00  0.00    +0.000 C 
ATOM     12  O   UNL     1       0.400  10.261  22.949  0.00  0.00    +0.000 OA
ENDBRANCH   9  12
ENDBRANCH   8   9
ENDBRANCH   7   8
ENDBRANCH   1   7
BRANCH   4  13
ATOM     13  O   UNL     1       3.194   4.394  17.617  0.00  0.00    +0.000 OA
BRANCH  13  14
ATOM     14  C   UNL     1       4.512   4.468  17.192  0.00  0.00    +0.000 A 
ATOM     15  N   UNL     1       5.391   4.896  18.110  0.00  0.00    +0.000 NA
ATOM     16  C   UNL     1       6.668   5.032  17.701  0.00  0.00    +0.000 A 
ATOM     17  C   UNL     1       7.664   5.528  18.706  0.00  0.00    +0.000 C 
ATOM     18  C   UNL     1       7.067   4.755  16.406  0.00  0.00    +0.000 A 
ATOM     19  C   UNL     1       6.096   4.296  15.541  0.00  0.00    +0.000 A 
ATOM     20  C   UNL     1       6.398   3.997  14.105  0.00  0.00    +0.000 C 
ATOM     21  N   UNL     1       4.819   4.125  15.927  0.00  0.00    +0.000 NA
ENDBRANCH  13  14
ENDBRANCH   4  13
TORSDOF 6
ENDMDL
MODEL 3
REMARK VINA RESULT:      -6.7      4.032      8.545
REMARK  Name = 
REMARK  9 active torsions:
REMARK  status: ('A' for Active; 'I' for Inactive)
REMARK    1  A    between atoms: C_1  and  O_2
REMARK    2  A    between atoms: O_2  and  C_3
REMARK    3  A    between atoms: C_3  and  C_5
REMARK    4  A    between atoms: C_5  and  O_6
REMARK    5  A    between atoms: O_6  and  C_7
REMARK    6  A    between atoms: C_10  and  O_11
REMARK    7  A    between atoms: O_11  and  C_12
REMARK    8  A    between atoms: C_14  and  C_15
REMARK    9  A    between atoms: C_17  and  C_18
REMARK                            x       y       z     vdW  Elec       q    Type
REMARK                         _______ _______ _______ _____ _____    ______ ____
ROOT
ATOM      1  C   UNL     1       1.554   8.404  19.963  0.00  0.00    +0.000 A 
ATOM      2  C   UNL     1       1.598   7.266  20.772  0.00  0.00    +0.000 A 
ATOM      3  C   UNL     1       2.130   6.070  20.285  0.00  0.00    +0.000 A 
ATOM      4  C   UNL     1       2.600   6.001  18.975  0.00  0.00    +0.000 A 
ATOM      5  C   UNL     1       2.578   7.148  18.173  0.00  0.00    +0.000 A 
ATOM      6  C   UNL     1       2.030   8.340  18.655  0.00  0.00    +0.000 A 
ENDROOT
BRANCH   1   7
ATOM      7  O   UNL     1       1.008   9.509  20.547  0.00  0.00    +0.000 OA
BRANCH   7   8
ATOM      8  C   UNL     1      -0.183   9.303  21.300  0.00  0.00    +0.000 C 
BRANCH   8   9
ATOM      9  C   UNL     1       0.011   9.853  22.704  0.00  0.00    +0.000 C 
ATOM     10  O   UNL     1       0.938   9.590  23.460  0.00  0.00    +0.000 OA
BRANCH   9  12
ATOM     11  C   UNL     1      -1.317  11.614  21.933  0.00  0.00    +0.000 C 
ATOM     12  O   UNL     1      -1.006  10.719  23.001  0.00  0.00    +0.000 OA
ENDBRANCH   9  12
ENDBRANCH   8   9
ENDBRANCH   7   8
ENDBRANCH   1   7
BRANCH   4  13
ATOM     13  O   UNL     1       3.127   4.794  18.575  0.00  0.00    +0.000 OA
BRANCH  13  14
ATOM     14  C   UNL     1       4.413   4.782  18.054  0.00  0.00    +0.000 A 
ATOM     15  N   UNL     1       5.377   5.194  18.890  0.00  0.00    +0.000 NA
ATOM     16  C   UNL     1       6.626   5.246  18.386  0.00  0.00    +0.000 A 
ATOM     17  C   UNL     1       7.717   5.721  19.298  0.00  0.00    +0.000 C 
ATOM     18  C   UNL     1       6.915   4.904  17.077  0.00  0.00    +0.000 A 
ATOM     19  C   UNL     1       5.860   4.469  16.302  0.00  0.00    +0.000 A 
ATOM     20  C   UNL     1       6.040   4.105  14.860  0.00  0.00    +0.000 C 
ATOM     21  N   UNL     1       4.608   4.381  16.784  0.00  0.00    +0.000 NA
ENDBRANCH  13  14
ENDBRANCH   4  13
TORSDOF 6
ENDMDL
MODEL 4
REMARK VINA RESULT:      -6.6      3.958      8.455
REMARK  Name = 
REMARK  9 active torsions:
REMARK  status: ('A' for Active; 'I' for Inactive)
REMARK    1  A    between atoms: C_1  and  O_2
REMARK    2  A    between atoms: O_2  and  C_3
REMARK    3  A    between atoms: C_3  and  C_5
REMARK    4  A    between atoms: C_5  and  O_6
REMARK    5  A    between atoms: O_6  and  C_7
REMARK    6  A    between atoms: C_10  and  O_11
REMARK    7  A    between atoms: O_11  and  C_12
REMARK    8  A    between atoms: C_14  and  C_15
REMARK    9  A    between atoms: C_17  and  C_18
REMARK                            x       y       z     vdW  Elec       q    Type
REMARK                         _______ _______ _______ _____ _____    ______ ____
ROOT
ATOM      1  C   UNL     1       1.746   8.049  19.877  0.00  0.00    +0.000 A 
ATOM      2  C   UNL     1       1.784   6.806  20.511  0.00  0.00    +0.000 A 
ATOM      3  C   UNL     1       2.316   5.692  19.858  0.00  0.00    +0.000 A 
ATOM      4  C   UNL     1       2.793   5.813  18.554  0.00  0.00    +0.000 A 
ATOM      5  C   UNL     1       2.778   7.065  17.928  0.00  0.00    +0.000 A 
ATOM      6  C   UNL     1       2.229   8.175  18.576  0.00  0.00    +0.000 A 
ENDROOT
BRANCH   1   7
ATOM      7  O   UNL     1       1.199   9.060  20.612  0.00  0.00    +0.000 OA
BRANCH   7   8
ATOM      8  C   UNL     1       1.008   8.799  21.999  0.00  0.00    +0.000 C 
BRANCH   8   9
ATOM      9  C   UNL     1       0.076   9.849  22.582  0.00  0.00    +0.000 C 
ATOM     10  O   UNL     1      -0.095  10.083  23.772  0.00  0.00    +0.000 OA
BRANCH   9  12
ATOM     11  C   UNL     1      -0.479  11.945  21.709  0.00  0.00    +0.000 C 
ATOM     12  O   UNL     1      -0.543  10.526  21.566  0.00  0.00    +0.000 OA
ENDBRANCH   9  12
ENDBRANCH   8   9
ENDBRANCH   7   8
ENDBRANCH   1   7
BRANCH   4  13
ATOM     13  O   UNL     1       3.320   4.676  17.986  0.00  0.00    +0.000 OA
BRANCH  13  14
ATOM     14  C   UNL     1       4.627   4.721  17.523  0.00  0.00    +0.000 A 
ATOM     15  N   UNL     1       4.800   4.344  16.247  0.00  0.00    +0.000 NA
ATOM     16  C   UNL     1       6.070   4.324  15.795  0.00  0.00    +0.000 A 
ATOM     17  C   UNL     1       6.289   3.889  14.377  0.00  0.00    +0.000 C 
ATOM     18  C   UNL     1       7.149   4.664  16.592  0.00  0.00    +0.000 A 
ATOM     19  C   UNL     1       6.867   5.062  17.882  0.00  0.00    +0.000 A 
ATOM     20  C   UNL     1       7.952   5.419  18.851  0.00  0.00    +0.000 C 
ATOM     21  N   UNL     1       5.609   5.117  18.353  0.00  0.00    +0.000 NA
ENDBRANCH  13  14
ENDBRANCH   4  13
TORSDOF 6
ENDMDL
MODEL 5
REMARK VINA RESULT:      -6.6      3.984      8.369
REMARK  Name = 
REMARK  9 active torsions:
REMARK  status: ('A' for Active; 'I' for Inactive)
REMARK    1  A    between atoms: C_1  and  O_2
REMARK    2  A    between atoms: O_2  and  C_3
REMARK    3  A    between atoms: C_3  and  C_5
REMARK    4  A    between atoms: C_5  and  O_6
REMARK    5  A    between atoms: O_6  and  C_7
REMARK    6  A    between atoms: C_10  and  O_11
REMARK    7  A    between atoms: O_11  and  C_12
REMARK    8  A    between atoms: C_14  and  C_15
REMARK    9  A    between atoms: C_17  and  C_18
REMARK                            x       y       z     vdW  Elec       q    Type
REMARK                         _______ _______ _______ _____ _____    ______ ____
ROOT
ATOM      1  C   UNL     1       1.656   8.406  19.570  0.00  0.00    +0.000 A 
ATOM      2  C   UNL     1       2.165   8.171  18.291  0.00  0.00    +0.000 A 
ATOM      3  C   UNL     1       2.706   6.928  17.961  0.00  0.00    +0.000 A 
ATOM      4  C   UNL     1       2.761   5.917  18.919  0.00  0.00    +0.000 A 
ATOM      5  C   UNL     1       2.228   6.144  20.193  0.00  0.00    +0.000 A 
ATOM      6  C   UNL     1       1.702   7.395  20.528  0.00  0.00    +0.000 A 
ENDROOT
BRANCH   1   7
ATOM      7  O   UNL     1       1.159   9.660  19.776  0.00  0.00    +0.000 OA
BRANCH   7   8
ATOM      8  C   UNL     1       0.019   9.756  20.624  0.00  0.00    +0.000 C 
BRANCH   8   9
ATOM      9  C   UNL     1       0.361  10.620  21.827  0.00  0.00    +0.000 C 
ATOM     10  O   UNL     1       0.046  10.396  22.989  0.00  0.00    +0.000 OA
BRANCH   9  12
ATOM     11  C   UNL     1       0.328  12.864  21.174  0.00  0.00    +0.000 C 
ATOM     12  O   UNL     1       1.107  11.693  21.422  0.00  0.00    +0.000 OA
ENDBRANCH   9  12
ENDBRANCH   8   9
ENDBRANCH   7   8
ENDBRANCH   1   7
BRANCH   4  13
ATOM     13  O   UNL     1       3.290   4.713  18.511  0.00  0.00    +0.000 OA
BRANCH  13  14
ATOM     14  C   UNL     1       4.579   4.706  17.997  0.00  0.00    +0.000 A 
ATOM     15  N   UNL     1       5.531   5.166  18.822  0.00  0.00    +0.000 NA
ATOM     16  C   UNL     1       6.782   5.224  18.322  0.00  0.00    +0.000 A 
ATOM     17  C   UNL     1       7.859   5.752  19.220  0.00  0.00    +0.000 C 
ATOM     18  C   UNL     1       7.083   4.839  17.027  0.00  0.00    +0.000 A 
ATOM     19  C   UNL     1       6.041   4.356  16.264  0.00  0.00    +0.000 A 
ATOM     20  C   UNL     1       6.235   3.943  14.837  0.00  0.00    +0.000 C 
ATOM     21  N   UNL     1       4.788   4.262  16.744  0.00  0.00    +0.000 NA
ENDBRANCH  13  14
ENDBRANCH   4  13
TORSDOF 6
ENDMDL
MODEL 6
REMARK VINA RESULT:      -6.6      4.132      8.406
REMARK  Name = 
REMARK  9 active torsions:
REMARK  status: ('A' for Active; 'I' for Inactive)
REMARK    1  A    between atoms: C_1  and  O_2
REMARK    2  A    between atoms: O_2  and  C_3
REMARK    3  A    between atoms: C_3  and  C_5
REMARK    4  A    between atoms: C_5  and  O_6
REMARK    5  A    between atoms: O_6  and  C_7
REMARK    6  A    between atoms: C_10  and  O_11
REMARK    7  A    between atoms: O_11  and  C_12
REMARK    8  A    between atoms: C_14  and  C_15
REMARK    9  A    between atoms: C_17  and  C_18
REMARK                            x       y       z     vdW  Elec       q    Type
REMARK                         _______ _______ _______ _____ _____    ______ ____
ROOT
ATOM      1  C   UNL     1       1.644   8.702  19.289  0.00  0.00    +0.000 A 
ATOM      2  C   UNL     1       1.653   7.741  20.302  0.00  0.00    +0.000 A 
ATOM      3  C   UNL     1       2.229   6.487  20.086  0.00  0.00    +0.000 A 
ATOM      4  C   UNL     1       2.779   6.181  18.843  0.00  0.00    +0.000 A 
ATOM      5  C   UNL     1       2.792   7.153  17.835  0.00  0.00    +0.000 A 
ATOM      6  C   UNL     1       2.200   8.400  18.048  0.00  0.00    +0.000 A 
ENDROOT
BRANCH   1   7
ATOM      7  O   UNL     1       1.049   9.885  19.617  0.00  0.00    +0.000 OA
BRANCH   7   8
ATOM      8  C   UNL     1      -0.114   9.801  20.436  0.00  0.00    +0.000 C 
BRANCH   8   9
ATOM      9  C   UNL     1      -0.280  11.104  21.201  0.00  0.00    +0.000 C 
ATOM     10  O   UNL     1      -0.761  12.142  20.764  0.00  0.00    +0.000 OA
BRANCH   9  12
ATOM     11  C   UNL     1      -0.370   9.792  23.133  0.00  0.00    +0.000 C 
ATOM     12  O   UNL     1       0.171  10.942  22.483  0.00  0.00    +0.000 OA
ENDBRANCH   9  12
ENDBRANCH   8   9
ENDBRANCH   7   8
ENDBRANCH   1   7
BRANCH   4  13
ATOM     13  O   UNL     1       3.345   4.932  18.713  0.00  0.00    +0.000 OA
BRANCH  13  14
ATOM     14  C   UNL     1       4.621   4.845  18.174  0.00  0.00    +0.000 A 
ATOM     15  N   UNL     1       5.610   5.296  18.960  0.00  0.00    +0.000 NA
ATOM     16  C   UNL     1       6.851   5.276  18.433  0.00  0.00    +0.000 A 
ATOM     17  C   UNL     1       7.970   5.791  19.287  0.00  0.00    +0.000 C 
ATOM     18  C   UNL     1       7.107   4.824  17.151  0.00  0.00    +0.000 A 
ATOM     19  C   UNL     1       6.028   4.357  16.430  0.00  0.00    +0.000 A 
ATOM     20  C   UNL     1       6.172   3.876  15.018  0.00  0.00    +0.000 C 
ATOM     21  N   UNL     1       4.783   4.340  16.938  0.00  0.00    +0.000 NA
ENDBRANCH  13  14
ENDBRANCH   4  13
TORSDOF 6
ENDMDL
MODEL 7
REMARK VINA RESULT:      -6.6      0.897      2.191
REMARK  Name = 
REMARK  9 active torsions:
REMARK  status: ('A' for Active; 'I' for Inactive)
REMARK    1  A    between atoms: C_1  and  O_2
REMARK    2  A    between atoms: O_2  and  C_3
REMARK    3  A    between atoms: C_3  and  C_5
REMARK    4  A    between atoms: C_5  and  O_6
REMARK    5  A    between atoms: O_6  and  C_7
REMARK    6  A    between atoms: C_10  and  O_11
REMARK    7  A    between atoms: O_11  and  C_12
REMARK    8  A    between atoms: C_14  and  C_15
REMARK    9  A    between atoms: C_17  and  C_18
REMARK                            x       y       z     vdW  Elec       q    Type
REMARK                         _______ _______ _______ _____ _____    ______ ____
ROOT
ATOM      1  C   UNL     1       6.205   4.983  15.236  0.00  0.00    +0.000 A 
ATOM      2  C   UNL     1       4.986   4.409  15.605  0.00  0.00    +0.000 A 
ATOM      3  C   UNL     1       4.737   4.066  16.935  0.00  0.00    +0.000 A 
ATOM      4  C   UNL     1       5.719   4.275  17.902  0.00  0.00    +0.000 A 
ATOM      5  C   UNL     1       6.932   4.872  17.536  0.00  0.00    +0.000 A 
ATOM      6  C   UNL     1       7.186   5.199  16.202  0.00  0.00    +0.000 A 
ENDROOT
BRANCH   1   7
ATOM      7  O   UNL     1       6.334   5.269  13.909  0.00  0.00    +0.000 OA
BRANCH   7   8
ATOM      8  C   UNL     1       7.148   4.383  13.147  0.00  0.00    +0.000 C 
BRANCH   8   9
ATOM      9  C   UNL     1       6.257   3.470  12.321  0.00  0.00    +0.000 C 
ATOM     10  O   UNL     1       5.043   3.571  12.191  0.00  0.00    +0.000 OA
BRANCH   9  12
ATOM     11  C   UNL     1       6.253   1.459  11.131  0.00  0.00    +0.000 C 
ATOM     12  O   UNL     1       7.021   2.513  11.710  0.00  0.00    +0.000 OA
ENDBRANCH   9  12
ENDBRANCH   8   9
ENDBRANCH   7   8
ENDBRANCH   1   7
BRANCH   4  13
ATOM     13  O   UNL     1       5.392   3.929  19.194  0.00  0.00    +0.000 OA
BRANCH  13  14
ATOM     14  C   UNL     1       4.131   4.269  19.662  0.00  0.00    +0.000 A 
ATOM     15  N   UNL     1       3.770   5.547  19.469  0.00  0.00    +0.000 NA
ATOM     16  C   UNL     1       2.573   5.914  19.969  0.00  0.00    +0.000 A 
ATOM     17  C   UNL     1       2.157   7.342  19.781  0.00  0.00    +0.000 C 
ATOM     18  C   UNL     1       1.751   5.035  20.652  0.00  0.00    +0.000 A 
ATOM     19  C   UNL     1       2.198   3.736  20.778  0.00  0.00    +0.000 A 
ATOM     20  C   UNL     1       1.416   2.703  21.527  0.00  0.00    +0.000 C 
ATOM     21  N   UNL     1       3.376   3.334  20.267  0.00  0.00    +0.000 NA
ENDBRANCH  13  14
ENDBRANCH   4  13
TORSDOF 6
ENDMDL
MODEL 8
REMARK VINA RESULT:      -6.6      3.903      8.433
REMARK  Name = 
REMARK  9 active torsions:
REMARK  status: ('A' for Active; 'I' for Inactive)
REMARK    1  A    between atoms: C_1  and  O_2
REMARK    2  A    between atoms: O_2  and  C_3
REMARK    3  A    between atoms: C_3  and  C_5
REMARK    4  A    between atoms: C_5  and  O_6
REMARK    5  A    between atoms: O_6  and  C_7
REMARK    6  A    between atoms: C_10  and  O_11
REMARK    7  A    between atoms: O_11  and  C_12
REMARK    8  A    between atoms: C_14  and  C_15
REMARK    9  A    between atoms: C_17  and  C_18
REMARK                            x       y       z     vdW  Elec       q    Type
REMARK                         _______ _______ _______ _____ _____    ______ ____
ROOT
ATOM      1  C   UNL     1       1.666   7.548  20.162  0.00  0.00    +0.000 A 
ATOM      2  C   UNL     1       2.311   7.728  18.936  0.00  0.00    +0.000 A 
ATOM      3  C   UNL     1       2.871   6.642  18.262  0.00  0.00    +0.000 A 
ATOM      4  C   UNL     1       2.809   5.368  18.825  0.00  0.00    +0.000 A 
ATOM      5  C   UNL     1       2.141   5.183  20.041  0.00  0.00    +0.000 A 
ATOM      6  C   UNL     1       1.596   6.274  20.723  0.00  0.00    +0.000 A 
ENDROOT
BRANCH   1   7
ATOM      7  O   UNL     1       1.164   8.683  20.726  0.00  0.00    +0.000 OA
BRANCH   7   8
ATOM      8  C   UNL     1       0.039   8.517  21.585  0.00  0.00    +0.000 C 
BRANCH   8   9
ATOM      9  C   UNL     1      -0.120   9.759  22.446  0.00  0.00    +0.000 C 
ATOM     10  O   UNL     1       0.259   9.888  23.604  0.00  0.00    +0.000 OA
BRANCH   9  12
ATOM     11  C   UNL     1       0.031  11.940  21.619  0.00  0.00    +0.000 C 
ATOM     12  O   UNL     1      -0.739  10.742  21.723  0.00  0.00    +0.000 OA
ENDBRANCH   9  12
ENDBRANCH   8   9
ENDBRANCH   7   8
ENDBRANCH   1   7
BRANCH   4  13
ATOM     13  O   UNL     1       3.366   4.345  18.091  0.00  0.00    +0.000 OA
BRANCH  13  14
ATOM     14  C   UNL     1       4.651   4.520  17.597  0.00  0.00    +0.000 A 
ATOM     15  N   UNL     1       4.826   4.176  16.312  0.00  0.00    +0.000 NA
ATOM     16  C   UNL     1       6.080   4.282  15.828  0.00  0.00    +0.000 A 
ATOM     17  C   UNL     1       6.302   3.886  14.400  0.00  0.00    +0.000 C 
ATOM     18  C   UNL     1       7.142   4.714  16.603  0.00  0.00    +0.000 A 
ATOM     19  C   UNL     1       6.857   5.068  17.905  0.00  0.00    +0.000 A 
ATOM     20  C   UNL     1       7.928   5.515  18.852  0.00  0.00    +0.000 C 
ATOM     21  N   UNL     1       5.612   4.998  18.408  0.00  0.00    +0.000 NA
ENDBRANCH  13  14
ENDBRANCH   4  13
TORSDOF 6
ENDMDL
MODEL 9
REMARK VINA RESULT:      -6.6      3.067      7.278
REMARK  Name = 
REMARK  9 active torsions:
REMARK  status: ('A' for Active; 'I' for Inactive)
REMARK    1  A    between atoms: C_1  and  O_2
REMARK    2  A    between atoms: O_2  and  C_3
REMARK    3  A    between atoms: C_3  and  C_5
REMARK    4  A    between atoms: C_5  and  O_6
REMARK    5  A    between atoms: O_6  and  C_7
REMARK    6  A    between atoms: C_10  and  O_11
REMARK    7  A    between atoms: O_11  and  C_12
REMARK    8  A    between atoms: C_14  and  C_15
REMARK    9  A    between atoms: C_17  and  C_18
REMARK                            x       y       z     vdW  Elec       q    Type
REMARK                         _______ _______ _______ _____ _____    ______ ____
ROOT
ATOM      1  C   UNL     1       2.860   4.791  17.853  0.00  0.00    +0.000 A 
ATOM      2  C   UNL     1       3.243   3.613  17.209  0.00  0.00    +0.000 A 
ATOM      3  C   UNL     1       4.524   3.483  16.670  0.00  0.00    +0.000 A 
ATOM      4  C   UNL     1       5.424   4.544  16.753  0.00  0.00    +0.000 A 
ATOM      5  C   UNL     1       5.048   5.716  17.420  0.00  0.00    +0.000 A 
ATOM      6  C   UNL     1       3.760   5.851  17.944  0.00  0.00    +0.000 A 
ENDROOT
BRANCH   1   7
ATOM      7  O   UNL     1       1.583   4.802  18.334  0.00  0.00    +0.000 OA
BRANCH   7   8
ATOM      8  C   UNL     1       1.422   4.454  19.706  0.00  0.00    +0.000 C 
BRANCH   8   9
ATOM      9  C   UNL     1       0.934   3.018  19.803  0.00  0.00    +0.000 C 
ATOM     10  O   UNL     1       0.209   2.445  18.997  0.00  0.00    +0.000 OA
BRANCH   9  12
ATOM     11  C   UNL     1       2.163   3.346  21.763  0.00  0.00    +0.000 C 
ATOM     12  O   UNL     1       1.447   2.435  20.930  0.00  0.00    +0.000 OA
ENDBRANCH   9  12
ENDBRANCH   8   9
ENDBRANCH   7   8
ENDBRANCH   1   7
BRANCH   4  13
ATOM     13  O   UNL     1       6.673   4.332  16.215  0.00  0.00    +0.000 OA
BRANCH  13  14
ATOM     14  C   UNL     1       6.818   4.431  14.839  0.00  0.00    +0.000 A 
ATOM     15  N   UNL     1       6.038   3.614  14.117  0.00  0.00    +0.000 NA
ATOM     16  C   UNL     1       6.205   3.650  12.780  0.00  0.00    +0.000 A 
ATOM     17  C   UNL     1       5.355   2.732  11.954  0.00  0.00    +0.000 C 
ATOM     18  C   UNL     1       7.132   4.476  12.169  0.00  0.00    +0.000 A 
ATOM     19  C   UNL     1       7.870   5.299  12.994  0.00  0.00    +0.000 A 
ATOM     20  C   UNL     1       8.929   6.210  12.454  0.00  0.00    +0.000 C 
ATOM     21  N   UNL     1       7.708   5.303  14.329  0.00  0.00    +0.000 NA
ENDBRANCH  13  14
ENDBRANCH   4  13
TORSDOF 6
ENDMDL
