MODEL 1
REMARK VINA RESULT:      -8.7      0.000      0.000
REMARK  Name = 
REMARK  4 active torsions:
REMARK  status: ('A' for Active; 'I' for Inactive)
REMARK    1  A    between atoms: C_2  and  C_11
REMARK    2  A    between atoms: N_3  and  C_4
REMARK    3  A    between atoms: C_15  and  S_16
REMARK    4  A    between atoms: S_16  and  N_19
REMARK                            x       y       z     vdW  Elec       q    Type
REMARK                         _______ _______ _______ _____ _____    ______ ____
ROOT
ATOM      1  C   UNL     1       3.163   5.004  19.873  0.00  0.00    +0.000 A 
ATOM      2  C   UNL     1       2.948   3.622  19.833  0.00  0.00    +0.000 A 
ATOM      3  C   UNL     1       3.962   2.779  19.380  0.00  0.00    +0.000 A 
ATOM      4  C   UNL     1       5.183   3.312  18.957  0.00  0.00    +0.000 A 
ATOM      5  C   UNL     1       5.383   4.697  18.972  0.00  0.00    +0.000 A 
ATOM      6  C   UNL     1       4.382   5.546  19.438  0.00  0.00    +0.000 A 
ENDROOT
BRANCH   1   8
ATOM      7  O   UNL     1       1.059   5.447  20.724  0.00  0.00    +0.000 OA
ATOM      8  C   UNL     1       2.107   5.943  20.316  0.00  0.00    +0.000 C 
ATOM      9  N   UNL     1       2.382   7.292  20.164  0.00  0.00    +0.000 N 
ATOM     10  H   UNL     1       3.199   7.549  19.629  0.00  0.00    +0.000 HD
BRANCH   9  11
ATOM     11  C   UNL     1       1.483   8.334  20.482  0.00  0.00    +0.000 A 
ATOM     12  C   UNL     1       0.964   9.200  19.518  0.00  0.00    +0.000 A 
ATOM     13  C   UNL     1       0.152  10.275  19.885  0.00  0.00    +0.000 A 
ATOM     14  C   UNL     1      -0.155  10.480  21.222  0.00  0.00    +0.000 A 
ATOM     15 CL   UNL     1      -1.115  11.832  21.676  0.00  0.00    +0.000 Cl
ATOM     16  C   UNL     1       0.319   9.599  22.194  0.00  0.00    +0.000 A 
ATOM     17  C   UNL     1       1.124   8.515  21.823  0.00  0.00    +0.000 A 
ENDBRANCH   9  11
ENDBRANCH   1   8
BRANCH   5  18
ATOM     18  S   UNL     1       6.966   5.360  18.496  0.00  0.00    +0.000 S 
ATOM     19  O   UNL     1       7.405   6.272  19.532  0.00  0.00    +0.000 OA
ATOM     20  O   UNL     1       7.786   4.232  18.106  0.00  0.00    +0.000 OA
BRANCH  18  21
ATOM     21  N   UNL     1       6.658   6.228  17.084  0.00  0.00    +0.000 N 
ATOM     22  C   UNL     1       6.476   5.479  15.911  0.00  0.00    +0.000 A 
ATOM     23  C   UNL     1       5.256   4.935  15.540  0.00  0.00    +0.000 A 
ATOM     24  C   UNL     1       5.183   4.281  14.309  0.00  0.00    +0.000 A 
ATOM     25  C   UNL     1       6.330   4.177  13.529  0.00  0.00    +0.000 A 
ATOM     26 CL   UNL     1       6.286   3.412  11.994  0.00  0.00    +0.000 Cl
ATOM     27  C   UNL     1       7.507   4.734  14.009  0.00  0.00    +0.000 A 
ATOM     28  N   UNL     1       7.604   5.397  15.186  0.00  0.00    +0.000 NA
ATOM     29  H   UNL     1       7.398   6.911  16.937  0.00  0.00    +0.000 HD
ENDBRANCH  18  21
ENDBRANCH   5  18
TORSDOF 4
ENDMDL
MODEL 2
REMARK VINA RESULT:      -8.6      5.774      7.569
REMARK  Name = 
REMARK  4 active torsions:
REMARK  status: ('A' for Active; 'I' for Inactive)
REMARK    1  A    between atoms: C_2  and  C_11
REMARK    2  A    between atoms: N_3  and  C_4
REMARK    3  A    between atoms: C_15  and  S_16
REMARK    4  A    between atoms: S_16  and  N_19
REMARK                            x       y       z     vdW  Elec       q    Type
REMARK                         _______ _______ _______ _____ _____    ______ ____
ROOT
ATOM      1  C   UNL     1       7.916   7.814  18.289  0.00  0.00    +0.000 A 
ATOM      2  C   UNL     1       8.496   6.874  19.148  0.00  0.00    +0.000 A 
ATOM      3  C   UNL     1       8.018   5.564  19.159  0.00  0.00    +0.000 A 
ATOM      4  C   UNL     1       6.959   5.195  18.326  0.00  0.00    +0.000 A 
ATOM      5  C   UNL     1       6.363   6.145  17.489  0.00  0.00    +0.000 A 
ATOM      6  C   UNL     1       6.844   7.452  17.458  0.00  0.00    +0.000 A 
ENDROOT
BRANCH   1   8
ATOM      7  O   UNL     1       7.893   9.942  17.383  0.00  0.00    +0.000 OA
ATOM      8  C   UNL     1       8.367   9.225  18.262  0.00  0.00    +0.000 C 
ATOM      9  N   UNL     1       9.329   9.580  19.192  0.00  0.00    +0.000 N 
ATOM     10  H   UNL     1       9.773   8.840  19.718  0.00  0.00    +0.000 HD
BRANCH   9  11
ATOM     11  C   UNL     1       9.916  10.861  19.288  0.00  0.00    +0.000 A 
ATOM     12  C   UNL     1      10.475  11.517  18.189  0.00  0.00    +0.000 A 
ATOM     13  C   UNL     1      11.129  12.741  18.343  0.00  0.00    +0.000 A 
ATOM     14  C   UNL     1      11.215  13.320  19.600  0.00  0.00    +0.000 A 
ATOM     15 CL   UNL     1      12.063  14.804  19.795  0.00  0.00    +0.000 Cl
ATOM     16  C   UNL     1      10.625  12.701  20.701  0.00  0.00    +0.000 A 
ATOM     17  C   UNL     1       9.960  11.479  20.543  0.00  0.00    +0.000 A 
ENDBRANCH   9  11
ENDBRANCH   1   8
BRANCH   5  18
ATOM     18  S   UNL     1       5.061   5.647  16.382  0.00  0.00    +0.000 S 
ATOM     19  O   UNL     1       5.245   6.341  15.125  0.00  0.00    +0.000 OA
ATOM     20  O   UNL     1       5.009   4.200  16.430  0.00  0.00    +0.000 OA
BRANCH  18  21
ATOM     21  N   UNL     1       3.645   6.193  17.117  0.00  0.00    +0.000 N 
ATOM     22  C   UNL     1       3.119   5.393  18.144  0.00  0.00    +0.000 A 
ATOM     23  C   UNL     1       3.535   5.480  19.463  0.00  0.00    +0.000 A 
ATOM     24  C   UNL     1       2.878   4.689  20.407  0.00  0.00    +0.000 A 
ATOM     25  C   UNL     1       1.866   3.834  19.985  0.00  0.00    +0.000 A 
ATOM     26 CL   UNL     1       1.005   2.865  21.110  0.00  0.00    +0.000 Cl
ATOM     27  C   UNL     1       1.547   3.804  18.635  0.00  0.00    +0.000 A 
ATOM     28  N   UNL     1       2.147   4.578  17.699  0.00  0.00    +0.000 NA
ATOM     29  H   UNL     1       2.931   6.344  16.408  0.00  0.00    +0.000 HD
ENDBRANCH  18  21
ENDBRANCH   5  18
TORSDOF 4
ENDMDL
MODEL 3
REMARK VINA RESULT:      -8.6      5.551      7.147
REMARK  Name = 
REMARK  4 active torsions:
REMARK  status: ('A' for Active; 'I' for Inactive)
REMARK    1  A    between atoms: C_2  and  C_11
REMARK    2  A    between atoms: N_3  and  C_4
REMARK    3  A    between atoms: C_15  and  S_16
REMARK    4  A    between atoms: S_16  and  N_19
REMARK                            x       y       z     vdW  Elec       q    Type
REMARK                         _______ _______ _______ _____ _____    ______ ____
ROOT
ATOM      1  C   UNL     1       8.000   7.477  18.286  0.00  0.00    +0.000 A 
ATOM      2  C   UNL     1       8.473   6.648  19.309  0.00  0.00    +0.000 A 
ATOM      3  C   UNL     1       8.176   5.285  19.284  0.00  0.00    +0.000 A 
ATOM      4  C   UNL     1       7.404   4.753  18.248  0.00  0.00    +0.000 A 
ATOM      5  C   UNL     1       6.910   5.591  17.242  0.00  0.00    +0.000 A 
ATOM      6  C   UNL     1       7.213   6.951  17.250  0.00  0.00    +0.000 A 
ENDROOT
BRANCH   1   8
ATOM      7  O   UNL     1       7.635   9.610  17.469  0.00  0.00    +0.000 OA
ATOM      8  C   UNL     1       8.260   8.935  18.285  0.00  0.00    +0.000 C 
ATOM      9  N   UNL     1       9.233   9.386  19.160  0.00  0.00    +0.000 N 
ATOM     10  H   UNL     1       9.806   8.696  19.625  0.00  0.00    +0.000 HD
BRANCH   9  11
ATOM     11  C   UNL     1       9.654  10.730  19.267  0.00  0.00    +0.000 A 
ATOM     12  C   UNL     1      10.224  11.427  18.200  0.00  0.00    +0.000 A 
ATOM     13  C   UNL     1      10.713  12.724  18.371  0.00  0.00    +0.000 A 
ATOM     14  C   UNL     1      10.621  13.334  19.614  0.00  0.00    +0.000 A 
ATOM     15 CL   UNL     1      11.268  14.912  19.835  0.00  0.00    +0.000 Cl
ATOM     16  C   UNL     1      10.016  12.670  20.680  0.00  0.00    +0.000 A 
ATOM     17  C   UNL     1       9.516  11.373  20.503  0.00  0.00    +0.000 A 
ENDBRANCH   9  11
ENDBRANCH   1   8
BRANCH   5  18
ATOM     18  S   UNL     1       5.984   4.891  15.892  0.00  0.00    +0.000 S 
ATOM     19  O   UNL     1       4.950   5.832  15.516  0.00  0.00    +0.000 OA
ATOM     20  O   UNL     1       6.955   4.429  14.921  0.00  0.00    +0.000 OA
BRANCH  18  21
ATOM     21  N   UNL     1       5.270   3.507  16.537  0.00  0.00    +0.000 N 
ATOM     22  C   UNL     1       4.147   3.701  17.357  0.00  0.00    +0.000 A 
ATOM     23  C   UNL     1       2.859   3.825  16.861  0.00  0.00    +0.000 A 
ATOM     24  C   UNL     1       1.815   3.932  17.782  0.00  0.00    +0.000 A 
ATOM     25  C   UNL     1       2.110   3.939  19.141  0.00  0.00    +0.000 A 
ATOM     26 CL   UNL     1       0.861   4.034  20.314  0.00  0.00    +0.000 Cl
ATOM     27  C   UNL     1       3.439   3.836  19.529  0.00  0.00    +0.000 A 
ATOM     28  N   UNL     1       4.471   3.705  18.661  0.00  0.00    +0.000 NA
ATOM     29  H   UNL     1       5.970   2.969  17.045  0.00  0.00    +0.000 HD
ENDBRANCH  18  21
ENDBRANCH   5  18
TORSDOF 4
ENDMDL
MODEL 4
REMARK VINA RESULT:      -8.3      1.131      1.388
REMARK  Name = 
REMARK  4 active torsions:
REMARK  status: ('A' for Active; 'I' for Inactive)
REMARK    1  A    between atoms: C_2  and  C_11
REMARK    2  A    between atoms: N_3  and  C_4
REMARK    3  A    between atoms: C_15  and  S_16
REMARK    4  A    between atoms: S_16  and  N_19
REMARK                            x       y       z     vdW  Elec       q    Type
REMARK                         _______ _______ _______ _____ _____    ______ ____
ROOT
ATOM      1  C   UNL     1       2.592   6.283  19.944  0.00  0.00    +0.000 A 
ATOM      2  C   UNL     1       1.998   5.057  20.264  0.00  0.00    +0.000 A 
ATOM      3  C   UNL     1       2.727   3.878  20.108  0.00  0.00    +0.000 A 
ATOM      4  C   UNL     1       4.038   3.919  19.626  0.00  0.00    +0.000 A 
ATOM      5  C   UNL     1       4.617   5.145  19.281  0.00  0.00    +0.000 A 
ATOM      6  C   UNL     1       3.904   6.330  19.448  0.00  0.00    +0.000 A 
ENDROOT
BRANCH   1   8
ATOM      7  O   UNL     1       1.798   8.266  19.057  0.00  0.00    +0.000 OA
ATOM      8  C   UNL     1       1.850   7.559  20.062  0.00  0.00    +0.000 C 
ATOM      9  N   UNL     1       1.343   7.862  21.314  0.00  0.00    +0.000 N 
ATOM     10  H   UNL     1       1.635   7.287  22.092  0.00  0.00    +0.000 HD
BRANCH   9  11
ATOM     11  C   UNL     1       0.653   9.052  21.633  0.00  0.00    +0.000 A 
ATOM     12  C   UNL     1       0.833  10.240  20.921  0.00  0.00    +0.000 A 
ATOM     13  C   UNL     1       0.203  11.419  21.325  0.00  0.00    +0.000 A 
ATOM     14  C   UNL     1      -0.621  11.410  22.440  0.00  0.00    +0.000 A 
ATOM     15 CL   UNL     1      -1.357  12.873  22.964  0.00  0.00    +0.000 Cl
ATOM     16  C   UNL     1      -0.847  10.224  23.138  0.00  0.00    +0.000 A 
ATOM     17  C   UNL     1      -0.223   9.040  22.725  0.00  0.00    +0.000 A 
ENDBRANCH   9  11
ENDBRANCH   1   8
BRANCH   5  18
ATOM     18  S   UNL     1       6.311   5.193  18.733  0.00  0.00    +0.000 S 
ATOM     19  O   UNL     1       7.097   5.861  19.750  0.00  0.00    +0.000 OA
ATOM     20  O   UNL     1       6.643   3.851  18.302  0.00  0.00    +0.000 OA
BRANCH  18  21
ATOM     21  N   UNL     1       6.282   6.141  17.340  0.00  0.00    +0.000 N 
ATOM     22  C   UNL     1       6.255   5.459  16.113  0.00  0.00    +0.000 A 
ATOM     23  C   UNL     1       5.085   5.006  15.523  0.00  0.00    +0.000 A 
ATOM     24  C   UNL     1       5.180   4.413  14.262  0.00  0.00    +0.000 A 
ATOM     25  C   UNL     1       6.432   4.277  13.671  0.00  0.00    +0.000 A 
ATOM     26 CL   UNL     1       6.599   3.586  12.110  0.00  0.00    +0.000 Cl
ATOM     27  C   UNL     1       7.542   4.740  14.363  0.00  0.00    +0.000 A 
ATOM     28  N   UNL     1       7.480   5.343  15.575  0.00  0.00    +0.000 NA
ATOM     29  H   UNL     1       7.070   6.785  17.350  0.00  0.00    +0.000 HD
ENDBRANCH  18  21
ENDBRANCH   5  18
TORSDOF 4
ENDMDL
MODEL 5
REMARK VINA RESULT:      -8.3      0.986      1.379
REMARK  Name = 
REMARK  4 active torsions:
REMARK  status: ('A' for Active; 'I' for Inactive)
REMARK    1  A    between atoms: C_2  and  C_11
REMARK    2  A    between atoms: N_3  and  C_4
REMARK    3  A    between atoms: C_15  and  S_16
REMARK    4  A    between atoms: S_16  and  N_19
REMARK                            x       y       z     vdW  Elec       q    Type
REMARK                         _______ _______ _______ _____ _____    ______ ____
ROOT
ATOM      1  C   UNL     1       2.897   5.228  19.250  0.00  0.00    +0.000 A 
ATOM      2  C   UNL     1       2.503   3.927  18.919  0.00  0.00    +0.000 A 
ATOM      3  C   UNL     1       3.318   3.148  18.098  0.00  0.00    +0.000 A 
ATOM      4  C   UNL     1       4.516   3.667  17.600  0.00  0.00    +0.000 A 
ATOM      5  C   UNL     1       4.892   4.979  17.911  0.00  0.00    +0.000 A 
ATOM      6  C   UNL     1       4.093   5.760  18.744  0.00  0.00    +0.000 A 
ENDROOT
BRANCH   1   8
ATOM      7  O   UNL     1       1.259   5.551  20.851  0.00  0.00    +0.000 OA
ATOM      8  C   UNL     1       2.052   6.105  20.092  0.00  0.00    +0.000 C 
ATOM      9  N   UNL     1       2.193   7.468  19.893  0.00  0.00    +0.000 N 
ATOM     10  H   UNL     1       2.734   7.775  19.097  0.00  0.00    +0.000 HD
BRANCH   9  11
ATOM     11  C   UNL     1       1.441   8.458  20.564  0.00  0.00    +0.000 A 
ATOM     12  C   UNL     1       1.324   8.500  21.955  0.00  0.00    +0.000 A 
ATOM     13  C   UNL     1       0.496   9.437  22.576  0.00  0.00    +0.000 A 
ATOM     14  C   UNL     1      -0.211  10.347  21.803  0.00  0.00    +0.000 A 
ATOM     15 CL   UNL     1      -1.267  11.469  22.567  0.00  0.00    +0.000 Cl
ATOM     16  C   UNL     1      -0.072  10.349  20.416  0.00  0.00    +0.000 A 
ATOM     17  C   UNL     1       0.767   9.415  19.796  0.00  0.00    +0.000 A 
ENDBRANCH   9  11
ENDBRANCH   1   8
BRANCH   5  18
ATOM     18  S   UNL     1       6.453   5.607  17.327  0.00  0.00    +0.000 S 
ATOM     19  O   UNL     1       6.841   6.715  18.176  0.00  0.00    +0.000 OA
ATOM     20  O   UNL     1       7.322   4.461  17.160  0.00  0.00    +0.000 OA
BRANCH  18  21
ATOM     21  N   UNL     1       6.128   6.181  15.776  0.00  0.00    +0.000 N 
ATOM     22  C   UNL     1       6.313   5.278  14.718  0.00  0.00    +0.000 A 
ATOM     23  C   UNL     1       5.342   4.376  14.311  0.00  0.00    +0.000 A 
ATOM     24  C   UNL     1       5.615   3.586  13.193  0.00  0.00    +0.000 A 
ATOM     25  C   UNL     1       6.846   3.714  12.559  0.00  0.00    +0.000 A 
ATOM     26 CL   UNL     1       7.218   2.791  11.161  0.00  0.00    +0.000 Cl
ATOM     27  C   UNL     1       7.758   4.629  13.066  0.00  0.00    +0.000 A 
ATOM     28  N   UNL     1       7.513   5.428  14.132  0.00  0.00    +0.000 NA
ATOM     29  H   UNL     1       6.677   7.021  15.603  0.00  0.00    +0.000 HD
ENDBRANCH  18  21
ENDBRANCH   5  18
TORSDOF 4
ENDMDL
MODEL 6
REMARK VINA RESULT:      -8.3      1.103      1.139
REMARK  Name = 
REMARK  4 active torsions:
REMARK  status: ('A' for Active; 'I' for Inactive)
REMARK    1  A    between atoms: C_2  and  C_11
REMARK    2  A    between atoms: N_3  and  C_4
REMARK    3  A    between atoms: C_15  and  S_16
REMARK    4  A    between atoms: S_16  and  N_19
REMARK                            x       y       z     vdW  Elec       q    Type
REMARK                         _______ _______ _______ _____ _____    ______ ____
ROOT
ATOM      1  C   UNL     1       3.379   5.993  19.167  0.00  0.00    +0.000 A 
ATOM      2  C   UNL     1       3.196   4.728  19.736  0.00  0.00    +0.000 A 
ATOM      3  C   UNL     1       4.197   3.765  19.611  0.00  0.00    +0.000 A 
ATOM      4  C   UNL     1       5.372   4.058  18.914  0.00  0.00    +0.000 A 
ATOM      5  C   UNL     1       5.539   5.315  18.322  0.00  0.00    +0.000 A 
ATOM      6  C   UNL     1       4.552   6.290  18.455  0.00  0.00    +0.000 A 
ENDROOT
BRANCH   1   8
ATOM      7  O   UNL     1       1.826   7.396  18.183  0.00  0.00    +0.000 OA
ATOM      8  C   UNL     1       2.334   7.039  19.245  0.00  0.00    +0.000 C 
ATOM      9  N   UNL     1       2.078   7.560  20.502  0.00  0.00    +0.000 N 
ATOM     10  H   UNL     1       2.711   7.317  21.251  0.00  0.00    +0.000 HD
BRANCH   9  11
ATOM     11  C   UNL     1       1.155   8.595  20.768  0.00  0.00    +0.000 A 
ATOM     12  C   UNL     1       1.064   9.743  19.977  0.00  0.00    +0.000 A 
ATOM     13  C   UNL     1       0.204  10.786  20.326  0.00  0.00    +0.000 A 
ATOM     14  C   UNL     1      -0.579  10.678  21.466  0.00  0.00    +0.000 A 
ATOM     15 CL   UNL     1      -1.601  11.984  21.921  0.00  0.00    +0.000 Cl
ATOM     16  C   UNL     1      -0.533   9.522  22.244  0.00  0.00    +0.000 A 
ATOM     17  C   UNL     1       0.322   8.472  21.886  0.00  0.00    +0.000 A 
ENDBRANCH   9  11
ENDBRANCH   1   8
BRANCH   5  18
ATOM     18  S   UNL     1       7.068   5.700  17.495  0.00  0.00    +0.000 S 
ATOM     19  O   UNL     1       7.731   6.753  18.236  0.00  0.00    +0.000 OA
ATOM     20  O   UNL     1       7.732   4.438  17.245  0.00  0.00    +0.000 OA
BRANCH  18  21
ATOM     21  N   UNL     1       6.599   6.291  15.987  0.00  0.00    +0.000 N 
ATOM     22  C   UNL     1       6.517   5.358  14.942  0.00  0.00    +0.000 A 
ATOM     23  C   UNL     1       5.393   4.583  14.704  0.00  0.00    +0.000 A 
ATOM     24  C   UNL     1       5.402   3.749  13.583  0.00  0.00    +0.000 A 
ATOM     25  C   UNL     1       6.537   3.710  12.779  0.00  0.00    +0.000 A 
ATOM     26 CL   UNL     1       6.587   2.728  11.373  0.00  0.00    +0.000 Cl
ATOM     27  C   UNL     1       7.619   4.507  13.125  0.00  0.00    +0.000 A 
ATOM     28  N   UNL     1       7.630   5.345  14.190  0.00  0.00    +0.000 NA
ATOM     29  H   UNL     1       7.219   7.051  15.713  0.00  0.00    +0.000 HD
ENDBRANCH  18  21
ENDBRANCH   5  18
TORSDOF 4
ENDMDL
MODEL 7
REMARK VINA RESULT:      -8.3      5.970      7.613
REMARK  Name = 
REMARK  4 active torsions:
REMARK  status: ('A' for Active; 'I' for Inactive)
REMARK    1  A    between atoms: C_2  and  C_11
REMARK    2  A    between atoms: N_3  and  C_4
REMARK    3  A    between atoms: C_15  and  S_16
REMARK    4  A    between atoms: S_16  and  N_19
REMARK                            x       y       z     vdW  Elec       q    Type
REMARK                         _______ _______ _______ _____ _____    ______ ____
ROOT
ATOM      1  C   UNL     1       8.014   8.115  18.343  0.00  0.00    +0.000 A 
ATOM      2  C   UNL     1       8.609   7.085  19.079  0.00  0.00    +0.000 A 
ATOM      3  C   UNL     1       8.070   5.799  19.024  0.00  0.00    +0.000 A 
ATOM      4  C   UNL     1       6.938   5.544  18.247  0.00  0.00    +0.000 A 
ATOM      5  C   UNL     1       6.329   6.584  17.534  0.00  0.00    +0.000 A 
ATOM      6  C   UNL     1       6.869   7.868  17.570  0.00  0.00    +0.000 A 
ENDROOT
BRANCH   1   8
ATOM      7  O   UNL     1       8.164  10.262  17.497  0.00  0.00    +0.000 OA
ATOM      8  C   UNL     1       8.527   9.503  18.393  0.00  0.00    +0.000 C 
ATOM      9  N   UNL     1       9.421   9.791  19.411  0.00  0.00    +0.000 N 
ATOM     10  H   UNL     1       9.784   9.019  19.952  0.00  0.00    +0.000 HD
BRANCH   9  11
ATOM     11  C   UNL     1      10.055  11.040  19.592  0.00  0.00    +0.000 A 
ATOM     12  C   UNL     1       9.551  12.022  20.449  0.00  0.00    +0.000 A 
ATOM     13  C   UNL     1      10.154  13.278  20.530  0.00  0.00    +0.000 A 
ATOM     14  C   UNL     1      11.274  13.554  19.759  0.00  0.00    +0.000 A 
ATOM     15 CL   UNL     1      11.986  15.118  19.824  0.00  0.00    +0.000 Cl
ATOM     16  C   UNL     1      11.817  12.572  18.931  0.00  0.00    +0.000 A 
ATOM     17  C   UNL     1      11.217  11.308  18.860  0.00  0.00    +0.000 A 
ENDBRANCH   9  11
ENDBRANCH   1   8
BRANCH   5  18
ATOM     18  S   UNL     1       4.928   6.233  16.494  0.00  0.00    +0.000 S 
ATOM     19  O   UNL     1       3.802   7.007  16.973  0.00  0.00    +0.000 OA
ATOM     20  O   UNL     1       5.387   6.360  15.126  0.00  0.00    +0.000 OA
BRANCH  18  21
ATOM     21  N   UNL     1       4.619   4.593  16.734  0.00  0.00    +0.000 N 
ATOM     22  C   UNL     1       3.652   4.268  17.698  0.00  0.00    +0.000 A 
ATOM     23  C   UNL     1       2.294   4.223  17.425  0.00  0.00    +0.000 A 
ATOM     24  C   UNL     1       1.438   3.807  18.446  0.00  0.00    +0.000 A 
ATOM     25  C   UNL     1       1.974   3.488  19.690  0.00  0.00    +0.000 A 
ATOM     26 CL   UNL     1       0.970   2.939  20.968  0.00  0.00    +0.000 Cl
ATOM     27  C   UNL     1       3.347   3.594  19.864  0.00  0.00    +0.000 A 
ATOM     28  N   UNL     1       4.205   3.969  18.885  0.00  0.00    +0.000 NA
ATOM     29  H   UNL     1       5.489   4.112  16.954  0.00  0.00    +0.000 HD
ENDBRANCH  18  21
ENDBRANCH   5  18
TORSDOF 4
ENDMDL
MODEL 8
REMARK VINA RESULT:      -8.2      4.776      9.043
REMARK  Name = 
REMARK  4 active torsions:
REMARK  status: ('A' for Active; 'I' for Inactive)
REMARK    1  A    between atoms: C_2  and  C_11
REMARK    2  A    between atoms: N_3  and  C_4
REMARK    3  A    between atoms: C_15  and  S_16
REMARK    4  A    between atoms: S_16  and  N_19
REMARK                            x       y       z     vdW  Elec       q    Type
REMARK                         _______ _______ _______ _____ _____    ______ ____
ROOT
ATOM      1  C   UNL     1       1.335   8.900  19.406  0.00  0.00    +0.000 A 
ATOM      2  C   UNL     1       1.357   8.494  20.744  0.00  0.00    +0.000 A 
ATOM      3  C   UNL     1       0.536   9.134  21.673  0.00  0.00    +0.000 A 
ATOM      4  C   UNL     1      -0.297  10.181  21.270  0.00  0.00    +0.000 A 
ATOM      5  C   UNL     1      -0.295  10.603  19.936  0.00  0.00    +0.000 A 
ATOM      6  C   UNL     1       0.509   9.960  18.998  0.00  0.00    +0.000 A 
ENDROOT
BRANCH   1   8
ATOM      7  O   UNL     1       2.284   8.837  17.298  0.00  0.00    +0.000 OA
ATOM      8  C   UNL     1       2.210   8.274  18.389  0.00  0.00    +0.000 C 
ATOM      9  N   UNL     1       2.809   7.078  18.746  0.00  0.00    +0.000 N 
ATOM     10  H   UNL     1       2.499   6.632  19.598  0.00  0.00    +0.000 HD
BRANCH   9  11
ATOM     11  C   UNL     1       3.635   6.310  17.896  0.00  0.00    +0.000 A 
ATOM     12  C   UNL     1       4.686   6.867  17.164  0.00  0.00    +0.000 A 
ATOM     13  C   UNL     1       5.420   6.093  16.264  0.00  0.00    +0.000 A 
ATOM     14  C   UNL     1       5.112   4.750  16.102  0.00  0.00    +0.000 A 
ATOM     15 CL   UNL     1       5.985   3.811  14.957  0.00  0.00    +0.000 Cl
ATOM     16  C   UNL     1       4.094   4.167  16.855  0.00  0.00    +0.000 A 
ATOM     17  C   UNL     1       3.366   4.943  17.766  0.00  0.00    +0.000 A 
ENDBRANCH   9  11
ENDBRANCH   1   8
BRANCH   5  18
ATOM     18  S   UNL     1      -1.410  11.892  19.421  0.00  0.00    +0.000 S 
ATOM     19  O   UNL     1      -1.674  12.745  20.562  0.00  0.00    +0.000 OA
ATOM     20  O   UNL     1      -0.869  12.441  18.195  0.00  0.00    +0.000 OA
BRANCH  18  21
ATOM     21  N   UNL     1      -2.826  11.085  18.990  0.00  0.00    +0.000 N 
ATOM     22  C   UNL     1      -2.983  10.769  17.632  0.00  0.00    +0.000 A 
ATOM     23  C   UNL     1      -2.457   9.626  17.052  0.00  0.00    +0.000 A 
ATOM     24  C   UNL     1      -2.752   9.381  15.710  0.00  0.00    +0.000 A 
ATOM     25  C   UNL     1      -3.527  10.300  15.010  0.00  0.00    +0.000 A 
ATOM     26 CL   UNL     1      -3.945  10.030  13.367  0.00  0.00    +0.000 Cl
ATOM     27  C   UNL     1      -3.980  11.427  15.680  0.00  0.00    +0.000 A 
ATOM     28  N   UNL     1      -3.734  11.679  16.988  0.00  0.00    +0.000 NA
ATOM     29  H   UNL     1      -3.632  11.619  19.309  0.00  0.00    +0.000 HD
ENDBRANCH  18  21
ENDBRANCH   5  18
TORSDOF 4
ENDMDL
MODEL 9
REMARK VINA RESULT:      -8.2      5.468      7.128
REMARK  Name = 
REMARK  4 active torsions:
REMARK  status: ('A' for Active; 'I' for Inactive)
REMARK    1  A    between atoms: C_2  and  C_11
REMARK    2  A    between atoms: N_3  and  C_4
REMARK    3  A    between atoms: C_15  and  S_16
REMARK    4  A    between atoms: S_16  and  N_19
REMARK                            x       y       z     vdW  Elec       q    Type
REMARK                         _______ _______ _______ _____ _____    ______ ____
ROOT
ATOM      1  C   UNL     1       8.038   7.519  18.248  0.00  0.00    +0.000 A 
ATOM      2  C   UNL     1       8.366   6.681  19.319  0.00  0.00    +0.000 A 
ATOM      3  C   UNL     1       8.060   5.322  19.249  0.00  0.00    +0.000 A 
ATOM      4  C   UNL     1       7.421   4.802  18.120  0.00  0.00    +0.000 A 
ATOM      5  C   UNL     1       7.069   5.650  17.063  0.00  0.00    +0.000 A 
ATOM      6  C   UNL     1       7.385   7.005  17.117  0.00  0.00    +0.000 A 
ENDROOT
BRANCH   1   8
ATOM      7  O   UNL     1       7.759   9.666  17.435  0.00  0.00    +0.000 OA
ATOM      8  C   UNL     1       8.313   8.974  18.287  0.00  0.00    +0.000 C 
ATOM      9  N   UNL     1       9.220   9.402  19.242  0.00  0.00    +0.000 N 
ATOM     10  H   UNL     1       9.748   8.699  19.739  0.00  0.00    +0.000 HD
BRANCH   9  11
ATOM     11  C   UNL     1       9.645  10.739  19.400  0.00  0.00    +0.000 A 
ATOM     12  C   UNL     1       9.421  11.467  20.571  0.00  0.00    +0.000 A 
ATOM     13  C   UNL     1       9.773  12.815  20.654  0.00  0.00    +0.000 A 
ATOM     14  C   UNL     1      10.365  13.439  19.566  0.00  0.00    +0.000 A 
ATOM     15 CL   UNL     1      10.754  15.112  19.654  0.00  0.00    +0.000 Cl
ATOM     16  C   UNL     1      10.637  12.718  18.404  0.00  0.00    +0.000 A 
ATOM     17  C   UNL     1      10.292  11.362  18.326  0.00  0.00    +0.000 A 
ENDBRANCH   9  11
ENDBRANCH   1   8
BRANCH   5  18
ATOM     18  S   UNL     1       6.317   4.965  15.602  0.00  0.00    +0.000 S 
ATOM     19  O   UNL     1       6.838   5.673  14.451  0.00  0.00    +0.000 OA
ATOM     20  O   UNL     1       6.443   3.526  15.707  0.00  0.00    +0.000 OA
BRANCH  18  21
ATOM     21  N   UNL     1       4.674   5.306  15.769  0.00  0.00    +0.000 N 
ATOM     22  C   UNL     1       4.124   5.146  17.050  0.00  0.00    +0.000 A 
ATOM     23  C   UNL     1       4.167   6.132  18.023  0.00  0.00    +0.000 A 
ATOM     24  C   UNL     1       3.512   5.885  19.230  0.00  0.00    +0.000 A 
ATOM     25  C   UNL     1       2.876   4.661  19.416  0.00  0.00    +0.000 A 
ATOM     26 CL   UNL     1       2.029   4.320  20.869  0.00  0.00    +0.000 Cl
ATOM     27  C   UNL     1       2.918   3.732  18.386  0.00  0.00    +0.000 A 
ATOM     28  N   UNL     1       3.523   3.953  17.194  0.00  0.00    +0.000 NA
ATOM     29  H   UNL     1       4.143   4.750  15.101  0.00  0.00    +0.000 HD
ENDBRANCH  18  21
ENDBRANCH   5  18
TORSDOF 4
ENDMDL
