MODEL 1
REMARK VINA RESULT:      -7.0      0.000      0.000
REMARK  Name = 
REMARK  8 active torsions:
REMARK  status: ('A' for Active; 'I' for Inactive)
REMARK    1  A    between atoms: C_1  and  C_2
REMARK    2  A    between atoms: C_2  and  O_3
REMARK    3  A    between atoms: O_3  and  C_4
REMARK    4  A    between atoms: C_4  and  C_5
REMARK    5  A    between atoms: C_7  and  C_8
REMARK    6  A    between atoms: C_8  and  C_9
REMARK    7  A    between atoms: C_9  and  N_10
REMARK    8  A    between atoms: C_11  and  C_12
REMARK                            x       y       z     vdW  Elec       q    Type
REMARK                         _______ _______ _______ _____ _____    ______ ____
ROOT
ATOM      1  C   UNL     1       5.196   4.488  17.908  0.00  0.00    +0.000 A 
ATOM      2  N   UNL     1       4.061   3.876  17.645  0.00  0.00    +0.000 NA
ATOM      3  C   UNL     1       3.968   2.967  18.664  0.00  0.00    +0.000 A 
ATOM      4  N   UNL     1       4.963   3.025  19.557  0.00  0.00    +0.000 NA
ATOM      5  O   UNL     1       5.790   4.037  19.054  0.00  0.00    +0.000 OA
ENDROOT
BRANCH   1   6
ATOM      6  C   UNL     1       5.971   5.424  17.030  0.00  0.00    +0.000 C 
ATOM      7  C   UNL     1       5.221   5.800  15.745  0.00  0.00    +0.000 C 
ATOM      8  C   UNL     1       5.430   4.613  14.807  0.00  0.00    +0.000 C 
ATOM      9  C   UNL     1       6.751   3.975  15.233  0.00  0.00    +0.000 C 
ATOM     10  C   UNL     1       7.232   4.772  16.442  0.00  0.00    +0.000 C 
BRANCH   6  11
ATOM     11  O   UNL     1       6.268   6.622  17.772  0.00  0.00    +0.000 OA
BRANCH  11  13
ATOM     12  C   UNL     1       7.943   8.345  17.749  0.00  0.00    +0.000 C 
ATOM     13  C   UNL     1       7.664   6.872  17.968  0.00  0.00    +0.000 C 
ENDBRANCH  11  13
ENDBRANCH   6  11
ENDBRANCH   1   6
BRANCH   3  14
ATOM     14  C   UNL     1       2.927   1.912  18.642  0.00  0.00    +0.000 C 
BRANCH  14  15
ATOM     15  C   UNL     1       1.584   2.340  19.229  0.00  0.00    +0.000 C 
BRANCH  15  16
ATOM     16  N   UNL     1       1.503   3.774  19.479  0.00  0.00    +0.000 N 
ATOM     17  C   UNL     1       1.714   4.306  20.729  0.00  0.00    +0.000 C 
ATOM     18  C   UNL     1       1.508   5.795  20.817  0.00  0.00    +0.000 C 
ATOM     19  O   UNL     1       2.056   3.641  21.701  0.00  0.00    +0.000 OA
ATOM     20  H   UNL     1       1.103   4.358  18.757  0.00  0.00    +0.000 HD
ENDBRANCH  15  16
ENDBRANCH  14  15
ENDBRANCH   3  14
TORSDOF 6
ENDMDL
MODEL 2
REMARK VINA RESULT:      -6.9      1.135      2.613
REMARK  Name = 
REMARK  8 active torsions:
REMARK  status: ('A' for Active; 'I' for Inactive)
REMARK    1  A    between atoms: C_1  and  C_2
REMARK    2  A    between atoms: C_2  and  O_3
REMARK    3  A    between atoms: O_3  and  C_4
REMARK    4  A    between atoms: C_4  and  C_5
REMARK    5  A    between atoms: C_7  and  C_8
REMARK    6  A    between atoms: C_8  and  C_9
REMARK    7  A    between atoms: C_9  and  N_10
REMARK    8  A    between atoms: C_11  and  C_12
REMARK                            x       y       z     vdW  Elec       q    Type
REMARK                         _______ _______ _______ _____ _____    ______ ____
ROOT
ATOM      1  C   UNL     1       5.174   4.003  17.605  0.00  0.00    +0.000 A 
ATOM      2  N   UNL     1       4.009   3.415  17.430  0.00  0.00    +0.000 NA
ATOM      3  C   UNL     1       3.803   2.797  18.633  0.00  0.00    +0.000 A 
ATOM      4  N   UNL     1       4.759   3.016  19.545  0.00  0.00    +0.000 NA
ATOM      5  O   UNL     1       5.680   3.818  18.861  0.00  0.00    +0.000 OA
ENDROOT
BRANCH   1   6
ATOM      6  C   UNL     1       6.055   4.642  16.573  0.00  0.00    +0.000 C 
ATOM      7  C   UNL     1       7.467   4.940  17.093  0.00  0.00    +0.000 C 
ATOM      8  C   UNL     1       7.326   6.233  17.893  0.00  0.00    +0.000 C 
ATOM      9  C   UNL     1       6.135   6.970  17.283  0.00  0.00    +0.000 C 
ATOM     10  C   UNL     1       5.588   6.055  16.192  0.00  0.00    +0.000 C 
BRANCH   6  11
ATOM     11  O   UNL     1       6.146   3.767  15.431  0.00  0.00    +0.000 OA
BRANCH  11  13
ATOM     12  C   UNL     1       6.202   3.591  13.036  0.00  0.00    +0.000 C 
ATOM     13  C   UNL     1       5.589   4.302  14.225  0.00  0.00    +0.000 C 
ENDBRANCH  11  13
ENDBRANCH   6  11
ENDBRANCH   1   6
BRANCH   3  14
ATOM     14  C   UNL     1       2.688   1.836  18.808  0.00  0.00    +0.000 C 
BRANCH  14  15
ATOM     15  C   UNL     1       1.374   2.470  19.254  0.00  0.00    +0.000 C 
BRANCH  15  16
ATOM     16  N   UNL     1       1.468   3.914  19.426  0.00  0.00    +0.000 N 
ATOM     17  C   UNL     1       1.720   4.484  20.652  0.00  0.00    +0.000 C 
ATOM     18  C   UNL     1       1.700   5.990  20.657  0.00  0.00    +0.000 C 
ATOM     19  O   UNL     1       1.959   3.837  21.666  0.00  0.00    +0.000 OA
ATOM     20  H   UNL     1       1.157   4.503  18.665  0.00  0.00    +0.000 HD
ENDBRANCH  15  16
ENDBRANCH  14  15
ENDBRANCH   3  14
TORSDOF 6
ENDMDL
MODEL 3
REMARK VINA RESULT:      -6.9      1.941      5.957
REMARK  Name = 
REMARK  8 active torsions:
REMARK  status: ('A' for Active; 'I' for Inactive)
REMARK    1  A    between atoms: C_1  and  C_2
REMARK    2  A    between atoms: C_2  and  O_3
REMARK    3  A    between atoms: O_3  and  C_4
REMARK    4  A    between atoms: C_4  and  C_5
REMARK    5  A    between atoms: C_7  and  C_8
REMARK    6  A    between atoms: C_8  and  C_9
REMARK    7  A    between atoms: C_9  and  N_10
REMARK    8  A    between atoms: C_11  and  C_12
REMARK                            x       y       z     vdW  Elec       q    Type
REMARK                         _______ _______ _______ _____ _____    ______ ____
ROOT
ATOM      1  C   UNL     1       4.040   4.839  18.971  0.00  0.00    +0.000 A 
ATOM      2  N   UNL     1       5.319   4.655  19.226  0.00  0.00    +0.000 NA
ATOM      3  C   UNL     1       5.913   5.657  18.509  0.00  0.00    +0.000 A 
ATOM      4  N   UNL     1       5.063   6.467  17.868  0.00  0.00    +0.000 NA
ATOM      5  O   UNL     1       3.809   5.923  18.169  0.00  0.00    +0.000 OA
ENDROOT
BRANCH   1   6
ATOM      6  C   UNL     1       2.892   3.922  19.272  0.00  0.00    +0.000 C 
ATOM      7  C   UNL     1       3.292   2.441  19.269  0.00  0.00    +0.000 C 
ATOM      8  C   UNL     1       3.328   2.047  17.794  0.00  0.00    +0.000 C 
ATOM      9  C   UNL     1       2.349   2.986  17.090  0.00  0.00    +0.000 C 
ATOM     10  C   UNL     1       1.825   3.932  18.166  0.00  0.00    +0.000 C 
BRANCH   6  11
ATOM     11  O   UNL     1       2.349   4.264  20.562  0.00  0.00    +0.000 OA
BRANCH  11  13
ATOM     12  C   UNL     1       1.375   2.549  21.936  0.00  0.00    +0.000 C 
ATOM     13  C   UNL     1       1.117   3.608  20.882  0.00  0.00    +0.000 C 
ENDBRANCH  11  13
ENDBRANCH   6  11
ENDBRANCH   1   6
BRANCH   3  14
ATOM     14  C   UNL     1       7.386   5.697  18.345  0.00  0.00    +0.000 C 
BRANCH  14  15
ATOM     15  C   UNL     1       7.953   4.577  17.476  0.00  0.00    +0.000 C 
BRANCH  15  16
ATOM     16  N   UNL     1       7.003   4.090  16.484  0.00  0.00    +0.000 N 
ATOM     17  C   UNL     1       6.947   4.613  15.213  0.00  0.00    +0.000 C 
ATOM     18  C   UNL     1       5.850   4.045  14.352  0.00  0.00    +0.000 C 
ATOM     19  O   UNL     1       7.727   5.461  14.794  0.00  0.00    +0.000 OA
ATOM     20  H   UNL     1       6.254   3.488  16.801  0.00  0.00    +0.000 HD
ENDBRANCH  15  16
ENDBRANCH  14  15
ENDBRANCH   3  14
TORSDOF 6
ENDMDL
MODEL 4
REMARK VINA RESULT:      -6.9      2.553      5.810
REMARK  Name = 
REMARK  8 active torsions:
REMARK  status: ('A' for Active; 'I' for Inactive)
REMARK    1  A    between atoms: C_1  and  C_2
REMARK    2  A    between atoms: C_2  and  O_3
REMARK    3  A    between atoms: O_3  and  C_4
REMARK    4  A    between atoms: C_4  and  C_5
REMARK    5  A    between atoms: C_7  and  C_8
REMARK    6  A    between atoms: C_8  and  C_9
REMARK    7  A    between atoms: C_9  and  N_10
REMARK    8  A    between atoms: C_11  and  C_12
REMARK                            x       y       z     vdW  Elec       q    Type
REMARK                         _______ _______ _______ _____ _____    ______ ____
ROOT
ATOM      1  C   UNL     1       4.052   4.982  18.882  0.00  0.00    +0.000 A 
ATOM      2  N   UNL     1       4.757   4.635  17.826  0.00  0.00    +0.000 NA
ATOM      3  C   UNL     1       6.043   4.708  18.288  0.00  0.00    +0.000 A 
ATOM      4  N   UNL     1       6.155   5.037  19.580  0.00  0.00    +0.000 NA
ATOM      5  O   UNL     1       4.827   5.226  19.982  0.00  0.00    +0.000 OA
ENDROOT
BRANCH   1   6
ATOM      6  C   UNL     1       2.593   5.324  18.953  0.00  0.00    +0.000 C 
ATOM      7  C   UNL     1       1.886   4.685  20.155  0.00  0.00    +0.000 C 
ATOM      8  C   UNL     1       1.613   3.244  19.729  0.00  0.00    +0.000 C 
ATOM      9  C   UNL     1       1.511   3.274  18.205  0.00  0.00    +0.000 C 
ATOM     10  C   UNL     1       1.789   4.717  17.793  0.00  0.00    +0.000 C 
BRANCH   6  11
ATOM     11  O   UNL     1       2.453   6.756  19.027  0.00  0.00    +0.000 OA
BRANCH  11  13
ATOM     12  C   UNL     1       2.190   8.792  17.779  0.00  0.00    +0.000 C 
ATOM     13  C   UNL     1       2.909   7.461  17.868  0.00  0.00    +0.000 C 
ENDBRANCH  11  13
ENDBRANCH   6  11
ENDBRANCH   1   6
BRANCH   3  14
ATOM     14  C   UNL     1       7.188   4.594  17.354  0.00  0.00    +0.000 C 
BRANCH  14  15
ATOM     15  C   UNL     1       6.974   5.279  16.007  0.00  0.00    +0.000 C 
BRANCH  15  16
ATOM     16  N   UNL     1       6.469   4.375  14.982  0.00  0.00    +0.000 N 
ATOM     17  C   UNL     1       6.809   4.518  13.657  0.00  0.00    +0.000 C 
ATOM     18  C   UNL     1       6.130   3.546  12.730  0.00  0.00    +0.000 C 
ATOM     19  O   UNL     1       7.607   5.354  13.247  0.00  0.00    +0.000 OA
ATOM     20  H   UNL     1       5.714   3.751  15.231  0.00  0.00    +0.000 HD
ENDBRANCH  15  16
ENDBRANCH  14  15
ENDBRANCH   3  14
TORSDOF 6
ENDMDL
MODEL 5
REMARK VINA RESULT:      -6.8      2.907      6.339
REMARK  Name = 
REMARK  8 active torsions:
REMARK  status: ('A' for Active; 'I' for Inactive)
REMARK    1  A    between atoms: C_1  and  C_2
REMARK    2  A    between atoms: C_2  and  O_3
REMARK    3  A    between atoms: O_3  and  C_4
REMARK    4  A    between atoms: C_4  and  C_5
REMARK    5  A    between atoms: C_7  and  C_8
REMARK    6  A    between atoms: C_8  and  C_9
REMARK    7  A    between atoms: C_9  and  N_10
REMARK    8  A    between atoms: C_11  and  C_12
REMARK                            x       y       z     vdW  Elec       q    Type
REMARK                         _______ _______ _______ _____ _____    ______ ____
ROOT
ATOM      1  C   UNL     1       4.711   4.072  18.066  0.00  0.00    +0.000 A 
ATOM      2  N   UNL     1       4.867   4.001  16.761  0.00  0.00    +0.000 NA
ATOM      3  C   UNL     1       6.198   4.280  16.605  0.00  0.00    +0.000 A 
ATOM      4  N   UNL     1       6.867   4.472  17.748  0.00  0.00    +0.000 NA
ATOM      5  O   UNL     1       5.877   4.338  18.728  0.00  0.00    +0.000 OA
ENDROOT
BRANCH   1   6
ATOM      6  C   UNL     1       3.430   4.099  18.847  0.00  0.00    +0.000 C 
ATOM      7  C   UNL     1       2.216   4.484  17.993  0.00  0.00    +0.000 C 
ATOM      8  C   UNL     1       2.279   6.006  17.884  0.00  0.00    +0.000 C 
ATOM      9  C   UNL     1       3.013   6.481  19.137  0.00  0.00    +0.000 C 
ATOM     10  C   UNL     1       3.406   5.219  19.899  0.00  0.00    +0.000 C 
BRANCH   6  11
ATOM     11  O   UNL     1       3.210   2.798  19.426  0.00  0.00    +0.000 OA
BRANCH  11  13
ATOM     12  C   UNL     1       1.503   2.586  21.104  0.00  0.00    +0.000 C 
ATOM     13  C   UNL     1       2.979   2.806  20.839  0.00  0.00    +0.000 C 
ENDBRANCH  11  13
ENDBRANCH   6  11
ENDBRANCH   1   6
BRANCH   3  14
ATOM     14  C   UNL     1       6.767   4.512  15.256  0.00  0.00    +0.000 C 
BRANCH  14  15
ATOM     15  C   UNL     1       5.799   4.239  14.108  0.00  0.00    +0.000 C 
BRANCH  15  16
ATOM     16  N   UNL     1       6.289   3.229  13.178  0.00  0.00    +0.000 N 
ATOM     17  C   UNL     1       5.577   2.867  12.058  0.00  0.00    +0.000 C 
ATOM     18  C   UNL     1       6.196   1.751  11.259  0.00  0.00    +0.000 C 
ATOM     19  O   UNL     1       4.532   3.408  11.714  0.00  0.00    +0.000 OA
ATOM     20  H   UNL     1       7.073   2.659  13.468  0.00  0.00    +0.000 HD
ENDBRANCH  15  16
ENDBRANCH  14  15
ENDBRANCH   3  14
TORSDOF 6
ENDMDL
MODEL 6
REMARK VINA RESULT:      -6.7      1.936      3.717
REMARK  Name = 
REMARK  8 active torsions:
REMARK  status: ('A' for Active; 'I' for Inactive)
REMARK    1  A    between atoms: C_1  and  C_2
REMARK    2  A    between atoms: C_2  and  O_3
REMARK    3  A    between atoms: O_3  and  C_4
REMARK    4  A    between atoms: C_4  and  C_5
REMARK    5  A    between atoms: C_7  and  C_8
REMARK    6  A    between atoms: C_8  and  C_9
REMARK    7  A    between atoms: C_9  and  N_10
REMARK    8  A    between atoms: C_11  and  C_12
REMARK                            x       y       z     vdW  Elec       q    Type
REMARK                         _______ _______ _______ _____ _____    ______ ____
ROOT
ATOM      1  C   UNL     1       5.301   6.124  17.427  0.00  0.00    +0.000 A 
ATOM      2  N   UNL     1       4.700   5.447  18.383  0.00  0.00    +0.000 NA
ATOM      3  C   UNL     1       3.554   6.166  18.583  0.00  0.00    +0.000 A 
ATOM      4  N   UNL     1       3.403   7.217  17.769  0.00  0.00    +0.000 NA
ATOM      5  O   UNL     1       4.571   7.197  16.996  0.00  0.00    +0.000 OA
ENDROOT
BRANCH   1   6
ATOM      6  C   UNL     1       6.709   5.980  16.930  0.00  0.00    +0.000 C 
ATOM      7  C   UNL     1       7.506   4.913  17.692  0.00  0.00    +0.000 C 
ATOM      8  C   UNL     1       7.943   5.598  18.985  0.00  0.00    +0.000 C 
ATOM      9  C   UNL     1       8.017   7.088  18.661  0.00  0.00    +0.000 C 
ATOM     10  C   UNL     1       7.562   7.227  17.211  0.00  0.00    +0.000 C 
BRANCH   6  11
ATOM     11  O   UNL     1       6.678   5.640  15.531  0.00  0.00    +0.000 OA
BRANCH  11  13
ATOM     12  C   UNL     1       5.975   4.012  13.909  0.00  0.00    +0.000 C 
ATOM     13  C   UNL     1       6.624   4.235  15.261  0.00  0.00    +0.000 C 
ENDBRANCH  11  13
ENDBRANCH   6  11
ENDBRANCH   1   6
BRANCH   3  14
ATOM     14  C   UNL     1       2.667   5.868  19.733  0.00  0.00    +0.000 C 
BRANCH  14  15
ATOM     15  C   UNL     1       1.828   4.603  19.570  0.00  0.00    +0.000 C 
BRANCH  15  16
ATOM     16  N   UNL     1       2.636   3.397  19.439  0.00  0.00    +0.000 N 
ATOM     17  C   UNL     1       2.665   2.665  18.275  0.00  0.00    +0.000 C 
ATOM     18  C   UNL     1       3.488   1.407  18.349  0.00  0.00    +0.000 C 
ATOM     19  O   UNL     1       2.086   3.002  17.247  0.00  0.00    +0.000 OA
ATOM     20  H   UNL     1       3.031   2.998  20.280  0.00  0.00    +0.000 HD
ENDBRANCH  15  16
ENDBRANCH  14  15
ENDBRANCH   3  14
TORSDOF 6
ENDMDL
MODEL 7
REMARK VINA RESULT:      -6.7      2.665      6.017
REMARK  Name = 
REMARK  8 active torsions:
REMARK  status: ('A' for Active; 'I' for Inactive)
REMARK    1  A    between atoms: C_1  and  C_2
REMARK    2  A    between atoms: C_2  and  O_3
REMARK    3  A    between atoms: O_3  and  C_4
REMARK    4  A    between atoms: C_4  and  C_5
REMARK    5  A    between atoms: C_7  and  C_8
REMARK    6  A    between atoms: C_8  and  C_9
REMARK    7  A    between atoms: C_9  and  N_10
REMARK    8  A    between atoms: C_11  and  C_12
REMARK                            x       y       z     vdW  Elec       q    Type
REMARK                         _______ _______ _______ _____ _____    ______ ____
ROOT
ATOM      1  C   UNL     1       4.210   4.373  18.078  0.00  0.00    +0.000 A 
ATOM      2  N   UNL     1       4.749   4.224  16.886  0.00  0.00    +0.000 NA
ATOM      3  C   UNL     1       6.087   4.351  17.146  0.00  0.00    +0.000 A 
ATOM      4  N   UNL     1       6.392   4.525  18.437  0.00  0.00    +0.000 NA
ATOM      5  O   UNL     1       5.141   4.545  19.065  0.00  0.00    +0.000 OA
ENDROOT
BRANCH   1   6
ATOM      6  C   UNL     1       2.765   4.574  18.424  0.00  0.00    +0.000 C 
ATOM      7  C   UNL     1       2.497   4.518  19.934  0.00  0.00    +0.000 C 
ATOM      8  C   UNL     1       2.457   3.028  20.270  0.00  0.00    +0.000 C 
ATOM      9  C   UNL     1       2.017   2.325  18.988  0.00  0.00    +0.000 C 
ATOM     10  C   UNL     1       1.876   3.420  17.934  0.00  0.00    +0.000 C 
BRANCH   6  11
ATOM     11  O   UNL     1       2.336   5.851  17.914  0.00  0.00    +0.000 OA
BRANCH  11  13
ATOM     12  C   UNL     1       2.563   8.242  17.986  0.00  0.00    +0.000 C 
ATOM     13  C   UNL     1       2.587   6.957  18.789  0.00  0.00    +0.000 C 
ENDBRANCH  11  13
ENDBRANCH   6  11
ENDBRANCH   1   6
BRANCH   3  14
ATOM     14  C   UNL     1       7.065   4.457  16.037  0.00  0.00    +0.000 C 
BRANCH  14  15
ATOM     15  C   UNL     1       6.479   4.980  14.728  0.00  0.00    +0.000 C 
BRANCH  15  16
ATOM     16  N   UNL     1       5.911   3.926  13.897  0.00  0.00    +0.000 N 
ATOM     17  C   UNL     1       6.345   3.702  12.611  0.00  0.00    +0.000 C 
ATOM     18  C   UNL     1       5.589   2.628  11.875  0.00  0.00    +0.000 C 
ATOM     19  O   UNL     1       7.279   4.306  12.095  0.00  0.00    +0.000 OA
ATOM     20  H   UNL     1       5.059   3.481  14.212  0.00  0.00    +0.000 HD
ENDBRANCH  15  16
ENDBRANCH  14  15
ENDBRANCH   3  14
TORSDOF 6
ENDMDL
MODEL 8
REMARK VINA RESULT:      -6.7      1.700      2.940
REMARK  Name = 
REMARK  8 active torsions:
REMARK  status: ('A' for Active; 'I' for Inactive)
REMARK    1  A    between atoms: C_1  and  C_2
REMARK    2  A    between atoms: C_2  and  O_3
REMARK    3  A    between atoms: O_3  and  C_4
REMARK    4  A    between atoms: C_4  and  C_5
REMARK    5  A    between atoms: C_7  and  C_8
REMARK    6  A    between atoms: C_8  and  C_9
REMARK    7  A    between atoms: C_9  and  N_10
REMARK    8  A    between atoms: C_11  and  C_12
REMARK                            x       y       z     vdW  Elec       q    Type
REMARK                         _______ _______ _______ _____ _____    ______ ____
ROOT
ATOM      1  C   UNL     1       5.001   5.123  16.708  0.00  0.00    +0.000 A 
ATOM      2  N   UNL     1       4.411   3.973  16.455  0.00  0.00    +0.000 NA
ATOM      3  C   UNL     1       3.300   4.026  17.252  0.00  0.00    +0.000 A 
ATOM      4  N   UNL     1       3.159   5.164  17.941  0.00  0.00    +0.000 NA
ATOM      5  O   UNL     1       4.296   5.900  17.585  0.00  0.00    +0.000 OA
ENDROOT
BRANCH   1   6
ATOM      6  C   UNL     1       6.383   5.561  16.326  0.00  0.00    +0.000 C 
ATOM      7  C   UNL     1       7.463   4.544  16.718  0.00  0.00    +0.000 C 
ATOM      8  C   UNL     1       7.708   4.785  18.206  0.00  0.00    +0.000 C 
ATOM      9  C   UNL     1       7.350   6.248  18.454  0.00  0.00    +0.000 C 
ATOM     10  C   UNL     1       6.851   6.792  17.118  0.00  0.00    +0.000 C 
BRANCH   6  11
ATOM     11  O   UNL     1       6.428   5.775  14.902  0.00  0.00    +0.000 OA
BRANCH  11  13
ATOM     12  C   UNL     1       6.234   3.939  13.364  0.00  0.00    +0.000 C 
ATOM     13  C   UNL     1       7.183   4.798  14.176  0.00  0.00    +0.000 C 
ENDBRANCH  11  13
ENDBRANCH   6  11
ENDBRANCH   1   6
BRANCH   3  14
ATOM     14  C   UNL     1       2.445   2.829  17.436  0.00  0.00    +0.000 C 
BRANCH  14  15
ATOM     15  C   UNL     1       2.963   1.840  18.477  0.00  0.00    +0.000 C 
BRANCH  15  16
ATOM     16  N   UNL     1       3.035   2.409  19.817  0.00  0.00    +0.000 N 
ATOM     17  C   UNL     1       1.912   2.840  20.484  0.00  0.00    +0.000 C 
ATOM     18  C   UNL     1       2.185   3.475  21.821  0.00  0.00    +0.000 C 
ATOM     19  O   UNL     1       0.773   2.713  20.048  0.00  0.00    +0.000 OA
ATOM     20  H   UNL     1       3.946   2.658  20.177  0.00  0.00    +0.000 HD
ENDBRANCH  15  16
ENDBRANCH  14  15
ENDBRANCH   3  14
TORSDOF 6
ENDMDL
MODEL 9
REMARK VINA RESULT:      -6.6      2.160      5.710
REMARK  Name = 
REMARK  8 active torsions:
REMARK  status: ('A' for Active; 'I' for Inactive)
REMARK    1  A    between atoms: C_1  and  C_2
REMARK    2  A    between atoms: C_2  and  O_3
REMARK    3  A    between atoms: O_3  and  C_4
REMARK    4  A    between atoms: C_4  and  C_5
REMARK    5  A    between atoms: C_7  and  C_8
REMARK    6  A    between atoms: C_8  and  C_9
REMARK    7  A    between atoms: C_9  and  N_10
REMARK    8  A    between atoms: C_11  and  C_12
REMARK                            x       y       z     vdW  Elec       q    Type
REMARK                         _______ _______ _______ _____ _____    ______ ____
ROOT
ATOM      1  C   UNL     1       3.965   5.751  18.807  0.00  0.00    +0.000 A 
ATOM      2  N   UNL     1       5.185   5.426  19.179  0.00  0.00    +0.000 NA
ATOM      3  C   UNL     1       5.962   6.084  18.264  0.00  0.00    +0.000 A 
ATOM      4  N   UNL     1       5.280   6.827  17.384  0.00  0.00    +0.000 NA
ATOM      5  O   UNL     1       3.944   6.605  17.739  0.00  0.00    +0.000 OA
ENDROOT
BRANCH   1   6
ATOM      6  C   UNL     1       2.666   5.157  19.265  0.00  0.00    +0.000 C 
ATOM      7  C   UNL     1       2.814   3.723  19.787  0.00  0.00    +0.000 C 
ATOM      8  C   UNL     1       2.866   2.852  18.534  0.00  0.00    +0.000 C 
ATOM      9  C   UNL     1       2.097   3.621  17.462  0.00  0.00    +0.000 C 
ATOM     10  C   UNL     1       1.678   4.938  18.108  0.00  0.00    +0.000 C 
BRANCH   6  11
ATOM     11  O   UNL     1       2.116   5.987  20.306  0.00  0.00    +0.000 OA
BRANCH  11  13
ATOM     12  C   UNL     1       1.236   8.092  21.060  0.00  0.00    +0.000 C 
ATOM     13  C   UNL     1       1.997   7.372  19.965  0.00  0.00    +0.000 C 
ENDBRANCH  11  13
ENDBRANCH   6  11
ENDBRANCH   1   6
BRANCH   3  14
ATOM     14  C   UNL     1       7.419   5.825  18.186  0.00  0.00    +0.000 C 
BRANCH  14  15
ATOM     15  C   UNL     1       7.790   4.510  17.505  0.00  0.00    +0.000 C 
BRANCH  15  16
ATOM     16  N   UNL     1       6.819   4.096  16.501  0.00  0.00    +0.000 N 
ATOM     17  C   UNL     1       6.862   4.570  15.210  0.00  0.00    +0.000 C 
ATOM     18  C   UNL     1       5.733   4.098  14.334  0.00  0.00    +0.000 C 
ATOM     19  O   UNL     1       7.747   5.306  14.787  0.00  0.00    +0.000 OA
ATOM     20  H   UNL     1       5.997   3.597  16.814  0.00  0.00    +0.000 HD
ENDBRANCH  15  16
ENDBRANCH  14  15
ENDBRANCH   3  14
TORSDOF 6
ENDMDL
