MODEL 1
REMARK VINA RESULT:      -8.7      0.000      0.000
REMARK  Name = 
REMARK  12 active torsions:
REMARK  status: ('A' for Active; 'I' for Inactive)
REMARK    1  A    between atoms: C_1  and  C_2
REMARK    2  A    between atoms: C_2  and  C_3
REMARK    3  A    between atoms: C_2  and  C_4
REMARK    4  A    between atoms: C_2  and  C_5
REMARK    5  A    between atoms: C_11  and  N_12
REMARK    6  A    between atoms: C_13  and  C_15
REMARK    7  A    between atoms: C_15  and  C_16
REMARK    8  A    between atoms: C_16  and  C_17
REMARK    9  A    between atoms: C_17  and  O_19
REMARK   10  A    between atoms: C_20  and  C_21
REMARK   11  A    between atoms: N_23  and  C_24
REMARK   12  A    between atoms: C_29  and  C_30
REMARK                            x       y       z     vdW  Elec       q    Type
REMARK                         _______ _______ _______ _____ _____    ______ ____
ROOT
ATOM      1  C   UNL     1       0.467  10.909  19.026  0.00  0.00    +0.000 C 
ATOM      2  C   UNL     1       1.714  10.758  18.113  0.00  0.00    +0.000 C 
ATOM      3  C   UNL     1       2.172   9.316  17.814  0.00  0.00    +0.000 C 
ATOM      4  C   UNL     1       2.044   8.399  19.001  0.00  0.00    +0.000 A 
ATOM      5  C   UNL     1       1.355   8.815  20.125  0.00  0.00    +0.000 A 
ATOM      6  S   UNL     1       1.277   7.640  21.330  0.00  0.00    +0.000 S 
ATOM      7  C   UNL     1       2.110   6.505  20.391  0.00  0.00    +0.000 A 
ATOM      8  C   UNL     1       2.488   7.012  19.141  0.00  0.00    +0.000 A 
ATOM      9  C   UNL     1       0.735  10.156  20.350  0.00  0.00    +0.000 C 
ENDROOT
BRANCH   1  11
ATOM     10  C   UNL     1      -1.584  11.900  17.721  0.00  0.00    +0.000 C 
ATOM     11  C   UNL     1      -0.938  10.657  18.350  0.00  0.00    +0.000 C 
ATOM     12  C   UNL     1      -1.918  10.097  19.409  0.00  0.00    +0.000 C 
ATOM     13  C   UNL     1      -0.825   9.585  17.240  0.00  0.00    +0.000 C 
ENDBRANCH   1  11
BRANCH   7  14
ATOM     14  N   UNL     1       2.351   5.223  20.884  0.00  0.00    +0.000 N 
ATOM     15  C   UNL     1       1.539   4.115  20.726  0.00  0.00    +0.000 C 
ATOM     16  O   UNL     1       0.459   4.065  20.141  0.00  0.00    +0.000 OA
ATOM     17  H   UNL     1       3.253   5.105  21.348  0.00  0.00    +0.000 HD
BRANCH  15  18
ATOM     18  C   UNL     1       2.079   2.868  21.399  0.00  0.00    +0.000 C 
BRANCH  18  19
ATOM     19  C   UNL     1       3.553   2.702  21.027  0.00  0.00    +0.000 C 
BRANCH  19  20
ATOM     20  C   UNL     1       3.750   2.329  19.586  0.00  0.00    +0.000 C 
ATOM     21  O   UNL     1       2.935   1.749  18.890  0.00  0.00    +0.000 OA
BRANCH  20  22
ATOM     22  O   UNL     1       4.966   2.710  19.125  0.00  0.00    +0.000 OA
ATOM     23  H   UNL     1       5.060   2.627  18.153  0.00  0.00    +0.000 HD
ENDBRANCH  20  22
ENDBRANCH  19  20
ENDBRANCH  18  19
ENDBRANCH  15  18
ENDBRANCH   7  14
BRANCH   8  24
ATOM     24  C   UNL     1       3.169   6.142  18.165  0.00  0.00    +0.000 C 
ATOM     25  O   UNL     1       2.578   5.168  17.704  0.00  0.00    +0.000 OA
ATOM     26  N   UNL     1       4.497   6.438  17.911  0.00  0.00    +0.000 N 
ATOM     27  H   UNL     1       4.952   7.029  18.599  0.00  0.00    +0.000 HD
BRANCH  26  28
ATOM     28  C   UNL     1       5.330   5.792  16.955  0.00  0.00    +0.000 A 
ATOM     29  C   UNL     1       4.857   5.504  15.665  0.00  0.00    +0.000 A 
ATOM     30  C   UNL     1       5.656   4.858  14.716  0.00  0.00    +0.000 A 
ATOM     31  C   UNL     1       6.961   4.509  15.030  0.00  0.00    +0.000 A 
ATOM     32  C   UNL     1       7.462   4.809  16.293  0.00  0.00    +0.000 A 
ATOM     33  C   UNL     1       6.661   5.448  17.269  0.00  0.00    +0.000 A 
BRANCH  33  34
ATOM     34  C   UNL     1       7.291   5.667  18.621  0.00  0.00    +0.000 C 
ATOM     35  F   UNL     1       7.791   6.925  18.803  0.00  0.00    +0.000 F 
ATOM     36  F   UNL     1       6.415   5.467  19.644  0.00  0.00    +0.000 F 
ATOM     37  F   UNL     1       8.336   4.825  18.855  0.00  0.00    +0.000 F 
ENDBRANCH  33  34
ENDBRANCH  26  28
ENDBRANCH   8  24
TORSDOF 9
ENDMDL
MODEL 2
REMARK VINA RESULT:      -8.5      0.483      1.132
REMARK  Name = 
REMARK  12 active torsions:
REMARK  status: ('A' for Active; 'I' for Inactive)
REMARK    1  A    between atoms: C_1  and  C_2
REMARK    2  A    between atoms: C_2  and  C_3
REMARK    3  A    between atoms: C_2  and  C_4
REMARK    4  A    between atoms: C_2  and  C_5
REMARK    5  A    between atoms: C_11  and  N_12
REMARK    6  A    between atoms: C_13  and  C_15
REMARK    7  A    between atoms: C_15  and  C_16
REMARK    8  A    between atoms: C_16  and  C_17
REMARK    9  A    between atoms: C_17  and  O_19
REMARK   10  A    between atoms: C_20  and  C_21
REMARK   11  A    between atoms: N_23  and  C_24
REMARK   12  A    between atoms: C_29  and  C_30
REMARK                            x       y       z     vdW  Elec       q    Type
REMARK                         _______ _______ _______ _____ _____    ______ ____
ROOT
ATOM      1  C   UNL     1       0.427  11.079  18.998  0.00  0.00    +0.000 C 
ATOM      2  C   UNL     1       1.657  10.916  18.063  0.00  0.00    +0.000 C 
ATOM      3  C   UNL     1       2.116   9.470  17.786  0.00  0.00    +0.000 C 
ATOM      4  C   UNL     1       2.017   8.577  18.994  0.00  0.00    +0.000 A 
ATOM      5  C   UNL     1       1.347   9.013  20.122  0.00  0.00    +0.000 A 
ATOM      6  S   UNL     1       1.299   7.862  21.352  0.00  0.00    +0.000 S 
ATOM      7  C   UNL     1       2.120   6.713  20.420  0.00  0.00    +0.000 A 
ATOM      8  C   UNL     1       2.470   7.196  19.153  0.00  0.00    +0.000 A 
ATOM      9  C   UNL     1       0.724  10.356  20.332  0.00  0.00    +0.000 C 
ENDROOT
BRANCH   1  11
ATOM     10  C   UNL     1      -0.989   9.801  17.194  0.00  0.00    +0.000 C 
ATOM     11  C   UNL     1      -0.990  10.806  18.355  0.00  0.00    +0.000 C 
ATOM     12  C   UNL     1      -1.573  12.139  17.828  0.00  0.00    +0.000 C 
ATOM     13  C   UNL     1      -1.980  10.279  19.420  0.00  0.00    +0.000 C 
ENDBRANCH   1  11
BRANCH   7  14
ATOM     14  N   UNL     1       2.377   5.443  20.935  0.00  0.00    +0.000 N 
ATOM     15  C   UNL     1       1.631   4.300  20.715  0.00  0.00    +0.000 C 
ATOM     16  O   UNL     1       0.604   4.202  20.046  0.00  0.00    +0.000 OA
ATOM     17  H   UNL     1       3.243   5.364  21.470  0.00  0.00    +0.000 HD
BRANCH  15  18
ATOM     18  C   UNL     1       2.170   3.077  21.433  0.00  0.00    +0.000 C 
BRANCH  18  19
ATOM     19  C   UNL     1       2.785   2.128  20.404  0.00  0.00    +0.000 C 
BRANCH  19  20
ATOM     20  C   UNL     1       4.183   2.516  20.018  0.00  0.00    +0.000 C 
ATOM     21  O   UNL     1       4.481   3.243  19.085  0.00  0.00    +0.000 OA
BRANCH  20  22
ATOM     22  O   UNL     1       5.110   1.955  20.831  0.00  0.00    +0.000 OA
ATOM     23  H   UNL     1       6.019   2.283  20.675  0.00  0.00    +0.000 HD
ENDBRANCH  20  22
ENDBRANCH  19  20
ENDBRANCH  18  19
ENDBRANCH  15  18
ENDBRANCH   7  14
BRANCH   8  24
ATOM     24  C   UNL     1       3.137   6.309  18.182  0.00  0.00    +0.000 C 
ATOM     25  O   UNL     1       2.507   5.384  17.673  0.00  0.00    +0.000 OA
ATOM     26  N   UNL     1       4.489   6.530  17.987  0.00  0.00    +0.000 N 
ATOM     27  H   UNL     1       4.951   7.076  18.707  0.00  0.00    +0.000 HD
BRANCH  26  28
ATOM     28  C   UNL     1       5.320   5.858  17.047  0.00  0.00    +0.000 A 
ATOM     29  C   UNL     1       4.868   5.596  15.744  0.00  0.00    +0.000 A 
ATOM     30  C   UNL     1       5.664   4.925  14.811  0.00  0.00    +0.000 A 
ATOM     31  C   UNL     1       6.946   4.523  15.155  0.00  0.00    +0.000 A 
ATOM     32  C   UNL     1       7.427   4.795  16.432  0.00  0.00    +0.000 A 
ATOM     33  C   UNL     1       6.628   5.459  17.392  0.00  0.00    +0.000 A 
BRANCH  33  34
ATOM     34  C   UNL     1       7.233   5.646  18.760  0.00  0.00    +0.000 C 
ATOM     35  F   UNL     1       6.368   5.398  19.788  0.00  0.00    +0.000 F 
ATOM     36  F   UNL     1       8.302   4.830  18.973  0.00  0.00    +0.000 F 
ATOM     37  F   UNL     1       7.685   6.914  18.964  0.00  0.00    +0.000 F 
ENDBRANCH  33  34
ENDBRANCH  26  28
ENDBRANCH   8  24
TORSDOF 9
ENDMDL
MODEL 3
REMARK VINA RESULT:      -7.8      0.646      1.009
REMARK  Name = 
REMARK  12 active torsions:
REMARK  status: ('A' for Active; 'I' for Inactive)
REMARK    1  A    between atoms: C_1  and  C_2
REMARK    2  A    between atoms: C_2  and  C_3
REMARK    3  A    between atoms: C_2  and  C_4
REMARK    4  A    between atoms: C_2  and  C_5
REMARK    5  A    between atoms: C_11  and  N_12
REMARK    6  A    between atoms: C_13  and  C_15
REMARK    7  A    between atoms: C_15  and  C_16
REMARK    8  A    between atoms: C_16  and  C_17
REMARK    9  A    between atoms: C_17  and  O_19
REMARK   10  A    between atoms: C_20  and  C_21
REMARK   11  A    between atoms: N_23  and  C_24
REMARK   12  A    between atoms: C_29  and  C_30
REMARK                            x       y       z     vdW  Elec       q    Type
REMARK                         _______ _______ _______ _____ _____    ______ ____
ROOT
ATOM      1  C   UNL     1       0.378  11.024  19.119  0.00  0.00    +0.000 C 
ATOM      2  C   UNL     1       1.594  10.913  18.159  0.00  0.00    +0.000 C 
ATOM      3  C   UNL     1       2.072   9.485  17.825  0.00  0.00    +0.000 C 
ATOM      4  C   UNL     1       2.008   8.551  19.004  0.00  0.00    +0.000 A 
ATOM      5  C   UNL     1       1.351   8.937  20.157  0.00  0.00    +0.000 A 
ATOM      6  S   UNL     1       1.344   7.745  21.348  0.00  0.00    +0.000 S 
ATOM      7  C   UNL     1       2.167   6.642  20.365  0.00  0.00    +0.000 A 
ATOM      8  C   UNL     1       2.487   7.173  19.109  0.00  0.00    +0.000 A 
ATOM      9  C   UNL     1       0.710  10.261  20.423  0.00  0.00    +0.000 C 
ENDROOT
BRANCH   1  11
ATOM     10  C   UNL     1      -1.843  12.009  18.126  0.00  0.00    +0.000 C 
ATOM     11  C   UNL     1      -1.045  10.749  18.491  0.00  0.00    +0.000 C 
ATOM     12  C   UNL     1      -1.890   9.925  19.491  0.00  0.00    +0.000 C 
ATOM     13  C   UNL     1      -0.918   9.895  17.208  0.00  0.00    +0.000 C 
ENDBRANCH   1  11
BRANCH   7  14
ATOM     14  N   UNL     1       2.454   5.360  20.832  0.00  0.00    +0.000 N 
ATOM     15  C   UNL     1       1.639   4.247  20.731  0.00  0.00    +0.000 C 
ATOM     16  O   UNL     1       0.518   4.191  20.232  0.00  0.00    +0.000 OA
ATOM     17  H   UNL     1       3.389   5.246  21.224  0.00  0.00    +0.000 HD
BRANCH  15  18
ATOM     18  C   UNL     1       2.238   3.000  21.355  0.00  0.00    +0.000 C 
BRANCH  18  19
ATOM     19  C   UNL     1       2.649   2.036  20.242  0.00  0.00    +0.000 C 
BRANCH  19  20
ATOM     20  C   UNL     1       4.132   1.803  20.191  0.00  0.00    +0.000 C 
ATOM     21  O   UNL     1       4.913   2.034  21.099  0.00  0.00    +0.000 OA
BRANCH  20  22
ATOM     22  O   UNL     1       4.526   1.299  18.998  0.00  0.00    +0.000 OA
ATOM     23  H   UNL     1       3.799   0.894  18.483  0.00  0.00    +0.000 HD
ENDBRANCH  20  22
ENDBRANCH  19  20
ENDBRANCH  18  19
ENDBRANCH  15  18
ENDBRANCH   7  14
BRANCH   8  24
ATOM     24  C   UNL     1       3.151   6.331  18.097  0.00  0.00    +0.000 C 
ATOM     25  O   UNL     1       2.554   5.365  17.624  0.00  0.00    +0.000 OA
ATOM     26  N   UNL     1       4.472   6.639  17.823  0.00  0.00    +0.000 N 
ATOM     27  H   UNL     1       4.939   7.215  18.515  0.00  0.00    +0.000 HD
BRANCH  26  28
ATOM     28  C   UNL     1       5.288   6.021  16.833  0.00  0.00    +0.000 A 
ATOM     29  C   UNL     1       4.957   6.106  15.471  0.00  0.00    +0.000 A 
ATOM     30  C   UNL     1       5.738   5.495  14.486  0.00  0.00    +0.000 A 
ATOM     31  C   UNL     1       6.887   4.804  14.841  0.00  0.00    +0.000 A 
ATOM     32  C   UNL     1       7.251   4.728  16.182  0.00  0.00    +0.000 A 
ATOM     33  C   UNL     1       6.462   5.328  17.193  0.00  0.00    +0.000 A 
BRANCH  33  34
ATOM     34  C   UNL     1       6.922   5.129  18.614  0.00  0.00    +0.000 C 
ATOM     35  F   UNL     1       6.047   4.420  19.387  0.00  0.00    +0.000 F 
ATOM     36  F   UNL     1       8.106   4.461  18.690  0.00  0.00    +0.000 F 
ATOM     37  F   UNL     1       7.115   6.307  19.272  0.00  0.00    +0.000 F 
ENDBRANCH  33  34
ENDBRANCH  26  28
ENDBRANCH   8  24
TORSDOF 9
ENDMDL
MODEL 4
REMARK VINA RESULT:      -7.1      1.143      1.611
REMARK  Name = 
REMARK  12 active torsions:
REMARK  status: ('A' for Active; 'I' for Inactive)
REMARK    1  A    between atoms: C_1  and  C_2
REMARK    2  A    between atoms: C_2  and  C_3
REMARK    3  A    between atoms: C_2  and  C_4
REMARK    4  A    between atoms: C_2  and  C_5
REMARK    5  A    between atoms: C_11  and  N_12
REMARK    6  A    between atoms: C_13  and  C_15
REMARK    7  A    between atoms: C_15  and  C_16
REMARK    8  A    between atoms: C_16  and  C_17
REMARK    9  A    between atoms: C_17  and  O_19
REMARK   10  A    between atoms: C_20  and  C_21
REMARK   11  A    between atoms: N_23  and  C_24
REMARK   12  A    between atoms: C_29  and  C_30
REMARK                            x       y       z     vdW  Elec       q    Type
REMARK                         _______ _______ _______ _____ _____    ______ ____
ROOT
ATOM      1  C   UNL     1       0.694  11.242  19.275  0.00  0.00    +0.000 C 
ATOM      2  C   UNL     1       1.933  10.990  18.373  0.00  0.00    +0.000 C 
ATOM      3  C   UNL     1       2.203   9.523  17.980  0.00  0.00    +0.000 C 
ATOM      4  C   UNL     1       1.927   8.552  19.096  0.00  0.00    +0.000 A 
ATOM      5  C   UNL     1       1.270   8.978  20.236  0.00  0.00    +0.000 A 
ATOM      6  S   UNL     1       1.008   7.744  21.352  0.00  0.00    +0.000 S 
ATOM      7  C   UNL     1       1.708   6.576  20.349  0.00  0.00    +0.000 A 
ATOM      8  C   UNL     1       2.180   7.112  19.144  0.00  0.00    +0.000 A 
ATOM      9  C   UNL     1       0.826  10.372  20.546  0.00  0.00    +0.000 C 
ENDROOT
BRANCH   1  11
ATOM     10  C   UNL     1      -1.919  11.141  19.510  0.00  0.00    +0.000 C 
ATOM     11  C   UNL     1      -0.715  11.226  18.561  0.00  0.00    +0.000 C 
ATOM     12  C   UNL     1      -0.783  10.016  17.599  0.00  0.00    +0.000 C 
ATOM     13  C   UNL     1      -0.901  12.493  17.693  0.00  0.00    +0.000 C 
ENDBRANCH   1  11
BRANCH   7  14
ATOM     14  N   UNL     1       1.766   5.242  20.753  0.00  0.00    +0.000 N 
ATOM     15  C   UNL     1       2.889   4.435  20.766  0.00  0.00    +0.000 C 
ATOM     16  O   UNL     1       4.025   4.739  20.409  0.00  0.00    +0.000 OA
ATOM     17  H   UNL     1       0.894   4.871  21.133  0.00  0.00    +0.000 HD
BRANCH  15  18
ATOM     18  C   UNL     1       2.614   3.024  21.249  0.00  0.00    +0.000 C 
BRANCH  18  19
ATOM     19  C   UNL     1       1.303   2.535  20.634  0.00  0.00    +0.000 C 
BRANCH  19  20
ATOM     20  C   UNL     1       1.429   2.218  19.171  0.00  0.00    +0.000 C 
ATOM     21  O   UNL     1       0.641   2.560  18.305  0.00  0.00    +0.000 OA
BRANCH  20  22
ATOM     22  O   UNL     1       2.537   1.486  18.904  0.00  0.00    +0.000 OA
ATOM     23  H   UNL     1       3.141   1.910  18.259  0.00  0.00    +0.000 HD
ENDBRANCH  20  22
ENDBRANCH  19  20
ENDBRANCH  18  19
ENDBRANCH  15  18
ENDBRANCH   7  14
BRANCH   8  24
ATOM     24  C   UNL     1       2.765   6.228  18.119  0.00  0.00    +0.000 C 
ATOM     25  O   UNL     1       2.043   5.435  17.518  0.00  0.00    +0.000 OA
ATOM     26  N   UNL     1       4.141   6.288  17.979  0.00  0.00    +0.000 N 
ATOM     27  H   UNL     1       4.641   6.711  18.754  0.00  0.00    +0.000 HD
BRANCH  26  28
ATOM     28  C   UNL     1       4.914   5.592  17.008  0.00  0.00    +0.000 A 
ATOM     29  C   UNL     1       4.363   4.529  16.275  0.00  0.00    +0.000 A 
ATOM     30  C   UNL     1       5.111   3.825  15.327  0.00  0.00    +0.000 A 
ATOM     31  C   UNL     1       6.424   4.187  15.071  0.00  0.00    +0.000 A 
ATOM     32  C   UNL     1       6.985   5.255  15.765  0.00  0.00    +0.000 A 
ATOM     33  C   UNL     1       6.247   5.967  16.739  0.00  0.00    +0.000 A 
BRANCH  33  34
ATOM     34  C   UNL     1       6.977   7.065  17.469  0.00  0.00    +0.000 C 
ATOM     35  F   UNL     1       6.237   8.199  17.651  0.00  0.00    +0.000 F 
ATOM     36  F   UNL     1       7.380   6.685  18.713  0.00  0.00    +0.000 F 
ATOM     37  F   UNL     1       8.104   7.468  16.818  0.00  0.00    +0.000 F 
ENDBRANCH  33  34
ENDBRANCH  26  28
ENDBRANCH   8  24
TORSDOF 9
ENDMDL
MODEL 5
REMARK VINA RESULT:      -7.1      1.071      1.290
REMARK  Name = 
REMARK  12 active torsions:
REMARK  status: ('A' for Active; 'I' for Inactive)
REMARK    1  A    between atoms: C_1  and  C_2
REMARK    2  A    between atoms: C_2  and  C_3
REMARK    3  A    between atoms: C_2  and  C_4
REMARK    4  A    between atoms: C_2  and  C_5
REMARK    5  A    between atoms: C_11  and  N_12
REMARK    6  A    between atoms: C_13  and  C_15
REMARK    7  A    between atoms: C_15  and  C_16
REMARK    8  A    between atoms: C_16  and  C_17
REMARK    9  A    between atoms: C_17  and  O_19
REMARK   10  A    between atoms: C_20  and  C_21
REMARK   11  A    between atoms: N_23  and  C_24
REMARK   12  A    between atoms: C_29  and  C_30
REMARK                            x       y       z     vdW  Elec       q    Type
REMARK                         _______ _______ _______ _____ _____    ______ ____
ROOT
ATOM      1  C   UNL     1       0.703  11.143  19.297  0.00  0.00    +0.000 C 
ATOM      2  C   UNL     1       1.952  10.915  18.402  0.00  0.00    +0.000 C 
ATOM      3  C   UNL     1       2.234   9.457  17.984  0.00  0.00    +0.000 C 
ATOM      4  C   UNL     1       1.953   8.464  19.080  0.00  0.00    +0.000 A 
ATOM      5  C   UNL     1       1.284   8.865  20.221  0.00  0.00    +0.000 A 
ATOM      6  S   UNL     1       1.019   7.609  21.312  0.00  0.00    +0.000 S 
ATOM      7  C   UNL     1       1.735   6.464  20.293  0.00  0.00    +0.000 A 
ATOM      8  C   UNL     1       2.215   7.025  19.103  0.00  0.00    +0.000 A 
ATOM      9  C   UNL     1       0.829  10.250  20.553  0.00  0.00    +0.000 C 
ENDROOT
BRANCH   1  11
ATOM     10  C   UNL     1      -1.021  12.403  17.769  0.00  0.00    +0.000 C 
ATOM     11  C   UNL     1      -0.699  11.132  18.569  0.00  0.00    +0.000 C 
ATOM     12  C   UNL     1      -1.816  10.939  19.622  0.00  0.00    +0.000 C 
ATOM     13  C   UNL     1      -0.798   9.936  17.593  0.00  0.00    +0.000 C 
ENDBRANCH   1  11
BRANCH   7  14
ATOM     14  N   UNL     1       1.796   5.123  20.674  0.00  0.00    +0.000 N 
ATOM     15  C   UNL     1       2.933   4.338  20.734  0.00  0.00    +0.000 C 
ATOM     16  O   UNL     1       4.081   4.671  20.449  0.00  0.00    +0.000 OA
ATOM     17  H   UNL     1       0.912   4.728  20.996  0.00  0.00    +0.000 HD
BRANCH  15  18
ATOM     18  C   UNL     1       2.660   2.911  21.173  0.00  0.00    +0.000 C 
BRANCH  18  19
ATOM     19  C   UNL     1       1.966   2.166  20.033  0.00  0.00    +0.000 C 
BRANCH  19  20
ATOM     20  C   UNL     1       2.853   1.981  18.834  0.00  0.00    +0.000 C 
ATOM     21  O   UNL     1       2.485   2.026  17.672  0.00  0.00    +0.000 OA
BRANCH  20  22
ATOM     22  O   UNL     1       4.140   1.747  19.185  0.00  0.00    +0.000 OA
ATOM     23  H   UNL     1       4.345   1.993  20.110  0.00  0.00    +0.000 HD
ENDBRANCH  20  22
ENDBRANCH  19  20
ENDBRANCH  18  19
ENDBRANCH  15  18
ENDBRANCH   7  14
BRANCH   8  24
ATOM     24  C   UNL     1       2.814   6.164  18.068  0.00  0.00    +0.000 C 
ATOM     25  O   UNL     1       2.105   5.367  17.455  0.00  0.00    +0.000 OA
ATOM     26  N   UNL     1       4.189   6.246  17.931  0.00  0.00    +0.000 N 
ATOM     27  H   UNL     1       4.681   6.666  18.712  0.00  0.00    +0.000 HD
BRANCH  26  28
ATOM     28  C   UNL     1       4.974   5.575  16.952  0.00  0.00    +0.000 A 
ATOM     29  C   UNL     1       4.437   4.519  16.198  0.00  0.00    +0.000 A 
ATOM     30  C   UNL     1       5.196   3.838  15.242  0.00  0.00    +0.000 A 
ATOM     31  C   UNL     1       6.508   4.218  14.998  0.00  0.00    +0.000 A 
ATOM     32  C   UNL     1       7.054   5.280  15.713  0.00  0.00    +0.000 A 
ATOM     33  C   UNL     1       6.304   5.968  16.696  0.00  0.00    +0.000 A 
BRANCH  33  34
ATOM     34  C   UNL     1       7.019   7.060  17.449  0.00  0.00    +0.000 C 
ATOM     35  F   UNL     1       8.159   7.501  16.839  0.00  0.00    +0.000 F 
ATOM     36  F   UNL     1       6.244   8.166  17.624  0.00  0.00    +0.000 F 
ATOM     37  F   UNL     1       7.402   6.672  18.697  0.00  0.00    +0.000 F 
ENDBRANCH  33  34
ENDBRANCH  26  28
ENDBRANCH   8  24
TORSDOF 9
ENDMDL
MODEL 6
REMARK VINA RESULT:      -7.1      0.944      1.192
REMARK  Name = 
REMARK  12 active torsions:
REMARK  status: ('A' for Active; 'I' for Inactive)
REMARK    1  A    between atoms: C_1  and  C_2
REMARK    2  A    between atoms: C_2  and  C_3
REMARK    3  A    between atoms: C_2  and  C_4
REMARK    4  A    between atoms: C_2  and  C_5
REMARK    5  A    between atoms: C_11  and  N_12
REMARK    6  A    between atoms: C_13  and  C_15
REMARK    7  A    between atoms: C_15  and  C_16
REMARK    8  A    between atoms: C_16  and  C_17
REMARK    9  A    between atoms: C_17  and  O_19
REMARK   10  A    between atoms: C_20  and  C_21
REMARK   11  A    between atoms: N_23  and  C_24
REMARK   12  A    between atoms: C_29  and  C_30
REMARK                            x       y       z     vdW  Elec       q    Type
REMARK                         _______ _______ _______ _____ _____    ______ ____
ROOT
ATOM      1  C   UNL     1       0.032  11.527  19.089  0.00  0.00    +0.000 C 
ATOM      2  C   UNL     1       1.236  11.386  18.119  0.00  0.00    +0.000 C 
ATOM      3  C   UNL     1       1.724   9.949  17.842  0.00  0.00    +0.000 C 
ATOM      4  C   UNL     1       1.686   9.067  19.061  0.00  0.00    +0.000 A 
ATOM      5  C   UNL     1       1.040   9.499  20.205  0.00  0.00    +0.000 A 
ATOM      6  S   UNL     1       1.061   8.361  21.448  0.00  0.00    +0.000 S 
ATOM      7  C   UNL     1       1.882   7.223  20.503  0.00  0.00    +0.000 A 
ATOM      8  C   UNL     1       2.180   7.700  19.221  0.00  0.00    +0.000 A 
ATOM      9  C   UNL     1       0.389  10.827  20.421  0.00  0.00    +0.000 C 
ENDROOT
BRANCH   1  11
ATOM     10  C   UNL     1      -2.574  11.615  19.392  0.00  0.00    +0.000 C 
ATOM     11  C   UNL     1      -1.396  11.211  18.494  0.00  0.00    +0.000 C 
ATOM     12  C   UNL     1      -1.507   9.692  18.221  0.00  0.00    +0.000 C 
ATOM     13  C   UNL     1      -1.590  11.921  17.133  0.00  0.00    +0.000 C 
ENDBRANCH   1  11
BRANCH   7  14
ATOM     14  N   UNL     1       2.189   5.965  21.023  0.00  0.00    +0.000 N 
ATOM     15  C   UNL     1       1.472   4.799  20.828  0.00  0.00    +0.000 C 
ATOM     16  O   UNL     1       0.435   4.664  20.183  0.00  0.00    +0.000 OA
ATOM     17  H   UNL     1       3.068   5.917  21.540  0.00  0.00    +0.000 HD
BRANCH  15  18
ATOM     18  C   UNL     1       2.063   3.599  21.545  0.00  0.00    +0.000 C 
BRANCH  18  19
ATOM     19  C   UNL     1       1.822   2.348  20.700  0.00  0.00    +0.000 C 
BRANCH  19  20
ATOM     20  C   UNL     1       2.703   2.288  19.485  0.00  0.00    +0.000 C 
ATOM     21  O   UNL     1       2.314   2.130  18.340  0.00  0.00    +0.000 OA
BRANCH  20  22
ATOM     22  O   UNL     1       4.013   2.426  19.799  0.00  0.00    +0.000 OA
ATOM     23  H   UNL     1       4.247   2.057  20.676  0.00  0.00    +0.000 HD
ENDBRANCH  20  22
ENDBRANCH  19  20
ENDBRANCH  18  19
ENDBRANCH  15  18
ENDBRANCH   7  14
BRANCH   8  24
ATOM     24  C   UNL     1       2.840   6.821  18.238  0.00  0.00    +0.000 C 
ATOM     25  O   UNL     1       2.225   5.862  17.773  0.00  0.00    +0.000 OA
ATOM     26  N   UNL     1       4.173   7.087  17.983  0.00  0.00    +0.000 N 
ATOM     27  H   UNL     1       4.643   7.664  18.673  0.00  0.00    +0.000 HD
BRANCH  26  28
ATOM     28  C   UNL     1       4.990   6.428  17.022  0.00  0.00    +0.000 A 
ATOM     29  C   UNL     1       4.788   6.629  15.647  0.00  0.00    +0.000 A 
ATOM     30  C   UNL     1       5.571   5.980  14.687  0.00  0.00    +0.000 A 
ATOM     31  C   UNL     1       6.595   5.134  15.084  0.00  0.00    +0.000 A 
ATOM     32  C   UNL     1       6.832   4.940  16.441  0.00  0.00    +0.000 A 
ATOM     33  C   UNL     1       6.039   5.576  17.425  0.00  0.00    +0.000 A 
BRANCH  33  34
ATOM     34  C   UNL     1       6.350   5.244  18.861  0.00  0.00    +0.000 C 
ATOM     35  F   UNL     1       5.287   5.387  19.708  0.00  0.00    +0.000 F 
ATOM     36  F   UNL     1       6.776   3.960  19.019  0.00  0.00    +0.000 F 
ATOM     37  F   UNL     1       7.334   6.031  19.379  0.00  0.00    +0.000 F 
ENDBRANCH  33  34
ENDBRANCH  26  28
ENDBRANCH   8  24
TORSDOF 9
ENDMDL
MODEL 7
REMARK VINA RESULT:      -7.1      5.796      8.722
REMARK  Name = 
REMARK  12 active torsions:
REMARK  status: ('A' for Active; 'I' for Inactive)
REMARK    1  A    between atoms: C_1  and  C_2
REMARK    2  A    between atoms: C_2  and  C_3
REMARK    3  A    between atoms: C_2  and  C_4
REMARK    4  A    between atoms: C_2  and  C_5
REMARK    5  A    between atoms: C_11  and  N_12
REMARK    6  A    between atoms: C_13  and  C_15
REMARK    7  A    between atoms: C_15  and  C_16
REMARK    8  A    between atoms: C_16  and  C_17
REMARK    9  A    between atoms: C_17  and  O_19
REMARK   10  A    between atoms: C_20  and  C_21
REMARK   11  A    between atoms: N_23  and  C_24
REMARK   12  A    between atoms: C_29  and  C_30
REMARK                            x       y       z     vdW  Elec       q    Type
REMARK                         _______ _______ _______ _____ _____    ______ ____
ROOT
ATOM      1  C   UNL     1      -5.362  13.857  22.918  0.00  0.00    +0.000 C 
ATOM      2  C   UNL     1      -4.265  12.855  23.369  0.00  0.00    +0.000 C 
ATOM      3  C   UNL     1      -3.164  12.538  22.337  0.00  0.00    +0.000 C 
ATOM      4  C   UNL     1      -3.687  12.435  20.929  0.00  0.00    +0.000 A 
ATOM      5  C   UNL     1      -4.978  12.836  20.640  0.00  0.00    +0.000 A 
ATOM      6  S   UNL     1      -5.369  12.692  19.008  0.00  0.00    +0.000 S 
ATOM      7  C   UNL     1      -3.822  12.140  18.602  0.00  0.00    +0.000 A 
ATOM      8  C   UNL     1      -2.979  12.031  19.715  0.00  0.00    +0.000 A 
ATOM      9  C   UNL     1      -6.001  13.332  21.611  0.00  0.00    +0.000 C 
ENDROOT
BRANCH   1  11
ATOM     10  C   UNL     1      -3.468  15.669  23.057  0.00  0.00    +0.000 C 
ATOM     11  C   UNL     1      -4.973  15.388  22.940  0.00  0.00    +0.000 C 
ATOM     12  C   UNL     1      -5.678  16.074  24.133  0.00  0.00    +0.000 C 
ATOM     13  C   UNL     1      -5.475  16.097  21.660  0.00  0.00    +0.000 C 
ENDBRANCH   1  11
BRANCH   7  14
ATOM     14  N   UNL     1      -3.503  11.849  17.275  0.00  0.00    +0.000 N 
ATOM     15  C   UNL     1      -3.344  10.591  16.725  0.00  0.00    +0.000 C 
ATOM     16  O   UNL     1      -3.437   9.511  17.304  0.00  0.00    +0.000 OA
ATOM     17  H   UNL     1      -3.451  12.661  16.659  0.00  0.00    +0.000 HD
BRANCH  15  18
ATOM     18  C   UNL     1      -2.982  10.616  15.252  0.00  0.00    +0.000 C 
BRANCH  18  19
ATOM     19  C   UNL     1      -4.009   9.793  14.474  0.00  0.00    +0.000 C 
BRANCH  19  20
ATOM     20  C   UNL     1      -3.738   9.770  12.997  0.00  0.00    +0.000 C 
ATOM     21  O   UNL     1      -4.589   9.789  12.124  0.00  0.00    +0.000 OA
BRANCH  20  22
ATOM     22  O   UNL     1      -2.413   9.718  12.724  0.00  0.00    +0.000 OA
ATOM     23  H   UNL     1      -2.181   9.072  12.026  0.00  0.00    +0.000 HD
ENDBRANCH  20  22
ENDBRANCH  19  20
ENDBRANCH  18  19
ENDBRANCH  15  18
ENDBRANCH   7  14
BRANCH   8  24
ATOM     24  C   UNL     1      -1.572  11.624  19.540  0.00  0.00    +0.000 C 
ATOM     25  O   UNL     1      -0.690  12.481  19.526  0.00  0.00    +0.000 OA
ATOM     26  N   UNL     1      -1.355  10.280  19.296  0.00  0.00    +0.000 N 
ATOM     27  H   UNL     1      -2.167   9.754  18.991  0.00  0.00    +0.000 HD
BRANCH  26  28
ATOM     28  C   UNL     1      -0.087   9.645  19.176  0.00  0.00    +0.000 A 
ATOM     29  C   UNL     1       0.556   9.552  17.931  0.00  0.00    +0.000 A 
ATOM     30  C   UNL     1       1.796   8.921  17.790  0.00  0.00    +0.000 A 
ATOM     31  C   UNL     1       2.435   8.391  18.900  0.00  0.00    +0.000 A 
ATOM     32  C   UNL     1       1.831   8.495  20.150  0.00  0.00    +0.000 A 
ATOM     33  C   UNL     1       0.569   9.116  20.306  0.00  0.00    +0.000 A 
BRANCH  33  34
ATOM     34  C   UNL     1      -0.014   9.117  21.696  0.00  0.00    +0.000 C 
ATOM     35  F   UNL     1      -1.049   8.243  21.865  0.00  0.00    +0.000 F 
ATOM     36  F   UNL     1       0.904   8.790  22.647  0.00  0.00    +0.000 F 
ATOM     37  F   UNL     1      -0.506  10.335  22.057  0.00  0.00    +0.000 F 
ENDBRANCH  33  34
ENDBRANCH  26  28
ENDBRANCH   8  24
TORSDOF 9
ENDMDL
MODEL 8
REMARK VINA RESULT:      -7.1      0.902      1.367
REMARK  Name = 
REMARK  12 active torsions:
REMARK  status: ('A' for Active; 'I' for Inactive)
REMARK    1  A    between atoms: C_1  and  C_2
REMARK    2  A    between atoms: C_2  and  C_3
REMARK    3  A    between atoms: C_2  and  C_4
REMARK    4  A    between atoms: C_2  and  C_5
REMARK    5  A    between atoms: C_11  and  N_12
REMARK    6  A    between atoms: C_13  and  C_15
REMARK    7  A    between atoms: C_15  and  C_16
REMARK    8  A    between atoms: C_16  and  C_17
REMARK    9  A    between atoms: C_17  and  O_19
REMARK   10  A    between atoms: C_20  and  C_21
REMARK   11  A    between atoms: N_23  and  C_24
REMARK   12  A    between atoms: C_29  and  C_30
REMARK                            x       y       z     vdW  Elec       q    Type
REMARK                         _______ _______ _______ _____ _____    ______ ____
ROOT
ATOM      1  C   UNL     1       0.144  11.158  19.361  0.00  0.00    +0.000 C 
ATOM      2  C   UNL     1       1.435  11.372  18.524  0.00  0.00    +0.000 C 
ATOM      3  C   UNL     1       2.094  10.101  17.949  0.00  0.00    +0.000 C 
ATOM      4  C   UNL     1       2.045   8.932  18.896  0.00  0.00    +0.000 A 
ATOM      5  C   UNL     1       1.263   8.996  20.034  0.00  0.00    +0.000 A 
ATOM      6  S   UNL     1       1.297   7.578  20.944  0.00  0.00    +0.000 S 
ATOM      7  C   UNL     1       2.311   6.796  19.839  0.00  0.00    +0.000 A 
ATOM      8  C   UNL     1       2.666   7.614  18.759  0.00  0.00    +0.000 A 
ATOM      9  C   UNL     1       0.459  10.165  20.504  0.00  0.00    +0.000 C 
ENDROOT
BRANCH   1  11
ATOM     10  C   UNL     1      -1.112   9.737  17.546  0.00  0.00    +0.000 C 
ATOM     11  C   UNL     1      -1.186  10.895  18.552  0.00  0.00    +0.000 C 
ATOM     12  C   UNL     1      -1.569  12.176  17.773  0.00  0.00    +0.000 C 
ATOM     13  C   UNL     1      -2.359  10.594  19.515  0.00  0.00    +0.000 C 
ENDBRANCH   1  11
BRANCH   7  14
ATOM     14  N   UNL     1       2.703   5.475  20.055  0.00  0.00    +0.000 N 
ATOM     15  C   UNL     1       1.875   4.412  20.366  0.00  0.00    +0.000 C 
ATOM     16  O   UNL     1       0.657   4.443  20.523  0.00  0.00    +0.000 OA
ATOM     17  H   UNL     1       3.695   5.292  19.899  0.00  0.00    +0.000 HD
BRANCH  15  18
ATOM     18  C   UNL     1       2.617   3.103  20.554  0.00  0.00    +0.000 C 
BRANCH  18  19
ATOM     19  C   UNL     1       3.711   2.995  19.493  0.00  0.00    +0.000 C 
BRANCH  19  20
ATOM     20  C   UNL     1       3.287   2.188  18.299  0.00  0.00    +0.000 C 
ATOM     21  O   UNL     1       2.213   2.284  17.729  0.00  0.00    +0.000 OA
BRANCH  20  22
ATOM     22  O   UNL     1       4.244   1.312  17.911  0.00  0.00    +0.000 OA
ATOM     23  H   UNL     1       4.356   0.556  18.525  0.00  0.00    +0.000 HD
ENDBRANCH  20  22
ENDBRANCH  19  20
ENDBRANCH  18  19
ENDBRANCH  15  18
ENDBRANCH   7  14
BRANCH   8  24
ATOM     24  C   UNL     1       3.496   7.078  17.665  0.00  0.00    +0.000 C 
ATOM     25  O   UNL     1       3.482   7.629  16.566  0.00  0.00    +0.000 OA
ATOM     26  N   UNL     1       4.169   5.899  17.935  0.00  0.00    +0.000 N 
ATOM     27  H   UNL     1       3.828   5.375  18.734  0.00  0.00    +0.000 HD
BRANCH  26  28
ATOM     28  C   UNL     1       5.086   5.241  17.068  0.00  0.00    +0.000 A 
ATOM     29  C   UNL     1       4.644   4.627  15.885  0.00  0.00    +0.000 A 
ATOM     30  C   UNL     1       5.527   3.964  15.028  0.00  0.00    +0.000 A 
ATOM     31  C   UNL     1       6.881   3.924  15.322  0.00  0.00    +0.000 A 
ATOM     32  C   UNL     1       7.348   4.549  16.475  0.00  0.00    +0.000 A 
ATOM     33  C   UNL     1       6.465   5.210  17.361  0.00  0.00    +0.000 A 
BRANCH  33  34
ATOM     34  C   UNL     1       7.075   5.798  18.607  0.00  0.00    +0.000 C 
ATOM     35  F   UNL     1       8.253   5.215  18.978  0.00  0.00    +0.000 F 
ATOM     36  F   UNL     1       7.346   7.126  18.478  0.00  0.00    +0.000 F 
ATOM     37  F   UNL     1       6.259   5.688  19.692  0.00  0.00    +0.000 F 
ENDBRANCH  33  34
ENDBRANCH  26  28
ENDBRANCH   8  24
TORSDOF 9
ENDMDL
MODEL 9
REMARK VINA RESULT:      -6.9      0.819      1.294
REMARK  Name = 
REMARK  12 active torsions:
REMARK  status: ('A' for Active; 'I' for Inactive)
REMARK    1  A    between atoms: C_1  and  C_2
REMARK    2  A    between atoms: C_2  and  C_3
REMARK    3  A    between atoms: C_2  and  C_4
REMARK    4  A    between atoms: C_2  and  C_5
REMARK    5  A    between atoms: C_11  and  N_12
REMARK    6  A    between atoms: C_13  and  C_15
REMARK    7  A    between atoms: C_15  and  C_16
REMARK    8  A    between atoms: C_16  and  C_17
REMARK    9  A    between atoms: C_17  and  O_19
REMARK   10  A    between atoms: C_20  and  C_21
REMARK   11  A    between atoms: N_23  and  C_24
REMARK   12  A    between atoms: C_29  and  C_30
REMARK                            x       y       z     vdW  Elec       q    Type
REMARK                         _______ _______ _______ _____ _____    ______ ____
ROOT
ATOM      1  C   UNL     1       0.666  11.066  19.261  0.00  0.00    +0.000 C 
ATOM      2  C   UNL     1       1.940  10.857  18.397  0.00  0.00    +0.000 C 
ATOM      3  C   UNL     1       2.258   9.403  17.991  0.00  0.00    +0.000 C 
ATOM      4  C   UNL     1       1.968   8.409  19.083  0.00  0.00    +0.000 A 
ATOM      5  C   UNL     1       1.264   8.802  20.206  0.00  0.00    +0.000 A 
ATOM      6  S   UNL     1       0.995   7.544  21.295  0.00  0.00    +0.000 S 
ATOM      7  C   UNL     1       1.755   6.409  20.297  0.00  0.00    +0.000 A 
ATOM      8  C   UNL     1       2.254   6.975  19.118  0.00  0.00    +0.000 A 
ATOM      9  C   UNL     1       0.777  10.179  20.523  0.00  0.00    +0.000 C 
ENDROOT
BRANCH   1  11
ATOM     10  C   UNL     1      -1.944  10.821  19.400  0.00  0.00    +0.000 C 
ATOM     11  C   UNL     1      -0.718  11.029  18.500  0.00  0.00    +0.000 C 
ATOM     12  C   UNL     1      -0.694   9.884  17.459  0.00  0.00    +0.000 C 
ATOM     13  C   UNL     1      -0.942  12.341  17.711  0.00  0.00    +0.000 C 
ENDBRANCH   1  11
BRANCH   7  14
ATOM     14  N   UNL     1       1.831   5.071  20.684  0.00  0.00    +0.000 N 
ATOM     15  C   UNL     1       2.978   4.302  20.764  0.00  0.00    +0.000 C 
ATOM     16  O   UNL     1       4.125   4.652  20.495  0.00  0.00    +0.000 OA
ATOM     17  H   UNL     1       0.948   4.663  20.993  0.00  0.00    +0.000 HD
BRANCH  15  18
ATOM     18  C   UNL     1       2.719   2.873  21.204  0.00  0.00    +0.000 C 
BRANCH  18  19
ATOM     19  C   UNL     1       2.544   1.997  19.964  0.00  0.00    +0.000 C 
BRANCH  19  20
ATOM     20  C   UNL     1       3.740   2.027  19.056  0.00  0.00    +0.000 C 
ATOM     21  O   UNL     1       3.714   2.282  17.864  0.00  0.00    +0.000 OA
BRANCH  20  22
ATOM     22  O   UNL     1       4.886   1.728  19.714  0.00  0.00    +0.000 OA
ATOM     23  H   UNL     1       5.681   2.155  19.333  0.00  0.00    +0.000 HD
ENDBRANCH  20  22
ENDBRANCH  19  20
ENDBRANCH  18  19
ENDBRANCH  15  18
ENDBRANCH   7  14
BRANCH   8  24
ATOM     24  C   UNL     1       2.893   6.121  18.100  0.00  0.00    +0.000 C 
ATOM     25  O   UNL     1       2.216   5.300  17.484  0.00  0.00    +0.000 OA
ATOM     26  N   UNL     1       4.267   6.241  17.983  0.00  0.00    +0.000 N 
ATOM     27  H   UNL     1       4.735   6.681  18.768  0.00  0.00    +0.000 HD
BRANCH  26  28
ATOM     28  C   UNL     1       5.086   5.582  17.023  0.00  0.00    +0.000 A 
ATOM     29  C   UNL     1       4.544   5.108  15.818  0.00  0.00    +0.000 A 
ATOM     30  C   UNL     1       5.329   4.448  14.869  0.00  0.00    +0.000 A 
ATOM     31  C   UNL     1       6.686   4.270  15.093  0.00  0.00    +0.000 A 
ATOM     32  C   UNL     1       7.252   4.755  16.268  0.00  0.00    +0.000 A 
ATOM     33  C   UNL     1       6.468   5.411  17.246  0.00  0.00    +0.000 A 
BRANCH  33  34
ATOM     34  C   UNL     1       7.178   5.840  18.504  0.00  0.00    +0.000 C 
ATOM     35  F   UNL     1       6.407   5.771  19.629  0.00  0.00    +0.000 F 
ATOM     36  F   UNL     1       8.280   5.083  18.765  0.00  0.00    +0.000 F 
ATOM     37  F   UNL     1       7.617   7.128  18.444  0.00  0.00    +0.000 F 
ENDBRANCH  33  34
ENDBRANCH  26  28
ENDBRANCH   8  24
TORSDOF 9
ENDMDL
