MODEL 1
REMARK VINA RESULT:      -7.1      0.000      0.000
REMARK  Name = 
REMARK  2 active torsions:
REMARK  status: ('A' for Active; 'I' for Inactive)
REMARK    1  A    between atoms: C_1  and  C_2
REMARK    2  A    between atoms: N_16  and  C_17
REMARK                            x       y       z     vdW  Elec       q    Type
REMARK                         _______ _______ _______ _____ _____    ______ ____
ROOT
ATOM      1  C   UNL     1       7.982   7.427  18.186  0.00  0.00    +0.000 C 
ATOM      2  C   UNL     1       7.176   6.433  17.407  0.00  0.00    +0.000 A 
ATOM      3  N   UNL     1       6.137   5.841  18.039  0.00  0.00    +0.000 NA
ATOM      4  C   UNL     1       5.407   4.925  17.368  0.00  0.00    +0.000 A 
ATOM      5  N   UNL     1       4.317   4.308  18.002  0.00  0.00    +0.000 N 
ATOM      6  C   UNL     1       4.380   4.199  19.460  0.00  0.00    +0.000 C 
ATOM      7  C   UNL     1       4.227   2.722  19.832  0.00  0.00    +0.000 C 
ATOM      8  C   UNL     1       2.838   2.127  19.592  0.00  0.00    +0.000 C 
ATOM      9  C   UNL     1       2.247   2.350  18.198  0.00  0.00    +0.000 C 
ATOM     10  C   UNL     1       1.872   3.813  17.947  0.00  0.00    +0.000 C 
ATOM     11  C   UNL     1       3.018   4.684  17.432  0.00  0.00    +0.000 C 
ATOM     12  C   UNL     1       5.751   4.596  16.069  0.00  0.00    +0.000 A 
ATOM     13  S   UNL     1       5.093   3.397  14.951  0.00  0.00    +0.000 S 
ATOM     14  C   UNL     1       6.198   3.913  13.671  0.00  0.00    +0.000 A 
ATOM     15  S   UNL     1       6.129   3.273  12.133  0.00  0.00    +0.000 S 
ATOM     16  N   UNL     1       7.053   4.889  14.162  0.00  0.00    +0.000 N 
ATOM     17  C   UNL     1       8.120   5.550  13.429  0.00  0.00    +0.000 C 
ATOM     18  C   UNL     1       6.811   5.272  15.501  0.00  0.00    +0.000 A 
ATOM     19  N   UNL     1       7.544   6.196  16.136  0.00  0.00    +0.000 NA
ENDROOT
TORSDOF 0
ENDMDL
MODEL 2
REMARK VINA RESULT:      -6.1     11.045     12.821
REMARK  Name = 
REMARK  2 active torsions:
REMARK  status: ('A' for Active; 'I' for Inactive)
REMARK    1  A    between atoms: C_1  and  C_2
REMARK    2  A    between atoms: N_16  and  C_17
REMARK                            x       y       z     vdW  Elec       q    Type
REMARK                         _______ _______ _______ _____ _____    ______ ____
ROOT
ATOM      1  C   UNL     1      -3.252  10.028  14.548  0.00  0.00    +0.000 C 
ATOM      2  C   UNL     1      -3.288  10.590  15.937  0.00  0.00    +0.000 A 
ATOM      3  N   UNL     1      -4.445  11.154  16.352  0.00  0.00    +0.000 NA
ATOM      4  C   UNL     1      -4.499  11.688  17.589  0.00  0.00    +0.000 A 
ATOM      5  N   UNL     1      -5.694  12.268  18.043  0.00  0.00    +0.000 N 
ATOM      6  C   UNL     1      -6.588  12.816  17.022  0.00  0.00    +0.000 C 
ATOM      7  C   UNL     1      -6.846  14.287  17.358  0.00  0.00    +0.000 C 
ATOM      8  C   UNL     1      -7.701  14.534  18.603  0.00  0.00    +0.000 C 
ATOM      9  C   UNL     1      -7.256  13.807  19.873  0.00  0.00    +0.000 C 
ATOM     10  C   UNL     1      -7.475  12.294  19.791  0.00  0.00    +0.000 C 
ATOM     11  C   UNL     1      -6.332  11.521  19.133  0.00  0.00    +0.000 C 
ATOM     12  C   UNL     1      -3.372  11.669  18.391  0.00  0.00    +0.000 A 
ATOM     13  S   UNL     1      -3.061  12.348  19.992  0.00  0.00    +0.000 S 
ATOM     14  C   UNL     1      -1.428  11.673  20.015  0.00  0.00    +0.000 A 
ATOM     15  S   UNL     1      -0.436  11.804  21.349  0.00  0.00    +0.000 S 
ATOM     16  N   UNL     1      -1.166  11.051  18.803  0.00  0.00    +0.000 N 
ATOM     17  C   UNL     1       0.074  10.397  18.419  0.00  0.00    +0.000 C 
ATOM     18  C   UNL     1      -2.246  11.049  17.891  0.00  0.00    +0.000 A 
ATOM     19  N   UNL     1      -2.166  10.498  16.673  0.00  0.00    +0.000 NA
ENDROOT
TORSDOF 0
ENDMDL
MODEL 3
REMARK VINA RESULT:      -6.0      3.517      6.260
REMARK  Name = 
REMARK  2 active torsions:
REMARK  status: ('A' for Active; 'I' for Inactive)
REMARK    1  A    between atoms: C_1  and  C_2
REMARK    2  A    between atoms: N_16  and  C_17
REMARK                            x       y       z     vdW  Elec       q    Type
REMARK                         _______ _______ _______ _____ _____    ______ ____
ROOT
ATOM      1  C   UNL     1       2.254   3.423  21.858  0.00  0.00    +0.000 C 
ATOM      2  C   UNL     1       2.514   4.466  20.815  0.00  0.00    +0.000 A 
ATOM      3  N   UNL     1       3.426   4.179  19.859  0.00  0.00    +0.000 NA
ATOM      4  C   UNL     1       3.696   5.110  18.920  0.00  0.00    +0.000 A 
ATOM      5  N   UNL     1       4.631   4.826  17.912  0.00  0.00    +0.000 N 
ATOM      6  C   UNL     1       5.681   3.861  18.241  0.00  0.00    +0.000 C 
ATOM      7  C   UNL     1       7.035   4.535  18.004  0.00  0.00    +0.000 C 
ATOM      8  C   UNL     1       7.386   4.803  16.538  0.00  0.00    +0.000 C 
ATOM      9  C   UNL     1       6.319   5.533  15.720  0.00  0.00    +0.000 C 
ATOM     10  C   UNL     1       5.083   4.668  15.462  0.00  0.00    +0.000 C 
ATOM     11  C   UNL     1       4.035   4.710  16.576  0.00  0.00    +0.000 C 
ATOM     12  C   UNL     1       3.058   6.336  18.971  0.00  0.00    +0.000 A 
ATOM     13  S   UNL     1       3.238   7.792  17.986  0.00  0.00    +0.000 S 
ATOM     14  C   UNL     1       1.947   8.611  18.874  0.00  0.00    +0.000 A 
ATOM     15  S   UNL     1       1.402  10.126  18.442  0.00  0.00    +0.000 S 
ATOM     16  N   UNL     1       1.506   7.796  19.907  0.00  0.00    +0.000 N 
ATOM     17  C   UNL     1       0.474   8.118  20.878  0.00  0.00    +0.000 C 
ATOM     18  C   UNL     1       2.125   6.527  19.969  0.00  0.00    +0.000 A 
ATOM     19  N   UNL     1       1.825   5.618  20.905  0.00  0.00    +0.000 NA
ENDROOT
TORSDOF 0
ENDMDL
MODEL 4
REMARK VINA RESULT:      -6.0     10.417     12.278
REMARK  Name = 
REMARK  2 active torsions:
REMARK  status: ('A' for Active; 'I' for Inactive)
REMARK    1  A    between atoms: C_1  and  C_2
REMARK    2  A    between atoms: N_16  and  C_17
REMARK                            x       y       z     vdW  Elec       q    Type
REMARK                         _______ _______ _______ _____ _____    ______ ____
ROOT
ATOM      1  C   UNL     1      -3.066  10.128  14.888  0.00  0.00    +0.000 C 
ATOM      2  C   UNL     1      -3.265  10.785  16.220  0.00  0.00    +0.000 A 
ATOM      3  N   UNL     1      -2.220  10.787  17.078  0.00  0.00    +0.000 NA
ATOM      4  C   UNL     1      -2.379  11.351  18.293  0.00  0.00    +0.000 A 
ATOM      5  N   UNL     1      -1.302  11.375  19.193  0.00  0.00    +0.000 N 
ATOM      6  C   UNL     1      -0.309  10.308  19.058  0.00  0.00    +0.000 C 
ATOM      7  C   UNL     1      -0.199   9.590  20.406  0.00  0.00    +0.000 C 
ATOM      8  C   UNL     1       0.450  10.401  21.529  0.00  0.00    +0.000 C 
ATOM      9  C   UNL     1      -0.124  11.801  21.759  0.00  0.00    +0.000 C 
ATOM     10  C   UNL     1       0.205  12.765  20.617  0.00  0.00    +0.000 C 
ATOM     11  C   UNL     1      -0.780  12.722  19.447  0.00  0.00    +0.000 C 
ATOM     12  C   UNL     1      -3.606  11.887  18.642  0.00  0.00    +0.000 A 
ATOM     13  S   UNL     1      -4.187  12.600  20.150  0.00  0.00    +0.000 S 
ATOM     14  C   UNL     1      -5.759  12.965  19.429  0.00  0.00    +0.000 A 
ATOM     15  S   UNL     1      -6.937  13.804  20.258  0.00  0.00    +0.000 S 
ATOM     16  N   UNL     1      -5.803  12.466  18.135  0.00  0.00    +0.000 N 
ATOM     17  C   UNL     1      -6.929  12.541  17.219  0.00  0.00    +0.000 C 
ATOM     18  C   UNL     1      -4.605  11.860  17.691  0.00  0.00    +0.000 A 
ATOM     19  N   UNL     1      -4.473  11.321  16.473  0.00  0.00    +0.000 NA
ENDROOT
TORSDOF 0
ENDMDL
MODEL 5
REMARK VINA RESULT:      -5.9      2.427      3.323
REMARK  Name = 
REMARK  2 active torsions:
REMARK  status: ('A' for Active; 'I' for Inactive)
REMARK    1  A    between atoms: C_1  and  C_2
REMARK    2  A    between atoms: N_16  and  C_17
REMARK                            x       y       z     vdW  Elec       q    Type
REMARK                         _______ _______ _______ _____ _____    ______ ____
ROOT
ATOM      1  C   UNL     1       2.248   9.191  18.255  0.00  0.00    +0.000 C 
ATOM      2  C   UNL     1       2.716   7.790  18.007  0.00  0.00    +0.000 A 
ATOM      3  N   UNL     1       2.138   6.802  18.728  0.00  0.00    +0.000 NA
ATOM      4  C   UNL     1       2.557   5.533  18.541  0.00  0.00    +0.000 A 
ATOM      5  N   UNL     1       1.962   4.492  19.270  0.00  0.00    +0.000 N 
ATOM      6  C   UNL     1       1.398   4.842  20.575  0.00  0.00    +0.000 C 
ATOM      7  C   UNL     1       2.052   3.945  21.629  0.00  0.00    +0.000 C 
ATOM      8  C   UNL     1       1.655   2.468  21.569  0.00  0.00    +0.000 C 
ATOM      9  C   UNL     1       1.784   1.798  20.200  0.00  0.00    +0.000 C 
ATOM     10  C   UNL     1       0.750   2.311  19.195  0.00  0.00    +0.000 C 
ATOM     11  C   UNL     1       1.169   3.576  18.443  0.00  0.00    +0.000 C 
ATOM     12  C   UNL     1       3.577   5.276  17.643  0.00  0.00    +0.000 A 
ATOM     13  S   UNL     1       4.424   3.782  17.228  0.00  0.00    +0.000 S 
ATOM     14  C   UNL     1       5.390   4.612  16.002  0.00  0.00    +0.000 A 
ATOM     15  S   UNL     1       6.453   3.794  15.012  0.00  0.00    +0.000 S 
ATOM     16  N   UNL     1       5.096   5.968  16.020  0.00  0.00    +0.000 N 
ATOM     17  C   UNL     1       5.695   6.992  15.180  0.00  0.00    +0.000 C 
ATOM     18  C   UNL     1       4.087   6.345  16.936  0.00  0.00    +0.000 A 
ATOM     19  N   UNL     1       3.682   7.613  17.089  0.00  0.00    +0.000 NA
ENDROOT
TORSDOF 0
ENDMDL
MODEL 6
REMARK VINA RESULT:      -5.8      3.156      6.063
REMARK  Name = 
REMARK  2 active torsions:
REMARK  status: ('A' for Active; 'I' for Inactive)
REMARK    1  A    between atoms: C_1  and  C_2
REMARK    2  A    between atoms: N_16  and  C_17
REMARK                            x       y       z     vdW  Elec       q    Type
REMARK                         _______ _______ _______ _____ _____    ______ ____
ROOT
ATOM      1  C   UNL     1       2.119   9.482  17.734  0.00  0.00    +0.000 C 
ATOM      2  C   UNL     1       2.642   8.114  18.053  0.00  0.00    +0.000 A 
ATOM      3  N   UNL     1       3.667   7.647  17.305  0.00  0.00    +0.000 NA
ATOM      4  C   UNL     1       4.142   6.410  17.556  0.00  0.00    +0.000 A 
ATOM      5  N   UNL     1       5.213   5.912  16.799  0.00  0.00    +0.000 N 
ATOM      6  C   UNL     1       5.360   6.439  15.441  0.00  0.00    +0.000 C 
ATOM      7  C   UNL     1       5.350   5.256  14.470  0.00  0.00    +0.000 C 
ATOM      8  C   UNL     1       6.583   4.351  14.526  0.00  0.00    +0.000 C 
ATOM      9  C   UNL     1       6.978   3.848  15.915  0.00  0.00    +0.000 C 
ATOM     10  C   UNL     1       7.522   4.963  16.812  0.00  0.00    +0.000 C 
ATOM     11  C   UNL     1       6.450   5.747  17.570  0.00  0.00    +0.000 C 
ATOM     12  C   UNL     1       3.558   5.642  18.548  0.00  0.00    +0.000 A 
ATOM     13  S   UNL     1       3.853   3.980  19.069  0.00  0.00    +0.000 S 
ATOM     14  C   UNL     1       2.653   4.121  20.360  0.00  0.00    +0.000 A 
ATOM     15  S   UNL     1       2.390   2.895  21.459  0.00  0.00    +0.000 S 
ATOM     16  N   UNL     1       2.035   5.361  20.286  0.00  0.00    +0.000 N 
ATOM     17  C   UNL     1       0.978   5.852  21.154  0.00  0.00    +0.000 C 
ATOM     18  C   UNL     1       2.535   6.214  19.275  0.00  0.00    +0.000 A 
ATOM     19  N   UNL     1       2.051   7.444  19.059  0.00  0.00    +0.000 NA
ENDROOT
TORSDOF 0
ENDMDL
MODEL 7
REMARK VINA RESULT:      -5.4     11.286     13.081
REMARK  Name = 
REMARK  2 active torsions:
REMARK  status: ('A' for Active; 'I' for Inactive)
REMARK    1  A    between atoms: C_1  and  C_2
REMARK    2  A    between atoms: N_16  and  C_17
REMARK                            x       y       z     vdW  Elec       q    Type
REMARK                         _______ _______ _______ _____ _____    ______ ____
ROOT
ATOM      1  C   UNL     1      -2.718   9.655  15.964  0.00  0.00    +0.000 C 
ATOM      2  C   UNL     1      -2.913  10.511  17.178  0.00  0.00    +0.000 A 
ATOM      3  N   UNL     1      -4.152  11.005  17.402  0.00  0.00    +0.000 NA
ATOM      4  C   UNL     1      -4.351  11.797  18.475  0.00  0.00    +0.000 A 
ATOM      5  N   UNL     1      -5.632  12.309  18.731  0.00  0.00    +0.000 N 
ATOM      6  C   UNL     1      -6.511  12.491  17.575  0.00  0.00    +0.000 C 
ATOM      7  C   UNL     1      -6.956  13.956  17.544  0.00  0.00    +0.000 C 
ATOM      8  C   UNL     1      -7.917  14.372  18.661  0.00  0.00    +0.000 C 
ATOM      9  C   UNL     1      -7.479  14.017  20.083  0.00  0.00    +0.000 C 
ATOM     10  C   UNL     1      -7.520  12.511  20.352  0.00  0.00    +0.000 C 
ATOM     11  C   UNL     1      -6.253  11.758  19.941  0.00  0.00    +0.000 C 
ATOM     12  C   UNL     1      -3.286  12.105  19.303  0.00  0.00    +0.000 A 
ATOM     13  S   UNL     1      -3.164  13.167  20.710  0.00  0.00    +0.000 S 
ATOM     14  C   UNL     1      -1.470  12.727  20.956  0.00  0.00    +0.000 A 
ATOM     15  S   UNL     1      -0.593  13.284  22.260  0.00  0.00    +0.000 S 
ATOM     16  N   UNL     1      -1.057  11.882  19.936  0.00  0.00    +0.000 N 
ATOM     17  C   UNL     1       0.272  11.318  19.767  0.00  0.00    +0.000 C 
ATOM     18  C   UNL     1      -2.065  11.534  19.009  0.00  0.00    +0.000 A 
ATOM     19  N   UNL     1      -1.841  10.732  17.959  0.00  0.00    +0.000 NA
ENDROOT
TORSDOF 0
ENDMDL
MODEL 8
REMARK VINA RESULT:      -5.4     10.148     11.937
REMARK  Name = 
REMARK  2 active torsions:
REMARK  status: ('A' for Active; 'I' for Inactive)
REMARK    1  A    between atoms: C_1  and  C_2
REMARK    2  A    between atoms: N_16  and  C_17
REMARK                            x       y       z     vdW  Elec       q    Type
REMARK                         _______ _______ _______ _____ _____    ______ ____
ROOT
ATOM      1  C   UNL     1       6.004  16.593  19.173  0.00  0.00    +0.000 C 
ATOM      2  C   UNL     1       6.770  15.561  19.945  0.00  0.00    +0.000 A 
ATOM      3  N   UNL     1       7.902  15.077  19.386  0.00  0.00    +0.000 NA
ATOM      4  C   UNL     1       8.598  14.130  20.048  0.00  0.00    +0.000 A 
ATOM      5  N   UNL     1       9.783  13.624  19.491  0.00  0.00    +0.000 N 
ATOM      6  C   UNL     1       9.890  13.656  18.032  0.00  0.00    +0.000 C 
ATOM      7  C   UNL     1      10.159  12.230  17.544  0.00  0.00    +0.000 C 
ATOM      8  C   UNL     1      11.543  11.672  17.888  0.00  0.00    +0.000 C 
ATOM      9  C   UNL     1      11.961  11.781  19.355  0.00  0.00    +0.000 C 
ATOM     10  C   UNL     1      12.230  13.226  19.783  0.00  0.00    +0.000 C 
ATOM     11  C   UNL     1      10.989  13.994  20.240  0.00  0.00    +0.000 C 
ATOM     12  C   UNL     1       8.129  13.661  21.262  0.00  0.00    +0.000 A 
ATOM     13  S   UNL     1       8.719  12.385  22.332  0.00  0.00    +0.000 S 
ATOM     14  C   UNL     1       7.453  12.727  23.518  0.00  0.00    +0.000 A 
ATOM     15  S   UNL     1       7.383  11.941  24.987  0.00  0.00    +0.000 S 
ATOM     16  N   UNL     1       6.608  13.710  23.023  0.00  0.00    +0.000 N 
ATOM     17  C   UNL     1       5.433  14.251  23.687  0.00  0.00    +0.000 C 
ATOM     18  C   UNL     1       6.979  14.233  21.764  0.00  0.00    +0.000 A 
ATOM     19  N   UNL     1       6.274  15.184  21.137  0.00  0.00    +0.000 NA
ENDROOT
TORSDOF 0
ENDMDL
MODEL 9
REMARK VINA RESULT:      -5.2      9.453     11.581
REMARK  Name = 
REMARK  2 active torsions:
REMARK  status: ('A' for Active; 'I' for Inactive)
REMARK    1  A    between atoms: C_1  and  C_2
REMARK    2  A    between atoms: N_16  and  C_17
REMARK                            x       y       z     vdW  Elec       q    Type
REMARK                         _______ _______ _______ _____ _____    ______ ____
ROOT
ATOM      1  C   UNL     1       8.434  12.658  24.687  0.00  0.00    +0.000 C 
ATOM      2  C   UNL     1       8.265  13.134  23.276  0.00  0.00    +0.000 A 
ATOM      3  N   UNL     1       9.090  12.615  22.339  0.00  0.00    +0.000 NA
ATOM      4  C   UNL     1       8.976  13.043  21.065  0.00  0.00    +0.000 A 
ATOM      5  N   UNL     1       9.814  12.507  20.075  0.00  0.00    +0.000 N 
ATOM      6  C   UNL     1      11.120  12.013  20.516  0.00  0.00    +0.000 C 
ATOM      7  C   UNL     1      12.198  12.740  19.710  0.00  0.00    +0.000 C 
ATOM      8  C   UNL     1      12.273  12.365  18.227  0.00  0.00    +0.000 C 
ATOM      9  C   UNL     1      10.952  12.427  17.457  0.00  0.00    +0.000 C 
ATOM     10  C   UNL     1       9.973  11.329  17.880  0.00  0.00    +0.000 C 
ATOM     11  C   UNL     1       9.106  11.683  19.089  0.00  0.00    +0.000 C 
ATOM     12  C   UNL     1       8.042  14.014  20.752  0.00  0.00    +0.000 A 
ATOM     13  S   UNL     1       7.692  14.860  19.241  0.00  0.00    +0.000 S 
ATOM     14  C   UNL     1       6.353  15.740  19.987  0.00  0.00    +0.000 A 
ATOM     15  S   UNL     1       5.367  16.759  19.110  0.00  0.00    +0.000 S 
ATOM     16  N   UNL     1       6.286  15.426  21.337  0.00  0.00    +0.000 N 
ATOM     17  C   UNL     1       5.338  15.960  22.302  0.00  0.00    +0.000 C 
ATOM     18  C   UNL     1       7.228  14.465  21.770  0.00  0.00    +0.000 A 
ATOM     19  N   UNL     1       7.308  14.049  23.041  0.00  0.00    +0.000 NA
ENDROOT
TORSDOF 0
ENDMDL
