MODEL 1
REMARK VINA RESULT:      -8.4      0.000      0.000
REMARK  Name = 
REMARK  7 active torsions:
REMARK  status: ('A' for Active; 'I' for Inactive)
REMARK    1  A    between atoms: C_1  and  C_2
REMARK    2  A    between atoms: C_2  and  C_3
REMARK    3  A    between atoms: C_2  and  C_4
REMARK    4  A    between atoms: C_7  and  N_8
REMARK    5  A    between atoms: N_8  and  C_9
REMARK    6  A    between atoms: N_12  and  C_13
REMARK    7  A    between atoms: N_12  and  C_14
REMARK                            x       y       z     vdW  Elec       q    Type
REMARK                         _______ _______ _______ _____ _____    ______ ____
ROOT
ATOM      1  C   UNL     1       3.514   6.668  17.400  0.00  0.00    +0.000 A 
ATOM      2  N   UNL     1       4.801   6.707  17.051  0.00  0.00    +0.000 NA
ATOM      3  C   UNL     1       5.619   5.826  17.628  0.00  0.00    +0.000 A 
ATOM      4  N   UNL     1       6.956   5.803  17.217  0.00  0.00    +0.000 N 
ATOM      5  C   UNL     1       7.501   7.052  17.719  0.00  0.00    +0.000 C 
ATOM      6  C   UNL     1       7.640   4.591  17.671  0.00  0.00    +0.000 C 
ATOM      7  N   UNL     1       5.262   5.078  18.668  0.00  0.00    +0.000 NA
ATOM      8  C   UNL     1       3.992   4.828  18.809  0.00  0.00    +0.000 A 
ATOM      9  C   UNL     1       3.775   3.716  19.598  0.00  0.00    +0.000 A 
ATOM     10  C   UNL     1       2.803   2.824  19.237  0.00  0.00    +0.000 A 
ATOM     11  C   UNL     1       1.884   3.215  18.267  0.00  0.00    +0.000 A 
ATOM     12  C   UNL     1       1.920   4.551  17.736  0.00  0.00    +0.000 A 
ATOM     13  C   UNL     1       3.025   5.437  18.011  0.00  0.00    +0.000 A 
ENDROOT
BRANCH   1  14
ATOM     14  N   UNL     1       2.909   7.971  17.594  0.00  0.00    +0.000 N 
ATOM     15  H   UNL     1       3.512   8.720  17.287  0.00  0.00    +0.000 HD
BRANCH  14  19
ATOM     16  C   UNL     1       0.433   9.516  20.929  0.00  0.00    +0.000 A 
ATOM     17  C   UNL     1       1.237   8.364  21.041  0.00  0.00    +0.000 A 
ATOM     18  C   UNL     1       2.012   7.836  19.946  0.00  0.00    +0.000 A 
ATOM     19  C   UNL     1       2.048   8.422  18.680  0.00  0.00    +0.000 A 
ATOM     20  C   UNL     1       1.245   9.575  18.562  0.00  0.00    +0.000 A 
ATOM     21  C   UNL     1       0.447  10.097  19.647  0.00  0.00    +0.000 A 
BRANCH  16  23
ATOM     22  C   UNL     1      -0.201   9.537  23.499  0.00  0.00    +0.000 C 
ATOM     23  C   UNL     1      -0.495  10.033  22.062  0.00  0.00    +0.000 C 
ATOM     24  C   UNL     1      -0.625  11.570  22.169  0.00  0.00    +0.000 C 
ENDBRANCH  16  23
ENDBRANCH  14  19
ENDBRANCH   1  14
TORSDOF 3
ENDMDL
MODEL 2
REMARK VINA RESULT:      -8.2      1.467      3.576
REMARK  Name = 
REMARK  7 active torsions:
REMARK  status: ('A' for Active; 'I' for Inactive)
REMARK    1  A    between atoms: C_1  and  C_2
REMARK    2  A    between atoms: C_2  and  C_3
REMARK    3  A    between atoms: C_2  and  C_4
REMARK    4  A    between atoms: C_7  and  N_8
REMARK    5  A    between atoms: N_8  and  C_9
REMARK    6  A    between atoms: N_12  and  C_13
REMARK    7  A    between atoms: N_12  and  C_14
REMARK                            x       y       z     vdW  Elec       q    Type
REMARK                         _______ _______ _______ _____ _____    ______ ____
ROOT
ATOM      1  C   UNL     1       3.508   6.084  18.095  0.00  0.00    +0.000 A 
ATOM      2  N   UNL     1       2.950   5.016  18.669  0.00  0.00    +0.000 NA
ATOM      3  C   UNL     1       3.295   3.818  18.196  0.00  0.00    +0.000 A 
ATOM      4  N   UNL     1       2.778   2.686  18.835  0.00  0.00    +0.000 N 
ATOM      5  C   UNL     1       1.364   2.711  18.511  0.00  0.00    +0.000 C 
ATOM      6  C   UNL     1       3.492   1.469  18.440  0.00  0.00    +0.000 C 
ATOM      7  N   UNL     1       3.979   3.652  17.067  0.00  0.00    +0.000 NA
ATOM      8  C   UNL     1       4.743   4.636  16.689  0.00  0.00    +0.000 A 
ATOM      9  C   UNL     1       5.722   4.214  15.812  0.00  0.00    +0.000 A 
ATOM     10  C   UNL     1       6.990   4.709  15.942  0.00  0.00    +0.000 A 
ATOM     11  C   UNL     1       7.177   5.823  16.755  0.00  0.00    +0.000 A 
ATOM     12  C   UNL     1       6.046   6.473  17.360  0.00  0.00    +0.000 A 
ATOM     13  C   UNL     1       4.736   5.870  17.338  0.00  0.00    +0.000 A 
ENDROOT
BRANCH   1  14
ATOM     14  N   UNL     1       2.593   7.186  17.874  0.00  0.00    +0.000 N 
ATOM     15  H   UNL     1       2.792   7.680  17.017  0.00  0.00    +0.000 HD
BRANCH  14  19
ATOM     16  C   UNL     1       0.600   9.788  20.857  0.00  0.00    +0.000 A 
ATOM     17  C   UNL     1       0.764  10.156  19.506  0.00  0.00    +0.000 A 
ATOM     18  C   UNL     1       1.447   9.329  18.543  0.00  0.00    +0.000 A 
ATOM     19  C   UNL     1       1.998   8.086  18.855  0.00  0.00    +0.000 A 
ATOM     20  C   UNL     1       1.838   7.713  20.205  0.00  0.00    +0.000 A 
ATOM     21  C   UNL     1       1.176   8.546  21.182  0.00  0.00    +0.000 A 
BRANCH  16  23
ATOM     22  C   UNL     1      -1.124  11.705  21.460  0.00  0.00    +0.000 C 
ATOM     23  C   UNL     1      -0.031  10.715  21.932  0.00  0.00    +0.000 C 
ATOM     24  C   UNL     1      -0.625   9.996  23.166  0.00  0.00    +0.000 C 
ENDBRANCH  16  23
ENDBRANCH  14  19
ENDBRANCH   1  14
TORSDOF 3
ENDMDL
MODEL 3
REMARK VINA RESULT:      -8.2      1.403      2.190
REMARK  Name = 
REMARK  7 active torsions:
REMARK  status: ('A' for Active; 'I' for Inactive)
REMARK    1  A    between atoms: C_1  and  C_2
REMARK    2  A    between atoms: C_2  and  C_3
REMARK    3  A    between atoms: C_2  and  C_4
REMARK    4  A    between atoms: C_7  and  N_8
REMARK    5  A    between atoms: N_8  and  C_9
REMARK    6  A    between atoms: N_12  and  C_13
REMARK    7  A    between atoms: N_12  and  C_14
REMARK                            x       y       z     vdW  Elec       q    Type
REMARK                         _______ _______ _______ _____ _____    ______ ____
ROOT
ATOM      1  C   UNL     1       3.255   6.054  18.676  0.00  0.00    +0.000 A 
ATOM      2  N   UNL     1       4.356   6.384  17.998  0.00  0.00    +0.000 NA
ATOM      3  C   UNL     1       5.249   5.420  17.776  0.00  0.00    +0.000 A 
ATOM      4  N   UNL     1       6.373   5.730  17.002  0.00  0.00    +0.000 N 
ATOM      5  C   UNL     1       7.144   6.628  17.843  0.00  0.00    +0.000 C 
ATOM      6  C   UNL     1       7.076   4.524  16.561  0.00  0.00    +0.000 C 
ATOM      7  N   UNL     1       5.198   4.231  18.371  0.00  0.00    +0.000 NA
ATOM      8  C   UNL     1       4.029   3.820  18.771  0.00  0.00    +0.000 A 
ATOM      9  C   UNL     1       3.999   2.451  18.939  0.00  0.00    +0.000 A 
ATOM     10  C   UNL     1       2.899   1.753  18.523  0.00  0.00    +0.000 A 
ATOM     11  C   UNL     1       1.746   2.471  18.221  0.00  0.00    +0.000 A 
ATOM     12  C   UNL     1       1.706   3.893  18.428  0.00  0.00    +0.000 A 
ATOM     13  C   UNL     1       2.902   4.640  18.729  0.00  0.00    +0.000 A 
ENDROOT
BRANCH   1  14
ATOM     14  N   UNL     1       2.846   7.035  19.661  0.00  0.00    +0.000 N 
ATOM     15  H   UNL     1       2.771   6.639  20.586  0.00  0.00    +0.000 HD
BRANCH  14  19
ATOM     16  C   UNL     1      -0.155  10.265  19.202  0.00  0.00    +0.000 A 
ATOM     17  C   UNL     1       0.654   9.812  18.140  0.00  0.00    +0.000 A 
ATOM     18  C   UNL     1       1.658   8.791  18.295  0.00  0.00    +0.000 A 
ATOM     19  C   UNL     1       1.915   8.147  19.507  0.00  0.00    +0.000 A 
ATOM     20  C   UNL     1       1.109   8.596  20.573  0.00  0.00    +0.000 A 
ATOM     21  C   UNL     1       0.117   9.636  20.431  0.00  0.00    +0.000 A 
BRANCH  16  23
ATOM     22  C   UNL     1      -0.646  12.748  18.426  0.00  0.00    +0.000 C 
ATOM     23  C   UNL     1      -1.160  11.442  19.079  0.00  0.00    +0.000 C 
ATOM     24  C   UNL     1      -2.489  11.111  18.360  0.00  0.00    +0.000 C 
ENDBRANCH  16  23
ENDBRANCH  14  19
ENDBRANCH   1  14
TORSDOF 3
ENDMDL
MODEL 4
REMARK VINA RESULT:      -8.1      1.408      3.351
REMARK  Name = 
REMARK  7 active torsions:
REMARK  status: ('A' for Active; 'I' for Inactive)
REMARK    1  A    between atoms: C_1  and  C_2
REMARK    2  A    between atoms: C_2  and  C_3
REMARK    3  A    between atoms: C_2  and  C_4
REMARK    4  A    between atoms: C_7  and  N_8
REMARK    5  A    between atoms: N_8  and  C_9
REMARK    6  A    between atoms: N_12  and  C_13
REMARK    7  A    between atoms: N_12  and  C_14
REMARK                            x       y       z     vdW  Elec       q    Type
REMARK                         _______ _______ _______ _____ _____    ______ ____
ROOT
ATOM      1  C   UNL     1       3.685   6.279  18.053  0.00  0.00    +0.000 A 
ATOM      2  N   UNL     1       3.056   5.260  18.642  0.00  0.00    +0.000 NA
ATOM      3  C   UNL     1       3.295   4.038  18.167  0.00  0.00    +0.000 A 
ATOM      4  N   UNL     1       2.704   2.951  18.820  0.00  0.00    +0.000 N 
ATOM      5  C   UNL     1       1.290   3.087  18.523  0.00  0.00    +0.000 C 
ATOM      6  C   UNL     1       3.312   1.681  18.416  0.00  0.00    +0.000 C 
ATOM      7  N   UNL     1       3.942   3.815  17.026  0.00  0.00    +0.000 NA
ATOM      8  C   UNL     1       4.774   4.735  16.629  0.00  0.00    +0.000 A 
ATOM      9  C   UNL     1       5.699   4.235  15.734  0.00  0.00    +0.000 A 
ATOM     10  C   UNL     1       7.005   4.629  15.838  0.00  0.00    +0.000 A 
ATOM     11  C   UNL     1       7.295   5.727  16.643  0.00  0.00    +0.000 A 
ATOM     12  C   UNL     1       6.230   6.465  17.267  0.00  0.00    +0.000 A 
ATOM     13  C   UNL     1       4.877   5.968  17.272  0.00  0.00    +0.000 A 
ENDROOT
BRANCH   1  14
ATOM     14  N   UNL     1       2.855   7.450  17.844  0.00  0.00    +0.000 N 
ATOM     15  H   UNL     1       3.279   8.109  17.209  0.00  0.00    +0.000 HD
BRANCH  14  19
ATOM     16  C   UNL     1       0.415   9.720  20.766  0.00  0.00    +0.000 A 
ATOM     17  C   UNL     1       1.122   8.548  21.103  0.00  0.00    +0.000 A 
ATOM     18  C   UNL     1       1.884   7.786  20.147  0.00  0.00    +0.000 A 
ATOM     19  C   UNL     1       2.001   8.142  18.803  0.00  0.00    +0.000 A 
ATOM     20  C   UNL     1       1.295   9.313  18.459  0.00  0.00    +0.000 A 
ATOM     21  C   UNL     1       0.510  10.070  19.406  0.00  0.00    +0.000 A 
BRANCH  16  23
ATOM     22  C   UNL     1      -0.527   9.998  23.225  0.00  0.00    +0.000 C 
ATOM     23  C   UNL     1      -0.502  10.489  21.757  0.00  0.00    +0.000 C 
ATOM     24  C   UNL     1      -0.271  12.016  21.831  0.00  0.00    +0.000 C 
ENDBRANCH  16  23
ENDBRANCH  14  19
ENDBRANCH   1  14
TORSDOF 3
ENDMDL
MODEL 5
REMARK VINA RESULT:      -8.0      1.269      1.780
REMARK  Name = 
REMARK  7 active torsions:
REMARK  status: ('A' for Active; 'I' for Inactive)
REMARK    1  A    between atoms: C_1  and  C_2
REMARK    2  A    between atoms: C_2  and  C_3
REMARK    3  A    between atoms: C_2  and  C_4
REMARK    4  A    between atoms: C_7  and  N_8
REMARK    5  A    between atoms: N_8  and  C_9
REMARK    6  A    between atoms: N_12  and  C_13
REMARK    7  A    between atoms: N_12  and  C_14
REMARK                            x       y       z     vdW  Elec       q    Type
REMARK                         _______ _______ _______ _____ _____    ______ ____
ROOT
ATOM      1  C   UNL     1       3.220   6.071  18.701  0.00  0.00    +0.000 A 
ATOM      2  N   UNL     1       4.288   6.398  17.971  0.00  0.00    +0.000 NA
ATOM      3  C   UNL     1       5.162   5.428  17.699  0.00  0.00    +0.000 A 
ATOM      4  N   UNL     1       6.247   5.735  16.872  0.00  0.00    +0.000 N 
ATOM      5  C   UNL     1       7.067   6.622  17.678  0.00  0.00    +0.000 C 
ATOM      6  C   UNL     1       6.919   4.527  16.389  0.00  0.00    +0.000 C 
ATOM      7  N   UNL     1       5.132   4.236  18.289  0.00  0.00    +0.000 NA
ATOM      8  C   UNL     1       3.981   3.832  18.745  0.00  0.00    +0.000 A 
ATOM      9  C   UNL     1       3.950   2.461  18.907  0.00  0.00    +0.000 A 
ATOM     10  C   UNL     1       2.825   1.774  18.543  0.00  0.00    +0.000 A 
ATOM     11  C   UNL     1       1.663   2.502  18.303  0.00  0.00    +0.000 A 
ATOM     12  C   UNL     1       1.644   3.923  18.520  0.00  0.00    +0.000 A 
ATOM     13  C   UNL     1       2.860   4.660  18.764  0.00  0.00    +0.000 A 
ENDROOT
BRANCH   1  14
ATOM     14  N   UNL     1       2.868   7.049  19.712  0.00  0.00    +0.000 N 
ATOM     15  H   UNL     1       2.943   6.676  20.646  0.00  0.00    +0.000 HD
BRANCH  14  19
ATOM     16  C   UNL     1      -0.081  10.355  19.548  0.00  0.00    +0.000 A 
ATOM     17  C   UNL     1       0.147   9.586  20.707  0.00  0.00    +0.000 A 
ATOM     18  C   UNL     1       1.076   8.484  20.752  0.00  0.00    +0.000 A 
ATOM     19  C   UNL     1       1.844   8.086  19.658  0.00  0.00    +0.000 A 
ATOM     20  C   UNL     1       1.620   8.851  18.494  0.00  0.00    +0.000 A 
ATOM     21  C   UNL     1       0.674   9.940  18.435  0.00  0.00    +0.000 A 
BRANCH  16  23
ATOM     22  C   UNL     1      -1.497  12.242  20.747  0.00  0.00    +0.000 C 
ATOM     23  C   UNL     1      -1.158  11.468  19.450  0.00  0.00    +0.000 C 
ATOM     24  C   UNL     1      -0.904  12.549  18.374  0.00  0.00    +0.000 C 
ENDBRANCH  16  23
ENDBRANCH  14  19
ENDBRANCH   1  14
TORSDOF 3
ENDMDL
MODEL 6
REMARK VINA RESULT:      -7.9      1.483      1.985
REMARK  Name = 
REMARK  7 active torsions:
REMARK  status: ('A' for Active; 'I' for Inactive)
REMARK    1  A    between atoms: C_1  and  C_2
REMARK    2  A    between atoms: C_2  and  C_3
REMARK    3  A    between atoms: C_2  and  C_4
REMARK    4  A    between atoms: C_7  and  N_8
REMARK    5  A    between atoms: N_8  and  C_9
REMARK    6  A    between atoms: N_12  and  C_13
REMARK    7  A    between atoms: N_12  and  C_14
REMARK                            x       y       z     vdW  Elec       q    Type
REMARK                         _______ _______ _______ _____ _____    ______ ____
ROOT
ATOM      1  C   UNL     1       3.114   5.880  18.161  0.00  0.00    +0.000 A 
ATOM      2  N   UNL     1       4.045   6.016  17.216  0.00  0.00    +0.000 NA
ATOM      3  C   UNL     1       4.779   4.944  16.921  0.00  0.00    +0.000 A 
ATOM      4  N   UNL     1       5.708   5.048  15.881  0.00  0.00    +0.000 N 
ATOM      5  C   UNL     1       6.727   5.940  16.404  0.00  0.00    +0.000 C 
ATOM      6  C   UNL     1       6.187   3.734  15.448  0.00  0.00    +0.000 C 
ATOM      7  N   UNL     1       4.775   3.836  17.658  0.00  0.00    +0.000 NA
ATOM      8  C   UNL     1       3.705   3.598  18.361  0.00  0.00    +0.000 A 
ATOM      9  C   UNL     1       3.606   2.264  18.703  0.00  0.00    +0.000 A 
ATOM     10  C   UNL     1       2.386   1.650  18.639  0.00  0.00    +0.000 A 
ATOM     11  C   UNL     1       1.256   2.452  18.517  0.00  0.00    +0.000 A 
ATOM     12  C   UNL     1       1.381   3.885  18.547  0.00  0.00    +0.000 A 
ATOM     13  C   UNL     1       2.671   4.525  18.471  0.00  0.00    +0.000 A 
ENDROOT
BRANCH   1  14
ATOM     14  N   UNL     1       3.031   6.996  19.082  0.00  0.00    +0.000 N 
ATOM     15  H   UNL     1       3.358   6.755  20.005  0.00  0.00    +0.000 HD
BRANCH  14  19
ATOM     16  C   UNL     1       0.108  10.321  19.296  0.00  0.00    +0.000 A 
ATOM     17  C   UNL     1       0.467   9.543  20.414  0.00  0.00    +0.000 A 
ATOM     18  C   UNL     1       1.387   8.435  20.340  0.00  0.00    +0.000 A 
ATOM     19  C   UNL     1       2.015   8.040  19.158  0.00  0.00    +0.000 A 
ATOM     20  C   UNL     1       1.659   8.815  18.035  0.00  0.00    +0.000 A 
ATOM     21  C   UNL     1       0.720   9.910  18.097  0.00  0.00    +0.000 A 
BRANCH  16  23
ATOM     22  C   UNL     1      -2.269  11.204  18.535  0.00  0.00    +0.000 C 
ATOM     23  C   UNL     1      -0.966  11.443  19.335  0.00  0.00    +0.000 C 
ATOM     24  C   UNL     1      -1.418  11.884  20.747  0.00  0.00    +0.000 C 
ENDBRANCH  16  23
ENDBRANCH  14  19
ENDBRANCH   1  14
TORSDOF 3
ENDMDL
MODEL 7
REMARK VINA RESULT:      -7.9      2.056      3.823
REMARK  Name = 
REMARK  7 active torsions:
REMARK  status: ('A' for Active; 'I' for Inactive)
REMARK    1  A    between atoms: C_1  and  C_2
REMARK    2  A    between atoms: C_2  and  C_3
REMARK    3  A    between atoms: C_2  and  C_4
REMARK    4  A    between atoms: C_7  and  N_8
REMARK    5  A    between atoms: N_8  and  C_9
REMARK    6  A    between atoms: N_12  and  C_13
REMARK    7  A    between atoms: N_12  and  C_14
REMARK                            x       y       z     vdW  Elec       q    Type
REMARK                         _______ _______ _______ _____ _____    ______ ____
ROOT
ATOM      1  C   UNL     1       4.897   4.435  17.412  0.00  0.00    +0.000 A 
ATOM      2  N   UNL     1       5.145   3.953  16.193  0.00  0.00    +0.000 NA
ATOM      3  C   UNL     1       6.040   4.602  15.449  0.00  0.00    +0.000 A 
ATOM      4  N   UNL     1       6.367   4.068  14.198  0.00  0.00    +0.000 N 
ATOM      5  C   UNL     1       5.165   4.257  13.407  0.00  0.00    +0.000 C 
ATOM      6  C   UNL     1       7.582   4.675  13.651  0.00  0.00    +0.000 C 
ATOM      7  N   UNL     1       6.521   5.800  15.771  0.00  0.00    +0.000 NA
ATOM      8  C   UNL     1       6.517   6.118  17.034  0.00  0.00    +0.000 A 
ATOM      9  C   UNL     1       7.419   7.126  17.310  0.00  0.00    +0.000 A 
ATOM     10  C   UNL     1       8.176   7.049  18.446  0.00  0.00    +0.000 A 
ATOM     11  C   UNL     1       7.806   6.122  19.416  0.00  0.00    +0.000 A 
ATOM     12  C   UNL     1       6.611   5.340  19.249  0.00  0.00    +0.000 A 
ATOM     13  C   UNL     1       5.898   5.321  17.996  0.00  0.00    +0.000 A 
ENDROOT
BRANCH   1  14
ATOM     14  N   UNL     1       3.495   4.433  17.780  0.00  0.00    +0.000 N 
ATOM     15  H   UNL     1       2.905   4.102  17.032  0.00  0.00    +0.000 HD
BRANCH  14  19
ATOM     16  C   UNL     1       1.497   7.411  20.386  0.00  0.00    +0.000 A 
ATOM     17  C   UNL     1       1.590   6.043  20.714  0.00  0.00    +0.000 A 
ATOM     18  C   UNL     1       2.203   5.065  19.851  0.00  0.00    +0.000 A 
ATOM     19  C   UNL     1       2.772   5.384  18.617  0.00  0.00    +0.000 A 
ATOM     20  C   UNL     1       2.682   6.750  18.282  0.00  0.00    +0.000 A 
ATOM     21  C   UNL     1       2.048   7.732  19.131  0.00  0.00    +0.000 A 
BRANCH  16  23
ATOM     22  C   UNL     1       1.529   9.127  22.401  0.00  0.00    +0.000 C 
ATOM     23  C   UNL     1       0.740   8.455  21.250  0.00  0.00    +0.000 C 
ATOM     24  C   UNL     1       0.076   9.612  20.468  0.00  0.00    +0.000 C 
ENDBRANCH  16  23
ENDBRANCH  14  19
ENDBRANCH   1  14
TORSDOF 3
ENDMDL
MODEL 8
REMARK VINA RESULT:      -7.9      1.390      2.010
REMARK  Name = 
REMARK  7 active torsions:
REMARK  status: ('A' for Active; 'I' for Inactive)
REMARK    1  A    between atoms: C_1  and  C_2
REMARK    2  A    between atoms: C_2  and  C_3
REMARK    3  A    between atoms: C_2  and  C_4
REMARK    4  A    between atoms: C_7  and  N_8
REMARK    5  A    between atoms: N_8  and  C_9
REMARK    6  A    between atoms: N_12  and  C_13
REMARK    7  A    between atoms: N_12  and  C_14
REMARK                            x       y       z     vdW  Elec       q    Type
REMARK                         _______ _______ _______ _____ _____    ______ ____
ROOT
ATOM      1  C   UNL     1       2.665   6.035  18.949  0.00  0.00    +0.000 A 
ATOM      2  N   UNL     1       3.468   6.456  17.970  0.00  0.00    +0.000 NA
ATOM      3  C   UNL     1       4.255   5.549  17.392  0.00  0.00    +0.000 A 
ATOM      4  N   UNL     1       5.047   5.957  16.313  0.00  0.00    +0.000 N 
ATOM      5  C   UNL     1       6.036   6.833  16.913  0.00  0.00    +0.000 C 
ATOM      6  C   UNL     1       5.586   4.814  15.575  0.00  0.00    +0.000 C 
ATOM      7  N   UNL     1       4.431   4.324  17.879  0.00  0.00    +0.000 NA
ATOM      8  C   UNL     1       3.472   3.837  18.614  0.00  0.00    +0.000 A 
ATOM      9  C   UNL     1       3.530   2.459  18.680  0.00  0.00    +0.000 A 
ATOM     10  C   UNL     1       2.369   1.740  18.604  0.00  0.00    +0.000 A 
ATOM     11  C   UNL     1       1.166   2.424  18.758  0.00  0.00    +0.000 A 
ATOM     12  C   UNL     1       1.168   3.827  19.072  0.00  0.00    +0.000 A 
ATOM     13  C   UNL     1       2.380   4.606  19.011  0.00  0.00    +0.000 A 
ENDROOT
BRANCH   1  14
ATOM     14  N   UNL     1       2.590   6.933  20.085  0.00  0.00    +0.000 N 
ATOM     15  H   UNL     1       2.743   6.454  20.959  0.00  0.00    +0.000 HD
BRANCH  14  19
ATOM     16  C   UNL     1      -0.249  10.287  20.669  0.00  0.00    +0.000 A 
ATOM     17  C   UNL     1       0.439  10.065  19.459  0.00  0.00    +0.000 A 
ATOM     18  C   UNL     1       1.393   9.000  19.278  0.00  0.00    +0.000 A 
ATOM     19  C   UNL     1       1.714   8.083  20.279  0.00  0.00    +0.000 A 
ATOM     20  C   UNL     1       1.030   8.299  21.493  0.00  0.00    +0.000 A 
ATOM     21  C   UNL     1       0.091   9.379  21.689  0.00  0.00    +0.000 A 
BRANCH  16  23
ATOM     22  C   UNL     1      -1.040  12.250  22.259  0.00  0.00    +0.000 C 
ATOM     23  C   UNL     1      -1.192  11.495  20.916  0.00  0.00    +0.000 C 
ATOM     24  C   UNL     1      -1.178  12.587  19.820  0.00  0.00    +0.000 C 
ENDBRANCH  16  23
ENDBRANCH  14  19
ENDBRANCH   1  14
TORSDOF 3
ENDMDL
MODEL 9
REMARK VINA RESULT:      -7.9      1.406      1.919
REMARK  Name = 
REMARK  7 active torsions:
REMARK  status: ('A' for Active; 'I' for Inactive)
REMARK    1  A    between atoms: C_1  and  C_2
REMARK    2  A    between atoms: C_2  and  C_3
REMARK    3  A    between atoms: C_2  and  C_4
REMARK    4  A    between atoms: C_7  and  N_8
REMARK    5  A    between atoms: N_8  and  C_9
REMARK    6  A    between atoms: N_12  and  C_13
REMARK    7  A    between atoms: N_12  and  C_14
REMARK                            x       y       z     vdW  Elec       q    Type
REMARK                         _______ _______ _______ _____ _____    ______ ____
ROOT
ATOM      1  C   UNL     1       2.666   6.040  18.943  0.00  0.00    +0.000 A 
ATOM      2  N   UNL     1       3.473   6.471  17.972  0.00  0.00    +0.000 NA
ATOM      3  C   UNL     1       4.273   5.572  17.398  0.00  0.00    +0.000 A 
ATOM      4  N   UNL     1       5.070   5.990  16.327  0.00  0.00    +0.000 N 
ATOM      5  C   UNL     1       6.047   6.874  16.938  0.00  0.00    +0.000 C 
ATOM      6  C   UNL     1       5.626   4.854  15.590  0.00  0.00    +0.000 C 
ATOM      7  N   UNL     1       4.456   4.347  17.883  0.00  0.00    +0.000 NA
ATOM      8  C   UNL     1       3.496   3.849  18.609  0.00  0.00    +0.000 A 
ATOM      9  C   UNL     1       3.565   2.472  18.671  0.00  0.00    +0.000 A 
ATOM     10  C   UNL     1       2.411   1.743  18.584  0.00  0.00    +0.000 A 
ATOM     11  C   UNL     1       1.201   2.416  18.729  0.00  0.00    +0.000 A 
ATOM     12  C   UNL     1       1.188   3.818  19.047  0.00  0.00    +0.000 A 
ATOM     13  C   UNL     1       2.393   4.608  18.999  0.00  0.00    +0.000 A 
ENDROOT
BRANCH   1  14
ATOM     14  N   UNL     1       2.573   6.933  20.080  0.00  0.00    +0.000 N 
ATOM     15  H   UNL     1       2.726   6.454  20.955  0.00  0.00    +0.000 HD
BRANCH  14  19
ATOM     16  C   UNL     1       0.053  10.533  20.665  0.00  0.00    +0.000 A 
ATOM     17  C   UNL     1       0.298   9.593  21.687  0.00  0.00    +0.000 A 
ATOM     18  C   UNL     1       1.084   8.401  21.489  0.00  0.00    +0.000 A 
ATOM     19  C   UNL     1       1.684   8.073  20.273  0.00  0.00    +0.000 A 
ATOM     20  C   UNL     1       1.442   9.009  19.246  0.00  0.00    +0.000 A 
ATOM     21  C   UNL     1       0.636  10.193  19.430  0.00  0.00    +0.000 A 
BRANCH  16  23
ATOM     22  C   UNL     1      -1.972  11.971  19.749  0.00  0.00    +0.000 C 
ATOM     23  C   UNL     1      -0.883  11.761  20.829  0.00  0.00    +0.000 C 
ATOM     24  C   UNL     1      -1.616  11.863  22.187  0.00  0.00    +0.000 C 
ENDBRANCH  16  23
ENDBRANCH  14  19
ENDBRANCH   1  14
TORSDOF 3
ENDMDL
