MODEL 1
REMARK VINA RESULT:      -7.1      0.000      0.000
REMARK  Name = 
REMARK  16 active torsions:
REMARK  status: ('A' for Active; 'I' for Inactive)
REMARK    1  A    between atoms: C_2  and  C_3
REMARK    2  A    between atoms: C_3  and  C_4
REMARK    3  A    between atoms: C_4  and  N_5
REMARK    4  A    between atoms: C_4  and  C_10
REMARK    5  A    between atoms: N_5  and  S_6
REMARK    6  A    between atoms: S_6  and  C_7
REMARK    7  A    between atoms: N_12  and  C_13
REMARK    8  A    between atoms: C_13  and  C_14
REMARK    9  A    between atoms: C_14  and  C_15
REMARK   10  A    between atoms: C_18  and  O_19
REMARK   11  A    between atoms: O_19  and  C_20
REMARK   12  A    between atoms: C_20  and  C_21
REMARK   13  A    between atoms: C_22  and  C_23
REMARK   14  A    between atoms: C_23  and  C_24
REMARK   15  A    between atoms: C_25  and  O_26
REMARK   16  A    between atoms: O_26  and  C_27
REMARK                            x       y       z     vdW  Elec       q    Type
REMARK                         _______ _______ _______ _____ _____    ______ ____
ROOT
ATOM      1  C   UNL     1       3.363   2.302  18.085  0.00  0.00    +0.000 C 
ENDROOT
BRANCH   1   4
ATOM      2  C   UNL     1       5.272   3.784  18.217  0.00  0.00    +0.000 C 
ATOM      3  O   UNL     1       5.258   3.694  19.443  0.00  0.00    +0.000 OA
ATOM      4  N   UNL     1       4.345   3.125  17.426  0.00  0.00    +0.000 N 
ATOM      5  H   UNL     1       4.338   3.271  16.423  0.00  0.00    +0.000 HD
BRANCH   2   6
ATOM      6  C   UNL     1       6.320   4.583  17.446  0.00  0.00    +0.000 C 
BRANCH   6   7
ATOM      7  N   UNL     1       6.511   3.987  16.096  0.00  0.00    +0.000 NA
ATOM      8  H   UNL     1       6.033   3.099  15.944  0.00  0.00    +0.000 HD
BRANCH   7   9
ATOM      9  S   UNL     1       6.534   4.886  14.685  0.00  0.00    +0.000 S 
ATOM     10  C   UNL     1       6.035   3.765  13.387  0.00  0.00    +0.000 C 
ATOM     11  O   UNL     1       5.469   5.851  14.863  0.00  0.00    +0.000 OA
ATOM     12  O   UNL     1       7.887   5.323  14.443  0.00  0.00    +0.000 OA
ENDBRANCH   7   9
ENDBRANCH   6   7
BRANCH   6  13
ATOM     13  C   UNL     1       7.582   4.741  18.309  0.00  0.00    +0.000 C 
BRANCH  13  15
ATOM     14  C   UNL     1       7.840   7.226  18.155  0.00  0.00    +0.000 C 
ATOM     15  C   UNL     1       7.814   6.106  18.892  0.00  0.00    +0.000 C 
ENDBRANCH  13  15
ENDBRANCH   6  13
ENDBRANCH   2   6
ENDBRANCH   1   4
BRANCH   1  16
ATOM     16  C   UNL     1       1.957   2.898  18.176  0.00  0.00    +0.000 C 
BRANCH  16  17
ATOM     17  C   UNL     1       1.947   4.261  18.839  0.00  0.00    +0.000 A 
ATOM     18  C   UNL     1       1.739   4.392  20.217  0.00  0.00    +0.000 A 
ATOM     19  C   UNL     1       1.737   5.637  20.827  0.00  0.00    +0.000 A 
ATOM     20  C   UNL     1       1.940   6.788  20.071  0.00  0.00    +0.000 A 
ATOM     21  C   UNL     1       2.197   6.685  18.694  0.00  0.00    +0.000 A 
ATOM     22  C   UNL     1       2.206   5.420  18.087  0.00  0.00    +0.000 A 
BRANCH  21  23
ATOM     23  O   UNL     1       2.458   7.859  18.033  0.00  0.00    +0.000 OA
ATOM     24  C   UNL     1       3.723   7.969  17.395  0.00  0.00    +0.000 C 
ENDBRANCH  21  23
BRANCH  20  25
ATOM     25  O   UNL     1       1.905   8.043  20.622  0.00  0.00    +0.000 OA
BRANCH  25  26
ATOM     26  C   UNL     1       0.674   8.387  21.259  0.00  0.00    +0.000 C 
BRANCH  26  27
ATOM     27  C   UNL     1       0.021   9.421  20.465  0.00  0.00    +0.000 C 
ATOM     28  C   UNL     1      -0.553  10.288  19.868  0.00  0.00    +0.000 C 
BRANCH  28  29
ATOM     29  C   UNL     1      -1.311  11.361  19.220  0.00  0.00    +0.000 C 
ATOM     30  C   UNL     1      -1.802  12.384  20.226  0.00  0.00    +0.000 C 
ENDBRANCH  28  29
ENDBRANCH  26  27
ENDBRANCH  25  26
ENDBRANCH  20  25
ENDBRANCH  16  17
ENDBRANCH   1  16
TORSDOF 13
ENDMDL
MODEL 2
REMARK VINA RESULT:      -7.0      4.013      9.129
REMARK  Name = 
REMARK  16 active torsions:
REMARK  status: ('A' for Active; 'I' for Inactive)
REMARK    1  A    between atoms: C_2  and  C_3
REMARK    2  A    between atoms: C_3  and  C_4
REMARK    3  A    between atoms: C_4  and  N_5
REMARK    4  A    between atoms: C_4  and  C_10
REMARK    5  A    between atoms: N_5  and  S_6
REMARK    6  A    between atoms: S_6  and  C_7
REMARK    7  A    between atoms: N_12  and  C_13
REMARK    8  A    between atoms: C_13  and  C_14
REMARK    9  A    between atoms: C_14  and  C_15
REMARK   10  A    between atoms: C_18  and  O_19
REMARK   11  A    between atoms: O_19  and  C_20
REMARK   12  A    between atoms: C_20  and  C_21
REMARK   13  A    between atoms: C_22  and  C_23
REMARK   14  A    between atoms: C_23  and  C_24
REMARK   15  A    between atoms: C_25  and  O_26
REMARK   16  A    between atoms: O_26  and  C_27
REMARK                            x       y       z     vdW  Elec       q    Type
REMARK                         _______ _______ _______ _____ _____    ______ ____
ROOT
ATOM      1  C   UNL     1       1.914   9.198  17.864  0.00  0.00    +0.000 C 
ENDROOT
BRANCH   1   4
ATOM      2  C   UNL     1       0.162  10.529  18.873  0.00  0.00    +0.000 C 
ATOM      3  O   UNL     1       0.787  10.551  19.931  0.00  0.00    +0.000 OA
ATOM      4  N   UNL     1       0.639   9.860  17.758  0.00  0.00    +0.000 N 
ATOM      5  H   UNL     1       0.071   9.801  16.919  0.00  0.00    +0.000 HD
BRANCH   2   6
ATOM      6  C   UNL     1      -1.161  11.261  18.665  0.00  0.00    +0.000 C 
BRANCH   6   7
ATOM      7  N   UNL     1      -1.540  11.213  17.227  0.00  0.00    +0.000 NA
ATOM      8  H   UNL     1      -0.765  11.068  16.580  0.00  0.00    +0.000 HD
BRANCH   7   9
ATOM      9  S   UNL     1      -2.920  10.454  16.660  0.00  0.00    +0.000 S 
ATOM     10  C   UNL     1      -4.245  11.633  16.874  0.00  0.00    +0.000 C 
ATOM     11  O   UNL     1      -2.686  10.311  15.238  0.00  0.00    +0.000 OA
ATOM     12  O   UNL     1      -3.175   9.297  17.482  0.00  0.00    +0.000 OA
ENDBRANCH   7   9
ENDBRANCH   6   7
BRANCH   6  13
ATOM     13  C   UNL     1      -1.083  12.656  19.304  0.00  0.00    +0.000 C 
BRANCH  13  15
ATOM     14  C   UNL     1      -0.253  14.982  18.896  0.00  0.00    +0.000 C 
ATOM     15  C   UNL     1      -0.326  13.696  18.526  0.00  0.00    +0.000 C 
ENDBRANCH  13  15
ENDBRANCH   6  13
ENDBRANCH   2   6
ENDBRANCH   1   4
BRANCH   1  16
ATOM     16  C   UNL     1       1.922   7.911  18.690  0.00  0.00    +0.000 C 
BRANCH  16  17
ATOM     17  C   UNL     1       2.796   6.834  18.078  0.00  0.00    +0.000 A 
ATOM     18  C   UNL     1       4.044   7.145  17.525  0.00  0.00    +0.000 A 
ATOM     19  C   UNL     1       4.848   6.161  16.973  0.00  0.00    +0.000 A 
ATOM     20  C   UNL     1       4.422   4.835  16.953  0.00  0.00    +0.000 A 
ATOM     21  C   UNL     1       3.195   4.486  17.542  0.00  0.00    +0.000 A 
ATOM     22  C   UNL     1       2.391   5.488  18.107  0.00  0.00    +0.000 A 
BRANCH  21  23
ATOM     23  O   UNL     1       2.879   3.150  17.547  0.00  0.00    +0.000 OA
ATOM     24  C   UNL     1       2.798   2.515  18.815  0.00  0.00    +0.000 C 
ENDBRANCH  21  23
BRANCH  20  25
ATOM     25  O   UNL     1       5.163   3.835  16.380  0.00  0.00    +0.000 OA
BRANCH  25  26
ATOM     26  C   UNL     1       6.345   4.270  15.706  0.00  0.00    +0.000 C 
BRANCH  26  27
ATOM     27  C   UNL     1       6.211   3.945  14.292  0.00  0.00    +0.000 C 
ATOM     28  C   UNL     1       6.033   3.675  13.136  0.00  0.00    +0.000 C 
BRANCH  28  29
ATOM     29  C   UNL     1       5.718   3.337  11.747  0.00  0.00    +0.000 C 
ATOM     30  C   UNL     1       5.701   1.836  11.528  0.00  0.00    +0.000 C 
ENDBRANCH  28  29
ENDBRANCH  26  27
ENDBRANCH  25  26
ENDBRANCH  20  25
ENDBRANCH  16  17
ENDBRANCH   1  16
TORSDOF 13
ENDMDL
MODEL 3
REMARK VINA RESULT:      -6.8      2.191      4.234
REMARK  Name = 
REMARK  16 active torsions:
REMARK  status: ('A' for Active; 'I' for Inactive)
REMARK    1  A    between atoms: C_2  and  C_3
REMARK    2  A    between atoms: C_3  and  C_4
REMARK    3  A    between atoms: C_4  and  N_5
REMARK    4  A    between atoms: C_4  and  C_10
REMARK    5  A    between atoms: N_5  and  S_6
REMARK    6  A    between atoms: S_6  and  C_7
REMARK    7  A    between atoms: N_12  and  C_13
REMARK    8  A    between atoms: C_13  and  C_14
REMARK    9  A    between atoms: C_14  and  C_15
REMARK   10  A    between atoms: C_18  and  O_19
REMARK   11  A    between atoms: O_19  and  C_20
REMARK   12  A    between atoms: C_20  and  C_21
REMARK   13  A    between atoms: C_22  and  C_23
REMARK   14  A    between atoms: C_23  and  C_24
REMARK   15  A    between atoms: C_25  and  O_26
REMARK   16  A    between atoms: O_26  and  C_27
REMARK                            x       y       z     vdW  Elec       q    Type
REMARK                         _______ _______ _______ _____ _____    ______ ____
ROOT
ATOM      1  C   UNL     1       2.486   5.732  18.263  0.00  0.00    +0.000 C 
ENDROOT
BRANCH   1   4
ATOM      2  C   UNL     1       4.093   4.430  17.004  0.00  0.00    +0.000 C 
ATOM      3  O   UNL     1       3.312   3.481  16.988  0.00  0.00    +0.000 OA
ATOM      4  N   UNL     1       3.778   5.623  17.635  0.00  0.00    +0.000 N 
ATOM      5  H   UNL     1       4.468   6.365  17.691  0.00  0.00    +0.000 HD
BRANCH   2   6
ATOM      6  C   UNL     1       5.450   4.413  16.306  0.00  0.00    +0.000 C 
BRANCH   6   7
ATOM      7  N   UNL     1       6.347   5.424  16.927  0.00  0.00    +0.000 NA
ATOM      8  H   UNL     1       5.954   6.362  17.002  0.00  0.00    +0.000 HD
BRANCH   7   9
ATOM      9  S   UNL     1       7.337   5.100  18.237  0.00  0.00    +0.000 S 
ATOM     10  C   UNL     1       8.093   6.658  18.673  0.00  0.00    +0.000 C 
ATOM     11  O   UNL     1       6.416   4.747  19.297  0.00  0.00    +0.000 OA
ATOM     12  O   UNL     1       8.361   4.175  17.817  0.00  0.00    +0.000 OA
ENDBRANCH   7   9
ENDBRANCH   6   7
BRANCH   6  13
ATOM     13  C   UNL     1       5.247   4.521  14.787  0.00  0.00    +0.000 C 
BRANCH  13  15
ATOM     14  C   UNL     1       6.055   3.550  12.625  0.00  0.00    +0.000 C 
ATOM     15  C   UNL     1       6.235   3.776  13.934  0.00  0.00    +0.000 C 
ENDBRANCH  13  15
ENDBRANCH   6  13
ENDBRANCH   2   6
ENDBRANCH   1   4
BRANCH   1  16
ATOM     16  C   UNL     1       2.482   6.359  19.658  0.00  0.00    +0.000 C 
BRANCH  16  17
ATOM     17  C   UNL     1       1.916   7.764  19.661  0.00  0.00    +0.000 A 
ATOM     18  C   UNL     1       1.901   8.539  18.494  0.00  0.00    +0.000 A 
ATOM     19  C   UNL     1       1.376   9.822  18.492  0.00  0.00    +0.000 A 
ATOM     20  C   UNL     1       0.855  10.369  19.661  0.00  0.00    +0.000 A 
ATOM     21  C   UNL     1       0.815   9.599  20.836  0.00  0.00    +0.000 A 
ATOM     22  C   UNL     1       1.340   8.298  20.827  0.00  0.00    +0.000 A 
BRANCH  21  23
ATOM     23  O   UNL     1       0.220  10.183  21.927  0.00  0.00    +0.000 OA
ATOM     24  C   UNL     1       0.040   9.364  23.075  0.00  0.00    +0.000 C 
ENDBRANCH  21  23
BRANCH  20  25
ATOM     25  O   UNL     1       0.365  11.647  19.719  0.00  0.00    +0.000 OA
BRANCH  25  26
ATOM     26  C   UNL     1      -0.214  12.125  18.503  0.00  0.00    +0.000 C 
BRANCH  26  27
ATOM     27  C   UNL     1      -1.654  11.914  18.568  0.00  0.00    +0.000 C 
ATOM     28  C   UNL     1      -2.849  11.807  18.607  0.00  0.00    +0.000 C 
BRANCH  28  29
ATOM     29  C   UNL     1      -4.313  11.776  18.642  0.00  0.00    +0.000 C 
ATOM     30  C   UNL     1      -4.902  11.692  17.247  0.00  0.00    +0.000 C 
ENDBRANCH  28  29
ENDBRANCH  26  27
ENDBRANCH  25  26
ENDBRANCH  20  25
ENDBRANCH  16  17
ENDBRANCH   1  16
TORSDOF 13
ENDMDL
MODEL 4
REMARK VINA RESULT:      -6.8      4.040      9.341
REMARK  Name = 
REMARK  16 active torsions:
REMARK  status: ('A' for Active; 'I' for Inactive)
REMARK    1  A    between atoms: C_2  and  C_3
REMARK    2  A    between atoms: C_3  and  C_4
REMARK    3  A    between atoms: C_4  and  N_5
REMARK    4  A    between atoms: C_4  and  C_10
REMARK    5  A    between atoms: N_5  and  S_6
REMARK    6  A    between atoms: S_6  and  C_7
REMARK    7  A    between atoms: N_12  and  C_13
REMARK    8  A    between atoms: C_13  and  C_14
REMARK    9  A    between atoms: C_14  and  C_15
REMARK   10  A    between atoms: C_18  and  O_19
REMARK   11  A    between atoms: O_19  and  C_20
REMARK   12  A    between atoms: C_20  and  C_21
REMARK   13  A    between atoms: C_22  and  C_23
REMARK   14  A    between atoms: C_23  and  C_24
REMARK   15  A    between atoms: C_25  and  O_26
REMARK   16  A    between atoms: O_26  and  C_27
REMARK                            x       y       z     vdW  Elec       q    Type
REMARK                         _______ _______ _______ _____ _____    ______ ____
ROOT
ATOM      1  C   UNL     1       2.003   8.766  17.772  0.00  0.00    +0.000 C 
ENDROOT
BRANCH   1   4
ATOM      2  C   UNL     1       0.253  10.304  18.432  0.00  0.00    +0.000 C 
ATOM      3  O   UNL     1      -0.530   9.738  17.673  0.00  0.00    +0.000 OA
ATOM      4  N   UNL     1       1.573   9.898  18.553  0.00  0.00    +0.000 N 
ATOM      5  H   UNL     1       2.215  10.425  19.135  0.00  0.00    +0.000 HD
BRANCH   2   6
ATOM      6  C   UNL     1      -0.146  11.465  19.339  0.00  0.00    +0.000 C 
BRANCH   6   7
ATOM      7  N   UNL     1      -0.968  10.959  20.470  0.00  0.00    +0.000 NA
ATOM      8  H   UNL     1      -1.094   9.947  20.494  0.00  0.00    +0.000 HD
BRANCH   7   9
ATOM      9  S   UNL     1      -0.876  11.571  22.025  0.00  0.00    +0.000 S 
ATOM     10  C   UNL     1      -0.651  10.156  23.092  0.00  0.00    +0.000 C 
ATOM     11  O   UNL     1       0.358  12.329  22.035  0.00  0.00    +0.000 OA
ATOM     12  O   UNL     1      -2.131  12.209  22.339  0.00  0.00    +0.000 OA
ENDBRANCH   7   9
ENDBRANCH   6   7
BRANCH   6  13
ATOM     13  C   UNL     1      -0.765  12.587  18.492  0.00  0.00    +0.000 C 
BRANCH  13  15
ATOM     14  C   UNL     1       0.146  14.904  18.751  0.00  0.00    +0.000 C 
ATOM     15  C   UNL     1      -0.741  13.962  19.100  0.00  0.00    +0.000 C 
ENDBRANCH  13  15
ENDBRANCH   6  13
ENDBRANCH   2   6
ENDBRANCH   1   4
BRANCH   1  16
ATOM     16  C   UNL     1       2.147   7.452  18.540  0.00  0.00    +0.000 C 
BRANCH  16  17
ATOM     17  C   UNL     1       3.186   6.533  17.928  0.00  0.00    +0.000 A 
ATOM     18  C   UNL     1       4.296   7.050  17.248  0.00  0.00    +0.000 A 
ATOM     19  C   UNL     1       5.251   6.212  16.695  0.00  0.00    +0.000 A 
ATOM     20  C   UNL     1       5.120   4.831  16.802  0.00  0.00    +0.000 A 
ATOM     21  C   UNL     1       4.041   4.284  17.518  0.00  0.00    +0.000 A 
ATOM     22  C   UNL     1       3.084   5.140  18.082  0.00  0.00    +0.000 A 
BRANCH  21  23
ATOM     23  O   UNL     1       4.021   2.916  17.640  0.00  0.00    +0.000 OA
ATOM     24  C   UNL     1       3.623   2.391  18.898  0.00  0.00    +0.000 C 
ENDBRANCH  21  23
BRANCH  20  25
ATOM     25  O   UNL     1       6.016   3.962  16.235  0.00  0.00    +0.000 OA
BRANCH  25  26
ATOM     26  C   UNL     1       6.799   4.512  15.175  0.00  0.00    +0.000 C 
BRANCH  26  27
ATOM     27  C   UNL     1       6.279   4.005  13.911  0.00  0.00    +0.000 C 
ATOM     28  C   UNL     1       5.882   3.527  12.884  0.00  0.00    +0.000 C 
BRANCH  28  29
ATOM     29  C   UNL     1       5.451   2.863  11.653  0.00  0.00    +0.000 C 
ATOM     30  C   UNL     1       4.043   3.269  11.263  0.00  0.00    +0.000 C 
ENDBRANCH  28  29
ENDBRANCH  26  27
ENDBRANCH  25  26
ENDBRANCH  20  25
ENDBRANCH  16  17
ENDBRANCH   1  16
TORSDOF 13
ENDMDL
MODEL 5
REMARK VINA RESULT:      -6.7      4.148      8.378
REMARK  Name = 
REMARK  16 active torsions:
REMARK  status: ('A' for Active; 'I' for Inactive)
REMARK    1  A    between atoms: C_2  and  C_3
REMARK    2  A    between atoms: C_3  and  C_4
REMARK    3  A    between atoms: C_4  and  N_5
REMARK    4  A    between atoms: C_4  and  C_10
REMARK    5  A    between atoms: N_5  and  S_6
REMARK    6  A    between atoms: S_6  and  C_7
REMARK    7  A    between atoms: N_12  and  C_13
REMARK    8  A    between atoms: C_13  and  C_14
REMARK    9  A    between atoms: C_14  and  C_15
REMARK   10  A    between atoms: C_18  and  O_19
REMARK   11  A    between atoms: O_19  and  C_20
REMARK   12  A    between atoms: C_20  and  C_21
REMARK   13  A    between atoms: C_22  and  C_23
REMARK   14  A    between atoms: C_23  and  C_24
REMARK   15  A    between atoms: C_25  and  O_26
REMARK   16  A    between atoms: O_26  and  C_27
REMARK                            x       y       z     vdW  Elec       q    Type
REMARK                         _______ _______ _______ _____ _____    ______ ____
ROOT
ATOM      1  C   UNL     1       1.997   9.240  18.068  0.00  0.00    +0.000 C 
ENDROOT
BRANCH   1   4
ATOM      2  C   UNL     1       0.093  10.388  19.027  0.00  0.00    +0.000 C 
ATOM      3  O   UNL     1       0.459  10.056  20.152  0.00  0.00    +0.000 OA
ATOM      4  N   UNL     1       0.797  10.018  17.892  0.00  0.00    +0.000 N 
ATOM      5  H   UNL     1       0.436  10.248  16.972  0.00  0.00    +0.000 HD
BRANCH   2   6
ATOM      6  C   UNL     1      -1.128  11.265  18.766  0.00  0.00    +0.000 C 
BRANCH   6   7
ATOM      7  N   UNL     1      -1.521  11.165  17.334  0.00  0.00    +0.000 NA
ATOM      8  H   UNL     1      -0.789  10.831  16.708  0.00  0.00    +0.000 HD
BRANCH   7   9
ATOM      9  S   UNL     1      -3.019  10.620  16.823  0.00  0.00    +0.000 S 
ATOM     10  C   UNL     1      -2.836  10.253  15.086  0.00  0.00    +0.000 C 
ATOM     11  O   UNL     1      -3.195   9.364  17.522  0.00  0.00    +0.000 OA
ATOM     12  O   UNL     1      -3.973  11.690  16.986  0.00  0.00    +0.000 OA
ENDBRANCH   7   9
ENDBRANCH   6   7
BRANCH   6  13
ATOM     13  C   UNL     1      -0.868  12.680  19.306  0.00  0.00    +0.000 C 
BRANCH  13  15
ATOM     14  C   UNL     1       1.071  14.219  18.937  0.00  0.00    +0.000 C 
ATOM     15  C   UNL     1       0.008  13.559  18.457  0.00  0.00    +0.000 C 
ENDBRANCH  13  15
ENDBRANCH   6  13
ENDBRANCH   2   6
ENDBRANCH   1   4
BRANCH   1  16
ATOM     16  C   UNL     1       1.810   7.722  18.036  0.00  0.00    +0.000 C 
BRANCH  16  17
ATOM     17  C   UNL     1       3.128   6.975  18.031  0.00  0.00    +0.000 A 
ATOM     18  C   UNL     1       3.532   6.215  19.135  0.00  0.00    +0.000 A 
ATOM     19  C   UNL     1       4.733   5.524  19.130  0.00  0.00    +0.000 A 
ATOM     20  C   UNL     1       5.569   5.579  18.018  0.00  0.00    +0.000 A 
ATOM     21  C   UNL     1       5.170   6.296  16.877  0.00  0.00    +0.000 A 
ATOM     22  C   UNL     1       3.948   6.985  16.889  0.00  0.00    +0.000 A 
BRANCH  21  23
ATOM     23  O   UNL     1       6.015   6.242  15.796  0.00  0.00    +0.000 OA
ATOM     24  C   UNL     1       5.755   5.234  14.829  0.00  0.00    +0.000 C 
ENDBRANCH  21  23
BRANCH  20  25
ATOM     25  O   UNL     1       6.785   4.948  17.982  0.00  0.00    +0.000 OA
BRANCH  25  26
ATOM     26  C   UNL     1       7.738   5.421  18.935  0.00  0.00    +0.000 C 
BRANCH  26  27
ATOM     27  C   UNL     1       8.033   6.816  18.633  0.00  0.00    +0.000 C 
ATOM     28  C   UNL     1       8.212   7.971  18.361  0.00  0.00    +0.000 C 
BRANCH  28  29
ATOM     29  C   UNL     1       8.338   9.382  17.990  0.00  0.00    +0.000 C 
ATOM     30  C   UNL     1       9.222  10.138  18.964  0.00  0.00    +0.000 C 
ENDBRANCH  28  29
ENDBRANCH  26  27
ENDBRANCH  25  26
ENDBRANCH  20  25
ENDBRANCH  16  17
ENDBRANCH   1  16
TORSDOF 13
ENDMDL
MODEL 6
REMARK VINA RESULT:      -6.6      4.133      9.035
REMARK  Name = 
REMARK  16 active torsions:
REMARK  status: ('A' for Active; 'I' for Inactive)
REMARK    1  A    between atoms: C_2  and  C_3
REMARK    2  A    between atoms: C_3  and  C_4
REMARK    3  A    between atoms: C_4  and  N_5
REMARK    4  A    between atoms: C_4  and  C_10
REMARK    5  A    between atoms: N_5  and  S_6
REMARK    6  A    between atoms: S_6  and  C_7
REMARK    7  A    between atoms: N_12  and  C_13
REMARK    8  A    between atoms: C_13  and  C_14
REMARK    9  A    between atoms: C_14  and  C_15
REMARK   10  A    between atoms: C_18  and  O_19
REMARK   11  A    between atoms: O_19  and  C_20
REMARK   12  A    between atoms: C_20  and  C_21
REMARK   13  A    between atoms: C_22  and  C_23
REMARK   14  A    between atoms: C_23  and  C_24
REMARK   15  A    between atoms: C_25  and  O_26
REMARK   16  A    between atoms: O_26  and  C_27
REMARK                            x       y       z     vdW  Elec       q    Type
REMARK                         _______ _______ _______ _____ _____    ______ ____
ROOT
ATOM      1  C   UNL     1       1.889   8.804  18.128  0.00  0.00    +0.000 C 
ENDROOT
BRANCH   1   4
ATOM      2  C   UNL     1       0.380  10.556  18.846  0.00  0.00    +0.000 C 
ATOM      3  O   UNL     1      -0.502  10.091  18.128  0.00  0.00    +0.000 OA
ATOM      4  N   UNL     1       1.641   9.985  18.914  0.00  0.00    +0.000 N 
ATOM      5  H   UNL     1       2.370  10.428  19.463  0.00  0.00    +0.000 HD
BRANCH   2   6
ATOM      6  C   UNL     1       0.173  11.763  19.757  0.00  0.00    +0.000 C 
BRANCH   6   7
ATOM      7  N   UNL     1       1.490  12.271  20.224  0.00  0.00    +0.000 NA
ATOM      8  H   UNL     1       2.301  11.789  19.837  0.00  0.00    +0.000 HD
BRANCH   7   9
ATOM      9  S   UNL     1       1.829  13.895  20.445  0.00  0.00    +0.000 S 
ATOM     10  C   UNL     1       2.982  14.332  19.154  0.00  0.00    +0.000 C 
ATOM     11  O   UNL     1       0.575  14.560  20.157  0.00  0.00    +0.000 OA
ATOM     12  O   UNL     1       2.466  14.058  21.728  0.00  0.00    +0.000 OA
ENDBRANCH   7   9
ENDBRANCH   6   7
BRANCH   6  13
ATOM     13  C   UNL     1      -0.851  11.413  20.847  0.00  0.00    +0.000 C 
BRANCH  13  15
ATOM     14  C   UNL     1      -0.843  10.196  23.035  0.00  0.00    +0.000 C 
ATOM     15  C   UNL     1      -0.286  11.086  22.202  0.00  0.00    +0.000 C 
ENDBRANCH  13  15
ENDBRANCH   6  13
ENDBRANCH   2   6
ENDBRANCH   1   4
BRANCH   1  16
ATOM     16  C   UNL     1       2.205   7.536  18.923  0.00  0.00    +0.000 C 
BRANCH  16  17
ATOM     17  C   UNL     1       3.221   6.653  18.227  0.00  0.00    +0.000 A 
ATOM     18  C   UNL     1       4.008   7.145  17.179  0.00  0.00    +0.000 A 
ATOM     19  C   UNL     1       4.944   6.342  16.547  0.00  0.00    +0.000 A 
ATOM     20  C   UNL     1       5.114   5.018  16.943  0.00  0.00    +0.000 A 
ATOM     21  C   UNL     1       4.370   4.509  18.021  0.00  0.00    +0.000 A 
ATOM     22  C   UNL     1       3.432   5.333  18.661  0.00  0.00    +0.000 A 
BRANCH  21  23
ATOM     23  O   UNL     1       4.648   3.218  18.397  0.00  0.00    +0.000 OA
ATOM     24  C   UNL     1       3.560   2.444  18.883  0.00  0.00    +0.000 C 
ENDBRANCH  21  23
BRANCH  20  25
ATOM     25  O   UNL     1       5.996   4.174  16.320  0.00  0.00    +0.000 OA
BRANCH  25  26
ATOM     26  C   UNL     1       6.766   4.770  15.275  0.00  0.00    +0.000 C 
BRANCH  26  27
ATOM     27  C   UNL     1       6.399   4.135  14.016  0.00  0.00    +0.000 C 
ATOM     28  C   UNL     1       6.043   3.584  13.011  0.00  0.00    +0.000 C 
BRANCH  28  29
ATOM     29  C   UNL     1       5.536   2.868  11.839  0.00  0.00    +0.000 C 
ATOM     30  C   UNL     1       4.147   3.341  11.454  0.00  0.00    +0.000 C 
ENDBRANCH  28  29
ENDBRANCH  26  27
ENDBRANCH  25  26
ENDBRANCH  20  25
ENDBRANCH  16  17
ENDBRANCH   1  16
TORSDOF 13
ENDMDL
MODEL 7
REMARK VINA RESULT:      -6.5      4.124      9.202
REMARK  Name = 
REMARK  16 active torsions:
REMARK  status: ('A' for Active; 'I' for Inactive)
REMARK    1  A    between atoms: C_2  and  C_3
REMARK    2  A    between atoms: C_3  and  C_4
REMARK    3  A    between atoms: C_4  and  N_5
REMARK    4  A    between atoms: C_4  and  C_10
REMARK    5  A    between atoms: N_5  and  S_6
REMARK    6  A    between atoms: S_6  and  C_7
REMARK    7  A    between atoms: N_12  and  C_13
REMARK    8  A    between atoms: C_13  and  C_14
REMARK    9  A    between atoms: C_14  and  C_15
REMARK   10  A    between atoms: C_18  and  O_19
REMARK   11  A    between atoms: O_19  and  C_20
REMARK   12  A    between atoms: C_20  and  C_21
REMARK   13  A    between atoms: C_22  and  C_23
REMARK   14  A    between atoms: C_23  and  C_24
REMARK   15  A    between atoms: C_25  and  O_26
REMARK   16  A    between atoms: O_26  and  C_27
REMARK                            x       y       z     vdW  Elec       q    Type
REMARK                         _______ _______ _______ _____ _____    ______ ____
ROOT
ATOM      1  C   UNL     1       2.029   9.497  17.934  0.00  0.00    +0.000 C 
ENDROOT
BRANCH   1   4
ATOM      2  C   UNL     1       0.368  10.800  19.118  0.00  0.00    +0.000 C 
ATOM      3  O   UNL     1      -0.518  10.070  18.680  0.00  0.00    +0.000 OA
ATOM      4  N   UNL     1       1.701  10.605  18.793  0.00  0.00    +0.000 N 
ATOM      5  H   UNL     1       2.404  11.263  19.114  0.00  0.00    +0.000 HD
BRANCH   2   6
ATOM      6  C   UNL     1       0.106  11.952  20.085  0.00  0.00    +0.000 C 
BRANCH   6   7
ATOM      7  N   UNL     1       1.371  12.328  20.773  0.00  0.00    +0.000 NA
ATOM      8  H   UNL     1       2.106  11.621  20.741  0.00  0.00    +0.000 HD
BRANCH   7   9
ATOM      9  S   UNL     1       2.034  13.863  20.714  0.00  0.00    +0.000 S 
ATOM     10  C   UNL     1       0.848  14.872  19.840  0.00  0.00    +0.000 C 
ATOM     11  O   UNL     1       2.045  14.296  22.096  0.00  0.00    +0.000 OA
ATOM     12  O   UNL     1       3.259  13.802  19.955  0.00  0.00    +0.000 OA
ENDBRANCH   7   9
ENDBRANCH   6   7
BRANCH   6  13
ATOM     13  C   UNL     1      -1.086  11.602  20.989  0.00  0.00    +0.000 C 
BRANCH  13  15
ATOM     14  C   UNL     1      -1.985  12.361  23.198  0.00  0.00    +0.000 C 
ATOM     15  C   UNL     1      -0.949  11.982  22.437  0.00  0.00    +0.000 C 
ENDBRANCH  13  15
ENDBRANCH   6  13
ENDBRANCH   2   6
ENDBRANCH   1   4
BRANCH   1  16
ATOM     16  C   UNL     1       1.856   8.109  18.552  0.00  0.00    +0.000 C 
BRANCH  16  17
ATOM     17  C   UNL     1       2.826   7.094  17.981  0.00  0.00    +0.000 A 
ATOM     18  C   UNL     1       3.967   7.501  17.279  0.00  0.00    +0.000 A 
ATOM     19  C   UNL     1       4.860   6.575  16.763  0.00  0.00    +0.000 A 
ATOM     20  C   UNL     1       4.632   5.212  16.932  0.00  0.00    +0.000 A 
ATOM     21  C   UNL     1       3.521   4.774  17.671  0.00  0.00    +0.000 A 
ATOM     22  C   UNL     1       2.627   5.719  18.198  0.00  0.00    +0.000 A 
BRANCH  21  23
ATOM     23  O   UNL     1       3.406   3.418  17.854  0.00  0.00    +0.000 OA
ATOM     24  C   UNL     1       2.090   2.896  17.974  0.00  0.00    +0.000 C 
ENDBRANCH  21  23
BRANCH  20  25
ATOM     25  O   UNL     1       5.463   4.259  16.403  0.00  0.00    +0.000 OA
BRANCH  25  26
ATOM     26  C   UNL     1       6.457   4.756  15.505  0.00  0.00    +0.000 C 
BRANCH  26  27
ATOM     27  C   UNL     1       6.270   4.109  14.213  0.00  0.00    +0.000 C 
ATOM     28  C   UNL     1       6.048   3.586  13.156  0.00  0.00    +0.000 C 
BRANCH  28  29
ATOM     29  C   UNL     1       5.680   2.956  11.886  0.00  0.00    +0.000 C 
ATOM     30  C   UNL     1       4.254   3.289  11.491  0.00  0.00    +0.000 C 
ENDBRANCH  28  29
ENDBRANCH  26  27
ENDBRANCH  25  26
ENDBRANCH  20  25
ENDBRANCH  16  17
ENDBRANCH   1  16
TORSDOF 13
ENDMDL
MODEL 8
REMARK VINA RESULT:      -6.5      2.833      4.789
REMARK  Name = 
REMARK  16 active torsions:
REMARK  status: ('A' for Active; 'I' for Inactive)
REMARK    1  A    between atoms: C_2  and  C_3
REMARK    2  A    between atoms: C_3  and  C_4
REMARK    3  A    between atoms: C_4  and  N_5
REMARK    4  A    between atoms: C_4  and  C_10
REMARK    5  A    between atoms: N_5  and  S_6
REMARK    6  A    between atoms: S_6  and  C_7
REMARK    7  A    between atoms: N_12  and  C_13
REMARK    8  A    between atoms: C_13  and  C_14
REMARK    9  A    between atoms: C_14  and  C_15
REMARK   10  A    between atoms: C_18  and  O_19
REMARK   11  A    between atoms: O_19  and  C_20
REMARK   12  A    between atoms: C_20  and  C_21
REMARK   13  A    between atoms: C_22  and  C_23
REMARK   14  A    between atoms: C_23  and  C_24
REMARK   15  A    between atoms: C_25  and  O_26
REMARK   16  A    between atoms: O_26  and  C_27
REMARK                            x       y       z     vdW  Elec       q    Type
REMARK                         _______ _______ _______ _____ _____    ______ ____
ROOT
ATOM      1  C   UNL     1       2.554   7.102  18.288  0.00  0.00    +0.000 C 
ENDROOT
BRANCH   1   4
ATOM      2  C   UNL     1       3.291   4.846  17.807  0.00  0.00    +0.000 C 
ATOM      3  O   UNL     1       2.124   4.499  17.643  0.00  0.00    +0.000 OA
ATOM      4  N   UNL     1       3.624   6.147  18.149  0.00  0.00    +0.000 N 
ATOM      5  H   UNL     1       4.589   6.390  18.344  0.00  0.00    +0.000 HD
BRANCH   2   6
ATOM      6  C   UNL     1       4.481   3.910  17.613  0.00  0.00    +0.000 C 
BRANCH   6   7
ATOM      7  N   UNL     1       4.968   3.436  18.937  0.00  0.00    +0.000 NA
ATOM      8  H   UNL     1       5.234   4.174  19.588  0.00  0.00    +0.000 HD
BRANCH   7   9
ATOM      9  S   UNL     1       4.292   2.146  19.761  0.00  0.00    +0.000 S 
ATOM     10  C   UNL     1       2.940   2.828  20.708  0.00  0.00    +0.000 C 
ATOM     11  O   UNL     1       3.723   1.318  18.718  0.00  0.00    +0.000 OA
ATOM     12  O   UNL     1       5.282   1.612  20.663  0.00  0.00    +0.000 OA
ENDBRANCH   7   9
ENDBRANCH   6   7
BRANCH   6  13
ATOM     13  C   UNL     1       5.521   4.583  16.704  0.00  0.00    +0.000 C 
BRANCH  13  15
ATOM     14  C   UNL     1       6.340   4.220  14.367  0.00  0.00    +0.000 C 
ATOM     15  C   UNL     1       5.326   4.392  15.226  0.00  0.00    +0.000 C 
ENDBRANCH  13  15
ENDBRANCH   6  13
ENDBRANCH   2   6
ENDBRANCH   1   4
BRANCH   1  16
ATOM     16  C   UNL     1       2.186   7.475  19.724  0.00  0.00    +0.000 C 
BRANCH  16  17
ATOM     17  C   UNL     1       1.394   8.765  19.804  0.00  0.00    +0.000 A 
ATOM     18  C   UNL     1       0.442   8.966  20.810  0.00  0.00    +0.000 A 
ATOM     19  C   UNL     1      -0.278  10.148  20.890  0.00  0.00    +0.000 A 
ATOM     20  C   UNL     1      -0.067  11.162  19.959  0.00  0.00    +0.000 A 
ATOM     21  C   UNL     1       0.914  11.007  18.966  0.00  0.00    +0.000 A 
ATOM     22  C   UNL     1       1.644   9.810  18.898  0.00  0.00    +0.000 A 
BRANCH  21  23
ATOM     23  O   UNL     1       1.112  12.079  18.131  0.00  0.00    +0.000 OA
ATOM     24  C   UNL     1       2.338  12.782  18.270  0.00  0.00    +0.000 C 
ENDBRANCH  21  23
BRANCH  20  25
ATOM     25  O   UNL     1      -0.784  12.330  19.972  0.00  0.00    +0.000 OA
BRANCH  25  26
ATOM     26  C   UNL     1      -2.193  12.171  20.145  0.00  0.00    +0.000 C 
BRANCH  26  27
ATOM     27  C   UNL     1      -2.762  11.725  18.880  0.00  0.00    +0.000 C 
ATOM     28  C   UNL     1      -3.237  11.423  17.820  0.00  0.00    +0.000 C 
BRANCH  28  29
ATOM     29  C   UNL     1      -3.832  11.153  16.510  0.00  0.00    +0.000 C 
ATOM     30  C   UNL     1      -2.783  10.742  15.494  0.00  0.00    +0.000 C 
ENDBRANCH  28  29
ENDBRANCH  26  27
ENDBRANCH  25  26
ENDBRANCH  20  25
ENDBRANCH  16  17
ENDBRANCH   1  16
TORSDOF 13
ENDMDL
MODEL 9
REMARK VINA RESULT:      -6.5      3.115      7.839
REMARK  Name = 
REMARK  16 active torsions:
REMARK  status: ('A' for Active; 'I' for Inactive)
REMARK    1  A    between atoms: C_2  and  C_3
REMARK    2  A    between atoms: C_3  and  C_4
REMARK    3  A    between atoms: C_4  and  N_5
REMARK    4  A    between atoms: C_4  and  C_10
REMARK    5  A    between atoms: N_5  and  S_6
REMARK    6  A    between atoms: S_6  and  C_7
REMARK    7  A    between atoms: N_12  and  C_13
REMARK    8  A    between atoms: C_13  and  C_14
REMARK    9  A    between atoms: C_14  and  C_15
REMARK   10  A    between atoms: C_18  and  O_19
REMARK   11  A    between atoms: O_19  and  C_20
REMARK   12  A    between atoms: C_20  and  C_21
REMARK   13  A    between atoms: C_22  and  C_23
REMARK   14  A    between atoms: C_23  and  C_24
REMARK   15  A    between atoms: C_25  and  O_26
REMARK   16  A    between atoms: O_26  and  C_27
REMARK                            x       y       z     vdW  Elec       q    Type
REMARK                         _______ _______ _______ _____ _____    ______ ____
ROOT
ATOM      1  C   UNL     1       3.202   4.009  20.343  0.00  0.00    +0.000 C 
ENDROOT
BRANCH   1   4
ATOM      2  C   UNL     1       2.210   6.085  19.591  0.00  0.00    +0.000 C 
ATOM      3  O   UNL     1       1.510   5.463  18.795  0.00  0.00    +0.000 OA
ATOM      4  N   UNL     1       3.115   5.445  20.422  0.00  0.00    +0.000 N 
ATOM      5  H   UNL     1       3.728   5.988  21.021  0.00  0.00    +0.000 HD
BRANCH   2   6
ATOM      6  C   UNL     1       2.127   7.598  19.778  0.00  0.00    +0.000 C 
BRANCH   6   7
ATOM      7  N   UNL     1       1.489   7.908  21.086  0.00  0.00    +0.000 NA
ATOM      8  H   UNL     1       2.032   7.637  21.906  0.00  0.00    +0.000 HD
BRANCH   7   9
ATOM      9  S   UNL     1       0.639   9.317  21.388  0.00  0.00    +0.000 S 
ATOM     10  C   UNL     1      -0.095   9.106  23.002  0.00  0.00    +0.000 C 
ATOM     11  O   UNL     1       1.666  10.331  21.503  0.00  0.00    +0.000 OA
ATOM     12  O   UNL     1      -0.406   9.440  20.402  0.00  0.00    +0.000 OA
ENDBRANCH   7   9
ENDBRANCH   6   7
BRANCH   6  13
ATOM     13  C   UNL     1       1.485   8.234  18.536  0.00  0.00    +0.000 C 
BRANCH  13  15
ATOM     14  C   UNL     1       1.992  10.632  18.027  0.00  0.00    +0.000 C 
ATOM     15  C   UNL     1       2.273   9.330  17.875  0.00  0.00    +0.000 C 
ENDBRANCH  13  15
ENDBRANCH   6  13
ENDBRANCH   2   6
ENDBRANCH   1   4
BRANCH   1  16
ATOM     16  C   UNL     1       4.551   3.454  19.883  0.00  0.00    +0.000 C 
BRANCH  16  17
ATOM     17  C   UNL     1       4.983   4.015  18.543  0.00  0.00    +0.000 A 
ATOM     18  C   UNL     1       4.232   3.779  17.386  0.00  0.00    +0.000 A 
ATOM     19  C   UNL     1       4.620   4.298  16.161  0.00  0.00    +0.000 A 
ATOM     20  C   UNL     1       5.776   5.066  16.059  0.00  0.00    +0.000 A 
ATOM     21  C   UNL     1       6.526   5.359  17.211  0.00  0.00    +0.000 A 
ATOM     22  C   UNL     1       6.120   4.836  18.448  0.00  0.00    +0.000 A 
BRANCH  21  23
ATOM     23  O   UNL     1       7.611   6.182  17.040  0.00  0.00    +0.000 OA
ATOM     24  C   UNL     1       7.492   7.510  17.528  0.00  0.00    +0.000 C 
ENDBRANCH  21  23
BRANCH  20  25
ATOM     25  O   UNL     1       6.223   5.565  14.863  0.00  0.00    +0.000 OA
BRANCH  25  26
ATOM     26  C   UNL     1       7.063   4.682  14.118  0.00  0.00    +0.000 C 
BRANCH  26  27
ATOM     27  C   UNL     1       6.228   3.931  13.189  0.00  0.00    +0.000 C 
ATOM     28  C   UNL     1       5.502   3.370  12.416  0.00  0.00    +0.000 C 
BRANCH  28  29
ATOM     29  C   UNL     1       4.558   2.767  11.472  0.00  0.00    +0.000 C 
ATOM     30  C   UNL     1       3.728   3.820  10.763  0.00  0.00    +0.000 C 
ENDBRANCH  28  29
ENDBRANCH  26  27
ENDBRANCH  25  26
ENDBRANCH  20  25
ENDBRANCH  16  17
ENDBRANCH   1  16
TORSDOF 13
ENDMDL
