MODEL 1
REMARK VINA RESULT:      -6.4      0.000      0.000
REMARK  Name = 
REMARK  3 active torsions:
REMARK  status: ('A' for Active; 'I' for Inactive)
REMARK    1  A    between atoms: C_2  and  C_3
REMARK    2  A    between atoms: C_7  and  N_8
REMARK    3  A    between atoms: C_9  and  C_11
REMARK                            x       y       z     vdW  Elec       q    Type
REMARK                         _______ _______ _______ _____ _____    ______ ____
ROOT
ATOM      1  C   UNL     1       6.061   4.183  15.855  0.00  0.00    +0.000 A 
ATOM      2  C   UNL     1       7.198   4.655  16.512  0.00  0.00    +0.000 A 
ATOM      3  C   UNL     1       7.168   4.843  17.893  0.00  0.00    +0.000 A 
ATOM      4  C   UNL     1       6.011   4.545  18.617  0.00  0.00    +0.000 A 
ATOM      5  C   UNL     1       4.869   4.067  17.970  0.00  0.00    +0.000 A 
ATOM      6  C   UNL     1       4.896   3.904  16.580  0.00  0.00    +0.000 A 
ENDROOT
BRANCH   5   7
ATOM      7  N   UNL     1       3.671   3.752  18.645  0.00  0.00    +0.000 N 
ATOM      8  C   UNL     1       3.230   2.484  19.009  0.00  0.00    +0.000 C 
ATOM      9  O   UNL     1       3.784   1.427  18.701  0.00  0.00    +0.000 OA
ATOM     10  H   UNL     1       3.026   4.520  18.807  0.00  0.00    +0.000 HD
BRANCH   8  11
ATOM     11  C   UNL     1       1.952   2.460  19.843  0.00  0.00    +0.000 C 
ATOM     12 CL   UNL     1       1.905   3.895  20.888  0.00  0.00    +0.000 Cl
ATOM     13 CL   UNL     1       0.535   2.421  18.773  0.00  0.00    +0.000 Cl
ENDBRANCH   8  11
ENDBRANCH   5   7
BRANCH   1  15
ATOM     14  C   UNL     1       6.134   3.766  13.258  0.00  0.00    +0.000 C 
ATOM     15  C   UNL     1       6.089   3.961  14.442  0.00  0.00    +0.000 C 
ENDBRANCH   1  15
TORSDOF 3
ENDMDL
MODEL 2
REMARK VINA RESULT:      -6.4      0.582      1.193
REMARK  Name = 
REMARK  3 active torsions:
REMARK  status: ('A' for Active; 'I' for Inactive)
REMARK    1  A    between atoms: C_2  and  C_3
REMARK    2  A    between atoms: C_7  and  N_8
REMARK    3  A    between atoms: C_9  and  C_11
REMARK                            x       y       z     vdW  Elec       q    Type
REMARK                         _______ _______ _______ _____ _____    ______ ____
ROOT
ATOM      1  C   UNL     1       6.087   4.203  15.669  0.00  0.00    +0.000 A 
ATOM      2  C   UNL     1       7.261   4.551  16.338  0.00  0.00    +0.000 A 
ATOM      3  C   UNL     1       7.229   4.786  17.711  0.00  0.00    +0.000 A 
ATOM      4  C   UNL     1       6.030   4.658  18.417  0.00  0.00    +0.000 A 
ATOM      5  C   UNL     1       4.849   4.305  17.759  0.00  0.00    +0.000 A 
ATOM      6  C   UNL     1       4.882   4.094  16.375  0.00  0.00    +0.000 A 
ENDROOT
BRANCH   5   7
ATOM      7  N   UNL     1       3.609   4.163  18.414  0.00  0.00    +0.000 N 
ATOM      8  C   UNL     1       3.212   3.104  19.224  0.00  0.00    +0.000 C 
ATOM      9  O   UNL     1       3.860   2.073  19.408  0.00  0.00    +0.000 OA
ATOM     10  H   UNL     1       2.904   4.865  18.207  0.00  0.00    +0.000 HD
BRANCH   8  11
ATOM     11  C   UNL     1       1.856   3.283  19.902  0.00  0.00    +0.000 C 
ATOM     12 CL   UNL     1       0.611   2.441  18.957  0.00  0.00    +0.000 Cl
ATOM     13 CL   UNL     1       1.921   2.645  21.558  0.00  0.00    +0.000 Cl
ENDBRANCH   8  11
ENDBRANCH   5   7
BRANCH   1  15
ATOM     14  C   UNL     1       6.135   3.684  13.089  0.00  0.00    +0.000 C 
ATOM     15  C   UNL     1       6.114   3.933  14.264  0.00  0.00    +0.000 C 
ENDBRANCH   1  15
TORSDOF 3
ENDMDL
MODEL 3
REMARK VINA RESULT:      -6.3      1.124      1.265
REMARK  Name = 
REMARK  3 active torsions:
REMARK  status: ('A' for Active; 'I' for Inactive)
REMARK    1  A    between atoms: C_2  and  C_3
REMARK    2  A    between atoms: C_7  and  N_8
REMARK    3  A    between atoms: C_9  and  C_11
REMARK                            x       y       z     vdW  Elec       q    Type
REMARK                         _______ _______ _______ _____ _____    ______ ____
ROOT
ATOM      1  C   UNL     1       6.075   4.367  16.076  0.00  0.00    +0.000 A 
ATOM      2  C   UNL     1       7.276   4.655  16.725  0.00  0.00    +0.000 A 
ATOM      3  C   UNL     1       7.271   4.939  18.090  0.00  0.00    +0.000 A 
ATOM      4  C   UNL     1       6.072   4.920  18.806  0.00  0.00    +0.000 A 
ATOM      5  C   UNL     1       4.864   4.627  18.167  0.00  0.00    +0.000 A 
ATOM      6  C   UNL     1       4.872   4.367  16.791  0.00  0.00    +0.000 A 
ENDROOT
BRANCH   5   7
ATOM      7  N   UNL     1       3.622   4.595  18.834  0.00  0.00    +0.000 N 
ATOM      8  C   UNL     1       3.016   3.484  19.411  0.00  0.00    +0.000 C 
ATOM      9  O   UNL     1       3.437   2.329  19.334  0.00  0.00    +0.000 OA
ATOM     10  H   UNL     1       3.077   5.453  18.819  0.00  0.00    +0.000 HD
BRANCH   8  11
ATOM     11  C   UNL     1       1.728   3.776  20.175  0.00  0.00    +0.000 C 
ATOM     12 CL   UNL     1       1.654   2.744  21.619  0.00  0.00    +0.000 Cl
ATOM     13 CL   UNL     1       1.672   5.492  20.631  0.00  0.00    +0.000 Cl
ENDBRANCH   8  11
ENDBRANCH   5   7
BRANCH   1  15
ATOM     14  C   UNL     1       6.069   3.756  13.516  0.00  0.00    +0.000 C 
ATOM     15  C   UNL     1       6.073   4.048  14.680  0.00  0.00    +0.000 C 
ENDBRANCH   1  15
TORSDOF 3
ENDMDL
MODEL 4
REMARK VINA RESULT:      -6.3      1.529      2.665
REMARK  Name = 
REMARK  3 active torsions:
REMARK  status: ('A' for Active; 'I' for Inactive)
REMARK    1  A    between atoms: C_2  and  C_3
REMARK    2  A    between atoms: C_7  and  N_8
REMARK    3  A    between atoms: C_9  and  C_11
REMARK                            x       y       z     vdW  Elec       q    Type
REMARK                         _______ _______ _______ _____ _____    ______ ____
ROOT
ATOM      1  C   UNL     1       6.625   6.070  17.138  0.00  0.00    +0.000 A 
ATOM      2  C   UNL     1       6.901   5.389  15.952  0.00  0.00    +0.000 A 
ATOM      3  C   UNL     1       6.152   4.263  15.614  0.00  0.00    +0.000 A 
ATOM      4  C   UNL     1       5.120   3.829  16.450  0.00  0.00    +0.000 A 
ATOM      5  C   UNL     1       4.832   4.507  17.637  0.00  0.00    +0.000 A 
ATOM      6  C   UNL     1       5.604   5.622  17.985  0.00  0.00    +0.000 A 
ENDROOT
BRANCH   5   7
ATOM      7  N   UNL     1       3.807   4.116  18.523  0.00  0.00    +0.000 N 
ATOM      8  C   UNL     1       3.930   3.255  19.609  0.00  0.00    +0.000 C 
ATOM      9  O   UNL     1       4.945   2.621  19.898  0.00  0.00    +0.000 OA
ATOM     10  H   UNL     1       2.868   4.429  18.296  0.00  0.00    +0.000 HD
BRANCH   8  11
ATOM     11  C   UNL     1       2.674   3.114  20.465  0.00  0.00    +0.000 C 
ATOM     12 CL   UNL     1       2.217   4.707  21.105  0.00  0.00    +0.000 Cl
ATOM     13 CL   UNL     1       1.354   2.429  19.494  0.00  0.00    +0.000 Cl
ENDBRANCH   8  11
ENDBRANCH   5   7
BRANCH   1  15
ATOM     14  C   UNL     1       7.988   8.224  17.794  0.00  0.00    +0.000 C 
ATOM     15  C   UNL     1       7.370   7.243  17.482  0.00  0.00    +0.000 C 
ENDBRANCH   1  15
TORSDOF 3
ENDMDL
MODEL 5
REMARK VINA RESULT:      -6.2      1.463      1.809
REMARK  Name = 
REMARK  3 active torsions:
REMARK  status: ('A' for Active; 'I' for Inactive)
REMARK    1  A    between atoms: C_2  and  C_3
REMARK    2  A    between atoms: C_7  and  N_8
REMARK    3  A    between atoms: C_9  and  C_11
REMARK                            x       y       z     vdW  Elec       q    Type
REMARK                         _______ _______ _______ _____ _____    ______ ____
ROOT
ATOM      1  C   UNL     1       5.926   4.278  16.170  0.00  0.00    +0.000 A 
ATOM      2  C   UNL     1       6.987   4.874  16.853  0.00  0.00    +0.000 A 
ATOM      3  C   UNL     1       6.887   5.094  18.226  0.00  0.00    +0.000 A 
ATOM      4  C   UNL     1       5.736   4.706  18.916  0.00  0.00    +0.000 A 
ATOM      5  C   UNL     1       4.670   4.104  18.244  0.00  0.00    +0.000 A 
ATOM      6  C   UNL     1       4.766   3.907  16.861  0.00  0.00    +0.000 A 
ENDROOT
BRANCH   5   7
ATOM      7  N   UNL     1       3.482   3.694  18.884  0.00  0.00    +0.000 N 
ATOM      8  C   UNL     1       2.396   4.497  19.215  0.00  0.00    +0.000 C 
ATOM      9  O   UNL     1       2.355   5.721  19.084  0.00  0.00    +0.000 OA
ATOM     10  H   UNL     1       3.452   2.732  19.211  0.00  0.00    +0.000 HD
BRANCH   8  11
ATOM     11  C   UNL     1       1.195   3.751  19.791  0.00  0.00    +0.000 C 
ATOM     12 CL   UNL     1       0.770   2.402  18.718  0.00  0.00    +0.000 Cl
ATOM     13 CL   UNL     1       1.579   3.156  21.420  0.00  0.00    +0.000 Cl
ENDBRANCH   8  11
ENDBRANCH   5   7
BRANCH   1  15
ATOM     14  C   UNL     1       6.131   3.828  13.585  0.00  0.00    +0.000 C 
ATOM     15  C   UNL     1       6.030   4.023  14.766  0.00  0.00    +0.000 C 
ENDBRANCH   1  15
TORSDOF 3
ENDMDL
MODEL 6
REMARK VINA RESULT:      -6.2      1.453      1.485
REMARK  Name = 
REMARK  3 active torsions:
REMARK  status: ('A' for Active; 'I' for Inactive)
REMARK    1  A    between atoms: C_2  and  C_3
REMARK    2  A    between atoms: C_7  and  N_8
REMARK    3  A    between atoms: C_9  and  C_11
REMARK                            x       y       z     vdW  Elec       q    Type
REMARK                         _______ _______ _______ _____ _____    ______ ____
ROOT
ATOM      1  C   UNL     1       5.263   4.878  15.514  0.00  0.00    +0.000 A 
ATOM      2  C   UNL     1       5.585   6.203  15.813  0.00  0.00    +0.000 A 
ATOM      3  C   UNL     1       5.101   6.782  16.986  0.00  0.00    +0.000 A 
ATOM      4  C   UNL     1       4.313   6.034  17.864  0.00  0.00    +0.000 A 
ATOM      5  C   UNL     1       3.989   4.706  17.577  0.00  0.00    +0.000 A 
ATOM      6  C   UNL     1       4.456   4.137  16.386  0.00  0.00    +0.000 A 
ENDROOT
BRANCH   5   7
ATOM      7  N   UNL     1       3.195   3.902  18.421  0.00  0.00    +0.000 N 
ATOM      8  C   UNL     1       3.638   3.124  19.486  0.00  0.00    +0.000 C 
ATOM      9  O   UNL     1       4.818   2.945  19.789  0.00  0.00    +0.000 OA
ATOM     10  H   UNL     1       2.213   3.816  18.174  0.00  0.00    +0.000 HD
BRANCH   8  11
ATOM     11  C   UNL     1       2.532   2.457  20.300  0.00  0.00    +0.000 C 
ATOM     12 CL   UNL     1       2.177   3.447  21.731  0.00  0.00    +0.000 Cl
ATOM     13 CL   UNL     1       1.078   2.263  19.299  0.00  0.00    +0.000 Cl
ENDBRANCH   8  11
ENDBRANCH   5   7
BRANCH   1  15
ATOM     14  C   UNL     1       6.214   3.734  13.343  0.00  0.00    +0.000 C 
ATOM     15  C   UNL     1       5.776   4.266  14.326  0.00  0.00    +0.000 C 
ENDBRANCH   1  15
TORSDOF 3
ENDMDL
MODEL 7
REMARK VINA RESULT:      -6.2      1.588      1.860
REMARK  Name = 
REMARK  3 active torsions:
REMARK  status: ('A' for Active; 'I' for Inactive)
REMARK    1  A    between atoms: C_2  and  C_3
REMARK    2  A    between atoms: C_7  and  N_8
REMARK    3  A    between atoms: C_9  and  C_11
REMARK                            x       y       z     vdW  Elec       q    Type
REMARK                         _______ _______ _______ _____ _____    ______ ____
ROOT
ATOM      1  C   UNL     1       6.107   4.131  15.263  0.00  0.00    +0.000 A 
ATOM      2  C   UNL     1       7.202   4.672  15.937  0.00  0.00    +0.000 A 
ATOM      3  C   UNL     1       7.118   4.915  17.307  0.00  0.00    +0.000 A 
ATOM      4  C   UNL     1       5.948   4.604  18.004  0.00  0.00    +0.000 A 
ATOM      5  C   UNL     1       4.846   4.057  17.340  0.00  0.00    +0.000 A 
ATOM      6  C   UNL     1       4.928   3.837  15.960  0.00  0.00    +0.000 A 
ENDROOT
BRANCH   5   7
ATOM      7  N   UNL     1       3.638   3.724  17.987  0.00  0.00    +0.000 N 
ATOM      8  C   UNL     1       2.566   4.575  18.235  0.00  0.00    +0.000 C 
ATOM      9  O   UNL     1       2.557   5.786  18.010  0.00  0.00    +0.000 OA
ATOM     10  H   UNL     1       3.580   2.792  18.387  0.00  0.00    +0.000 HD
BRANCH   8  11
ATOM     11  C   UNL     1       1.338   3.904  18.844  0.00  0.00    +0.000 C 
ATOM     12 CL   UNL     1       1.530   2.141  18.762  0.00  0.00    +0.000 Cl
ATOM     13 CL   UNL     1       1.133   4.432  20.527  0.00  0.00    +0.000 Cl
ENDBRANCH   8  11
ENDBRANCH   5   7
BRANCH   1  15
ATOM     14  C   UNL     1       6.287   3.626  12.686  0.00  0.00    +0.000 C 
ATOM     15  C   UNL     1       6.192   3.852  13.862  0.00  0.00    +0.000 C 
ENDBRANCH   1  15
TORSDOF 3
ENDMDL
MODEL 8
REMARK VINA RESULT:      -6.2      1.153      1.153
REMARK  Name = 
REMARK  3 active torsions:
REMARK  status: ('A' for Active; 'I' for Inactive)
REMARK    1  A    between atoms: C_2  and  C_3
REMARK    2  A    between atoms: C_7  and  N_8
REMARK    3  A    between atoms: C_9  and  C_11
REMARK                            x       y       z     vdW  Elec       q    Type
REMARK                         _______ _______ _______ _____ _____    ______ ____
ROOT
ATOM      1  C   UNL     1       6.118   4.464  16.235  0.00  0.00    +0.000 A 
ATOM      2  C   UNL     1       7.368   4.758  16.780  0.00  0.00    +0.000 A 
ATOM      3  C   UNL     1       7.472   5.079  18.133  0.00  0.00    +0.000 A 
ATOM      4  C   UNL     1       6.333   5.090  18.941  0.00  0.00    +0.000 A 
ATOM      5  C   UNL     1       5.076   4.793  18.407  0.00  0.00    +0.000 A 
ATOM      6  C   UNL     1       4.974   4.495  17.042  0.00  0.00    +0.000 A 
ENDROOT
BRANCH   5   7
ATOM      7  N   UNL     1       3.890   4.791  19.170  0.00  0.00    +0.000 N 
ATOM      8  C   UNL     1       3.362   3.720  19.883  0.00  0.00    +0.000 C 
ATOM      9  O   UNL     1       3.808   2.573  19.870  0.00  0.00    +0.000 OA
ATOM     10  H   UNL     1       3.322   5.632  19.125  0.00  0.00    +0.000 HD
BRANCH   8  11
ATOM     11  C   UNL     1       2.128   4.049  20.719  0.00  0.00    +0.000 C 
ATOM     12 CL   UNL     1       1.771   5.784  20.585  0.00  0.00    +0.000 Cl
ATOM     13 CL   UNL     1       0.746   3.083  20.162  0.00  0.00    +0.000 Cl
ENDBRANCH   8  11
ENDBRANCH   5   7
BRANCH   1  15
ATOM     14  C   UNL     1       5.929   3.798  13.696  0.00  0.00    +0.000 C 
ATOM     15  C   UNL     1       6.003   4.107  14.854  0.00  0.00    +0.000 C 
ENDBRANCH   1  15
TORSDOF 3
ENDMDL
MODEL 9
REMARK VINA RESULT:      -6.2      1.650      2.867
REMARK  Name = 
REMARK  3 active torsions:
REMARK  status: ('A' for Active; 'I' for Inactive)
REMARK    1  A    between atoms: C_2  and  C_3
REMARK    2  A    between atoms: C_7  and  N_8
REMARK    3  A    between atoms: C_9  and  C_11
REMARK                            x       y       z     vdW  Elec       q    Type
REMARK                         _______ _______ _______ _____ _____    ______ ____
ROOT
ATOM      1  C   UNL     1       6.572   6.192  17.148  0.00  0.00    +0.000 A 
ATOM      2  C   UNL     1       6.906   5.397  16.052  0.00  0.00    +0.000 A 
ATOM      3  C   UNL     1       6.109   4.300  15.727  0.00  0.00    +0.000 A 
ATOM      4  C   UNL     1       4.974   4.008  16.487  0.00  0.00    +0.000 A 
ATOM      5  C   UNL     1       4.627   4.800  17.585  0.00  0.00    +0.000 A 
ATOM      6  C   UNL     1       5.444   5.887  17.921  0.00  0.00    +0.000 A 
ENDROOT
BRANCH   5   7
ATOM      7  N   UNL     1       3.497   4.555  18.391  0.00  0.00    +0.000 N 
ATOM      8  C   UNL     1       3.410   3.657  19.450  0.00  0.00    +0.000 C 
ATOM      9  O   UNL     1       4.292   2.863  19.779  0.00  0.00    +0.000 OA
ATOM     10  H   UNL     1       2.635   5.019  18.118  0.00  0.00    +0.000 HD
BRANCH   8  11
ATOM     11  C   UNL     1       2.093   3.696  20.222  0.00  0.00    +0.000 C 
ATOM     12 CL   UNL     1       2.269   2.777  21.731  0.00  0.00    +0.000 Cl
ATOM     13 CL   UNL     1       1.645   5.380  20.565  0.00  0.00    +0.000 Cl
ENDBRANCH   8  11
ENDBRANCH   5   7
BRANCH   1  15
ATOM     14  C   UNL     1       8.023   8.299  17.769  0.00  0.00    +0.000 C 
ATOM     15  C   UNL     1       7.367   7.337  17.474  0.00  0.00    +0.000 C 
ENDBRANCH   1  15
TORSDOF 3
ENDMDL
