MODEL 1
REMARK VINA RESULT:      -6.9      0.000      0.000
REMARK  Name = 
REMARK  24 active torsions:
REMARK  status: ('A' for Active; 'I' for Inactive)
REMARK    1  A    between atoms: C_2  and  C_3
REMARK    2  A    between atoms: C_3  and  C_27
REMARK    3  A    between atoms: C_4  and  C_5
REMARK    4  A    between atoms: C_5  and  C_6
REMARK    5  A    between atoms: C_6  and  C_7
REMARK    6  A    between atoms: C_7  and  C_8
REMARK    7  A    between atoms: C_9  and  C_10
REMARK    8  A    between atoms: C_10  and  C_11
REMARK    9  A    between atoms: C_11  and  C_12
REMARK   10  A    between atoms: C_13  and  C_14
REMARK   11  A    between atoms: C_13  and  C_15
REMARK   12  A    between atoms: C_15  and  C_16
REMARK   13  A    between atoms: C_16  and  C_17
REMARK   14  A    between atoms: C_18  and  C_19
REMARK   15  A    between atoms: C_18  and  C_20
REMARK   16  A    between atoms: C_20  and  C_21
REMARK   17  A    between atoms: C_21  and  C_22
REMARK   18  A    between atoms: C_24  and  C_25
REMARK   19  A    between atoms: C_24  and  C_26
REMARK   20  A    between atoms: C_27  and  C_28
REMARK   21  A    between atoms: C_28  and  C_29
REMARK   22  A    between atoms: C_29  and  C_30
REMARK   23  A    between atoms: C_30  and  C_31
REMARK   24  A    between atoms: C_30  and  C_32
REMARK                            x       y       z     vdW  Elec       q    Type
REMARK                         _______ _______ _______ _____ _____    ______ ____
ROOT
ATOM      1  C   UNL     1       8.598  10.289  18.218  0.00  0.00    +0.000 C 
ENDROOT
BRANCH   1   4
ATOM      2  C   UNL     1      10.461  11.300  19.521  0.00  0.00    +0.000 C 
ATOM      3  C   UNL     1       9.558  11.353  20.728  0.00  0.00    +0.000 C 
ATOM      4  C   UNL     1       9.980  10.793  18.371  0.00  0.00    +0.000 C 
BRANCH   2   5
ATOM      5  C   UNL     1      11.891  11.798  19.581  0.00  0.00    +0.000 C 
BRANCH   5   6
ATOM      6  C   UNL     1      11.989  13.223  18.996  0.00  0.00    +0.000 C 
BRANCH   6   8
ATOM      7  C   UNL     1      10.404  15.058  19.641  0.00  0.00    +0.000 C 
ATOM      8  C   UNL     1      11.538  14.335  19.852  0.00  0.00    +0.000 C 
BRANCH   7  10
ATOM      9  C   UNL     1       8.380  14.120  18.425  0.00  0.00    +0.000 C 
ATOM     10  C   UNL     1       9.484  14.891  18.521  0.00  0.00    +0.000 C 
ENDBRANCH   7  10
BRANCH   7  11
ATOM     11  C   UNL     1      10.072  16.205  20.574  0.00  0.00    +0.000 C 
BRANCH  11  12
ATOM     12  C   UNL     1       8.964  15.863  21.573  0.00  0.00    +0.000 C 
BRANCH  12  13
ATOM     13  C   UNL     1       9.318  14.766  22.574  0.00  0.00    +0.000 C 
BRANCH  13  14
ATOM     14  C   UNL     1       8.466  14.889  23.855  0.00  0.00    +0.000 C 
ATOM     15  C   UNL     1       9.277  15.367  25.066  0.00  0.00    +0.000 C 
ATOM     16  C   UNL     1       7.294  15.837  23.614  0.00  0.00    +0.000 C 
ENDBRANCH  13  14
ENDBRANCH  12  13
ENDBRANCH  11  12
ENDBRANCH   7  11
ENDBRANCH   6   8
ENDBRANCH   5   6
ENDBRANCH   2   5
ENDBRANCH   1   4
BRANCH   1  17
ATOM     17  C   UNL     1       8.569   8.812  18.522  0.00  0.00    +0.000 C 
BRANCH  17  18
ATOM     18  C   UNL     1       7.735   8.101  17.528  0.00  0.00    +0.000 C 
ATOM     19  C   UNL     1       7.363   6.817  17.651  0.00  0.00    +0.000 C 
ATOM     20  C   UNL     1       7.784   5.988  18.839  0.00  0.00    +0.000 C 
BRANCH  19  21
ATOM     21  C   UNL     1       6.505   6.173  16.580  0.00  0.00    +0.000 C 
BRANCH  21  22
ATOM     22  C   UNL     1       5.051   6.647  16.667  0.00  0.00    +0.000 C 
BRANCH  22  23
ATOM     23  C   UNL     1       4.263   6.073  17.793  0.00  0.00    +0.000 C 
ATOM     24  C   UNL     1       3.214   6.670  18.317  0.00  0.00    +0.000 C 
ATOM     25  C   UNL     1       2.662   7.990  17.808  0.00  0.00    +0.000 C 
BRANCH  24  26
ATOM     26  C   UNL     1       2.465   6.033  19.472  0.00  0.00    +0.000 C 
BRANCH  26  27
ATOM     27  C   UNL     1       1.701   4.739  19.124  0.00  0.00    +0.000 C 
BRANCH  27  28
ATOM     28  C   UNL     1       2.669   3.618  19.080  0.00  0.00    +0.000 C 
ATOM     29  O   UNL     1       2.146   2.290  19.178  0.00  0.00    +0.000 OA
ATOM     30  C   UNL     1       2.971   2.734  20.273  0.00  0.00    +0.000 C 
ATOM     31  C   UNL     1       4.355   2.180  20.322  0.00  0.00    +0.000 C 
ATOM     32  C   UNL     1       2.209   2.749  21.563  0.00  0.00    +0.000 C 
ENDBRANCH  27  28
ENDBRANCH  26  27
ENDBRANCH  24  26
ENDBRANCH  22  23
ENDBRANCH  21  22
ENDBRANCH  19  21
ENDBRANCH  17  18
ENDBRANCH   1  17
TORSDOF 17
ENDMDL
MODEL 2
REMARK VINA RESULT:      -6.8      2.878      9.785
REMARK  Name = 
REMARK  24 active torsions:
REMARK  status: ('A' for Active; 'I' for Inactive)
REMARK    1  A    between atoms: C_2  and  C_3
REMARK    2  A    between atoms: C_3  and  C_27
REMARK    3  A    between atoms: C_4  and  C_5
REMARK    4  A    between atoms: C_5  and  C_6
REMARK    5  A    between atoms: C_6  and  C_7
REMARK    6  A    between atoms: C_7  and  C_8
REMARK    7  A    between atoms: C_9  and  C_10
REMARK    8  A    between atoms: C_10  and  C_11
REMARK    9  A    between atoms: C_11  and  C_12
REMARK   10  A    between atoms: C_13  and  C_14
REMARK   11  A    between atoms: C_13  and  C_15
REMARK   12  A    between atoms: C_15  and  C_16
REMARK   13  A    between atoms: C_16  and  C_17
REMARK   14  A    between atoms: C_18  and  C_19
REMARK   15  A    between atoms: C_18  and  C_20
REMARK   16  A    between atoms: C_20  and  C_21
REMARK   17  A    between atoms: C_21  and  C_22
REMARK   18  A    between atoms: C_24  and  C_25
REMARK   19  A    between atoms: C_24  and  C_26
REMARK   20  A    between atoms: C_27  and  C_28
REMARK   21  A    between atoms: C_28  and  C_29
REMARK   22  A    between atoms: C_29  and  C_30
REMARK   23  A    between atoms: C_30  and  C_31
REMARK   24  A    between atoms: C_30  and  C_32
REMARK                            x       y       z     vdW  Elec       q    Type
REMARK                         _______ _______ _______ _____ _____    ______ ____
ROOT
ATOM      1  C   UNL     1       8.364   8.314  18.573  0.00  0.00    +0.000 C 
ENDROOT
BRANCH   1   4
ATOM      2  C   UNL     1       7.248   6.397  17.448  0.00  0.00    +0.000 C 
ATOM      3  C   UNL     1       7.546   5.544  18.656  0.00  0.00    +0.000 C 
ATOM      4  C   UNL     1       7.639   7.684  17.449  0.00  0.00    +0.000 C 
BRANCH   2   5
ATOM      5  C   UNL     1       6.513   5.837  16.247  0.00  0.00    +0.000 C 
BRANCH   5   6
ATOM      6  C   UNL     1       5.086   5.405  16.642  0.00  0.00    +0.000 C 
BRANCH   6   8
ATOM      7  C   UNL     1       3.151   6.116  18.073  0.00  0.00    +0.000 C 
ATOM      8  C   UNL     1       4.235   6.410  17.303  0.00  0.00    +0.000 C 
BRANCH   7  10
ATOM      9  C   UNL     1       1.504   4.193  17.852  0.00  0.00    +0.000 C 
ATOM     10  C   UNL     1       2.625   4.779  18.326  0.00  0.00    +0.000 C 
ENDBRANCH   7  10
BRANCH   7  11
ATOM     11  C   UNL     1       2.335   7.246  18.667  0.00  0.00    +0.000 C 
BRANCH  11  12
ATOM     12  C   UNL     1       2.467   8.557  17.886  0.00  0.00    +0.000 C 
BRANCH  12  13
ATOM     13  C   UNL     1       1.183   9.376  17.787  0.00  0.00    +0.000 C 
BRANCH  13  14
ATOM     14  C   UNL     1       1.006  10.280  19.026  0.00  0.00    +0.000 C 
ATOM     15  C   UNL     1       1.514  11.709  18.798  0.00  0.00    +0.000 C 
ATOM     16  C   UNL     1      -0.462  10.315  19.441  0.00  0.00    +0.000 C 
ENDBRANCH  13  14
ENDBRANCH  12  13
ENDBRANCH  11  12
ENDBRANCH   7  11
ENDBRANCH   6   8
ENDBRANCH   5   6
ENDBRANCH   2   5
ENDBRANCH   1   4
BRANCH   1  17
ATOM     17  C   UNL     1       8.673   9.749  18.225  0.00  0.00    +0.000 C 
BRANCH  17  18
ATOM     18  C   UNL     1       9.470  10.377  19.302  0.00  0.00    +0.000 C 
ATOM     19  C   UNL     1      10.439  11.279  19.081  0.00  0.00    +0.000 C 
ATOM     20  C   UNL     1      10.794  11.723  17.684  0.00  0.00    +0.000 C 
BRANCH  19  21
ATOM     21  C   UNL     1      11.203  11.870  20.250  0.00  0.00    +0.000 C 
BRANCH  21  22
ATOM     22  C   UNL     1      10.769  13.311  20.531  0.00  0.00    +0.000 C 
BRANCH  22  23
ATOM     23  C   UNL     1       9.372  13.470  21.019  0.00  0.00    +0.000 C 
ATOM     24  C   UNL     1       9.016  14.371  21.910  0.00  0.00    +0.000 C 
ATOM     25  C   UNL     1       9.981  15.377  22.512  0.00  0.00    +0.000 C 
BRANCH  24  26
ATOM     26  C   UNL     1       7.576  14.468  22.372  0.00  0.00    +0.000 C 
BRANCH  26  27
ATOM     27  C   UNL     1       6.991  13.172  22.972  0.00  0.00    +0.000 C 
BRANCH  27  28
ATOM     28  C   UNL     1       7.721  12.860  24.224  0.00  0.00    +0.000 C 
ATOM     29  O   UNL     1       7.460  11.598  24.842  0.00  0.00    +0.000 OA
ATOM     30  C   UNL     1       7.047  12.766  25.577  0.00  0.00    +0.000 C 
ATOM     31  C   UNL     1       7.896  13.148  26.741  0.00  0.00    +0.000 C 
ATOM     32  C   UNL     1       5.564  12.780  25.797  0.00  0.00    +0.000 C 
ENDBRANCH  27  28
ENDBRANCH  26  27
ENDBRANCH  24  26
ENDBRANCH  22  23
ENDBRANCH  21  22
ENDBRANCH  19  21
ENDBRANCH  17  18
ENDBRANCH   1  17
TORSDOF 17
ENDMDL
MODEL 3
REMARK VINA RESULT:      -6.8      3.374     11.365
REMARK  Name = 
REMARK  24 active torsions:
REMARK  status: ('A' for Active; 'I' for Inactive)
REMARK    1  A    between atoms: C_2  and  C_3
REMARK    2  A    between atoms: C_3  and  C_27
REMARK    3  A    between atoms: C_4  and  C_5
REMARK    4  A    between atoms: C_5  and  C_6
REMARK    5  A    between atoms: C_6  and  C_7
REMARK    6  A    between atoms: C_7  and  C_8
REMARK    7  A    between atoms: C_9  and  C_10
REMARK    8  A    between atoms: C_10  and  C_11
REMARK    9  A    between atoms: C_11  and  C_12
REMARK   10  A    between atoms: C_13  and  C_14
REMARK   11  A    between atoms: C_13  and  C_15
REMARK   12  A    between atoms: C_15  and  C_16
REMARK   13  A    between atoms: C_16  and  C_17
REMARK   14  A    between atoms: C_18  and  C_19
REMARK   15  A    between atoms: C_18  and  C_20
REMARK   16  A    between atoms: C_20  and  C_21
REMARK   17  A    between atoms: C_21  and  C_22
REMARK   18  A    between atoms: C_24  and  C_25
REMARK   19  A    between atoms: C_24  and  C_26
REMARK   20  A    between atoms: C_27  and  C_28
REMARK   21  A    between atoms: C_28  and  C_29
REMARK   22  A    between atoms: C_29  and  C_30
REMARK   23  A    between atoms: C_30  and  C_31
REMARK   24  A    between atoms: C_30  and  C_32
REMARK                            x       y       z     vdW  Elec       q    Type
REMARK                         _______ _______ _______ _____ _____    ______ ____
ROOT
ATOM      1  C   UNL     1       7.846   7.159  18.506  0.00  0.00    +0.000 C 
ENDROOT
BRANCH   1   4
ATOM      2  C   UNL     1       6.527   6.275  16.592  0.00  0.00    +0.000 C 
ATOM      3  C   UNL     1       5.469   7.315  16.870  0.00  0.00    +0.000 C 
ATOM      4  C   UNL     1       7.622   6.238  17.372  0.00  0.00    +0.000 C 
BRANCH   2   5
ATOM      5  C   UNL     1       6.382   5.285  15.454  0.00  0.00    +0.000 C 
BRANCH   5   6
ATOM      6  C   UNL     1       4.974   4.654  15.466  0.00  0.00    +0.000 C 
BRANCH   6   8
ATOM      7  C   UNL     1       3.931   3.898  17.619  0.00  0.00    +0.000 C 
ATOM      8  C   UNL     1       4.689   3.658  16.514  0.00  0.00    +0.000 C 
BRANCH   7  10
ATOM      9  C   UNL     1       2.070   5.623  17.747  0.00  0.00    +0.000 C 
ATOM     10  C   UNL     1       3.324   5.176  17.974  0.00  0.00    +0.000 C 
ENDBRANCH   7  10
BRANCH   7  11
ATOM     11  C   UNL     1       3.745   2.797  18.644  0.00  0.00    +0.000 C 
BRANCH  11  12
ATOM     12  C   UNL     1       2.446   2.011  18.451  0.00  0.00    +0.000 C 
BRANCH  12  13
ATOM     13  C   UNL     1       1.298   2.436  19.364  0.00  0.00    +0.000 C 
BRANCH  13  14
ATOM     14  C   UNL     1       1.823   3.223  20.583  0.00  0.00    +0.000 C 
ATOM     15  C   UNL     1       1.190   4.614  20.712  0.00  0.00    +0.000 C 
ATOM     16  C   UNL     1       1.580   2.427  21.862  0.00  0.00    +0.000 C 
ENDBRANCH  13  14
ENDBRANCH  12  13
ENDBRANCH  11  12
ENDBRANCH   7  11
ENDBRANCH   6   8
ENDBRANCH   5   6
ENDBRANCH   2   5
ENDBRANCH   1   4
BRANCH   1  17
ATOM     17  C   UNL     1       8.238   8.516  17.977  0.00  0.00    +0.000 C 
BRANCH  17  18
ATOM     18  C   UNL     1       9.002   9.263  19.000  0.00  0.00    +0.000 C 
ATOM     19  C   UNL     1       9.205  10.589  18.955  0.00  0.00    +0.000 C 
ATOM     20  C   UNL     1       8.655  11.431  17.830  0.00  0.00    +0.000 C 
BRANCH  19  21
ATOM     21  C   UNL     1      10.002  11.270  20.052  0.00  0.00    +0.000 C 
BRANCH  21  22
ATOM     22  C   UNL     1      11.273  11.921  19.497  0.00  0.00    +0.000 C 
BRANCH  22  23
ATOM     23  C   UNL     1      11.267  13.409  19.477  0.00  0.00    +0.000 C 
ATOM     24  C   UNL     1      11.418  14.117  18.377  0.00  0.00    +0.000 C 
ATOM     25  C   UNL     1      11.576  13.497  17.000  0.00  0.00    +0.000 C 
BRANCH  24  26
ATOM     26  C   UNL     1      11.414  15.632  18.432  0.00  0.00    +0.000 C 
BRANCH  26  27
ATOM     27  C   UNL     1      10.145  16.263  19.041  0.00  0.00    +0.000 C 
BRANCH  27  28
ATOM     28  C   UNL     1       9.008  16.014  18.124  0.00  0.00    +0.000 C 
ATOM     29  O   UNL     1       7.880  16.888  18.219  0.00  0.00    +0.000 OA
ATOM     30  C   UNL     1       7.657  15.515  18.593  0.00  0.00    +0.000 C 
ATOM     31  C   UNL     1       6.910  14.677  17.611  0.00  0.00    +0.000 C 
ATOM     32  C   UNL     1       7.239  15.398  20.027  0.00  0.00    +0.000 C 
ENDBRANCH  27  28
ENDBRANCH  26  27
ENDBRANCH  24  26
ENDBRANCH  22  23
ENDBRANCH  21  22
ENDBRANCH  19  21
ENDBRANCH  17  18
ENDBRANCH   1  17
TORSDOF 17
ENDMDL
MODEL 4
REMARK VINA RESULT:      -6.6      6.035     10.360
REMARK  Name = 
REMARK  24 active torsions:
REMARK  status: ('A' for Active; 'I' for Inactive)
REMARK    1  A    between atoms: C_2  and  C_3
REMARK    2  A    between atoms: C_3  and  C_27
REMARK    3  A    between atoms: C_4  and  C_5
REMARK    4  A    between atoms: C_5  and  C_6
REMARK    5  A    between atoms: C_6  and  C_7
REMARK    6  A    between atoms: C_7  and  C_8
REMARK    7  A    between atoms: C_9  and  C_10
REMARK    8  A    between atoms: C_10  and  C_11
REMARK    9  A    between atoms: C_11  and  C_12
REMARK   10  A    between atoms: C_13  and  C_14
REMARK   11  A    between atoms: C_13  and  C_15
REMARK   12  A    between atoms: C_15  and  C_16
REMARK   13  A    between atoms: C_16  and  C_17
REMARK   14  A    between atoms: C_18  and  C_19
REMARK   15  A    between atoms: C_18  and  C_20
REMARK   16  A    between atoms: C_20  and  C_21
REMARK   17  A    between atoms: C_21  and  C_22
REMARK   18  A    between atoms: C_24  and  C_25
REMARK   19  A    between atoms: C_24  and  C_26
REMARK   20  A    between atoms: C_27  and  C_28
REMARK   21  A    between atoms: C_28  and  C_29
REMARK   22  A    between atoms: C_29  and  C_30
REMARK   23  A    between atoms: C_30  and  C_31
REMARK   24  A    between atoms: C_30  and  C_32
REMARK                            x       y       z     vdW  Elec       q    Type
REMARK                         _______ _______ _______ _____ _____    ______ ____
ROOT
ATOM      1  C   UNL     1       3.040   1.635  18.640  0.00  0.00    +0.000 C 
ENDROOT
BRANCH   1   4
ATOM      2  C   UNL     1       4.441   3.650  18.236  0.00  0.00    +0.000 C 
ATOM      3  C   UNL     1       3.888   3.726  16.834  0.00  0.00    +0.000 C 
ATOM      4  C   UNL     1       4.018   2.666  19.049  0.00  0.00    +0.000 C 
BRANCH   2   5
ATOM      5  C   UNL     1       5.452   4.659  18.742  0.00  0.00    +0.000 C 
BRANCH   5   6
ATOM      6  C   UNL     1       6.854   4.345  18.182  0.00  0.00    +0.000 C 
BRANCH   6   8
ATOM      7  C   UNL     1       6.807   5.505  15.957  0.00  0.00    +0.000 C 
ATOM      8  C   UNL     1       7.023   4.398  16.718  0.00  0.00    +0.000 C 
BRANCH   7  10
ATOM      9  C   UNL     1       6.942   7.686  17.255  0.00  0.00    +0.000 C 
ATOM     10  C   UNL     1       6.330   6.795  16.446  0.00  0.00    +0.000 C 
ENDBRANCH   7  10
BRANCH   7  11
ATOM     11  C   UNL     1       6.980   5.417  14.454  0.00  0.00    +0.000 C 
BRANCH  11  12
ATOM     12  C   UNL     1       6.727   4.011  13.902  0.00  0.00    +0.000 C 
BRANCH  12  13
ATOM     13  C   UNL     1       5.338   3.796  13.308  0.00  0.00    +0.000 C 
BRANCH  13  14
ATOM     14  C   UNL     1       5.430   3.334  11.838  0.00  0.00    +0.000 C 
ATOM     15  C   UNL     1       5.830   1.860  11.701  0.00  0.00    +0.000 C 
ATOM     16  C   UNL     1       4.099   3.574  11.131  0.00  0.00    +0.000 C 
ENDBRANCH  13  14
ENDBRANCH  12  13
ENDBRANCH  11  12
ENDBRANCH   7  11
ENDBRANCH   6   8
ENDBRANCH   5   6
ENDBRANCH   2   5
ENDBRANCH   1   4
BRANCH   1  17
ATOM     17  C   UNL     1       1.683   1.986  19.196  0.00  0.00    +0.000 C 
BRANCH  17  18
ATOM     18  C   UNL     1       1.636   3.417  19.568  0.00  0.00    +0.000 C 
ATOM     19  C   UNL     1       1.639   3.856  20.837  0.00  0.00    +0.000 C 
ATOM     20  C   UNL     1       1.689   2.896  21.999  0.00  0.00    +0.000 C 
BRANCH  19  21
ATOM     21  C   UNL     1       1.590   5.345  21.122  0.00  0.00    +0.000 C 
BRANCH  21  22
ATOM     22  C   UNL     1       2.495   6.128  20.167  0.00  0.00    +0.000 C 
BRANCH  22  23
ATOM     23  C   UNL     1       2.071   7.529  19.896  0.00  0.00    +0.000 C 
ATOM     24  C   UNL     1       2.067   8.061  18.692  0.00  0.00    +0.000 C 
ATOM     25  C   UNL     1       2.454   7.297  17.439  0.00  0.00    +0.000 C 
BRANCH  24  26
ATOM     26  C   UNL     1       1.634   9.501  18.491  0.00  0.00    +0.000 C 
BRANCH  26  27
ATOM     27  C   UNL     1       0.414   9.942  19.325  0.00  0.00    +0.000 C 
BRANCH  27  28
ATOM     28  C   UNL     1      -0.650  10.399  18.400  0.00  0.00    +0.000 C 
ATOM     29  O   UNL     1      -0.665  11.784  18.045  0.00  0.00    +0.000 OA
ATOM     30  C   UNL     1      -1.782  11.312  18.823  0.00  0.00    +0.000 C 
ATOM     31  C   UNL     1      -3.065  11.121  18.087  0.00  0.00    +0.000 C 
ATOM     32  C   UNL     1      -1.867  12.014  20.144  0.00  0.00    +0.000 C 
ENDBRANCH  27  28
ENDBRANCH  26  27
ENDBRANCH  24  26
ENDBRANCH  22  23
ENDBRANCH  21  22
ENDBRANCH  19  21
ENDBRANCH  17  18
ENDBRANCH   1  17
TORSDOF 17
ENDMDL
MODEL 5
REMARK VINA RESULT:      -6.6      6.373     10.804
REMARK  Name = 
REMARK  24 active torsions:
REMARK  status: ('A' for Active; 'I' for Inactive)
REMARK    1  A    between atoms: C_2  and  C_3
REMARK    2  A    between atoms: C_3  and  C_27
REMARK    3  A    between atoms: C_4  and  C_5
REMARK    4  A    between atoms: C_5  and  C_6
REMARK    5  A    between atoms: C_6  and  C_7
REMARK    6  A    between atoms: C_7  and  C_8
REMARK    7  A    between atoms: C_9  and  C_10
REMARK    8  A    between atoms: C_10  and  C_11
REMARK    9  A    between atoms: C_11  and  C_12
REMARK   10  A    between atoms: C_13  and  C_14
REMARK   11  A    between atoms: C_13  and  C_15
REMARK   12  A    between atoms: C_15  and  C_16
REMARK   13  A    between atoms: C_16  and  C_17
REMARK   14  A    between atoms: C_18  and  C_19
REMARK   15  A    between atoms: C_18  and  C_20
REMARK   16  A    between atoms: C_20  and  C_21
REMARK   17  A    between atoms: C_21  and  C_22
REMARK   18  A    between atoms: C_24  and  C_25
REMARK   19  A    between atoms: C_24  and  C_26
REMARK   20  A    between atoms: C_27  and  C_28
REMARK   21  A    between atoms: C_28  and  C_29
REMARK   22  A    between atoms: C_29  and  C_30
REMARK   23  A    between atoms: C_30  and  C_31
REMARK   24  A    between atoms: C_30  and  C_32
REMARK                            x       y       z     vdW  Elec       q    Type
REMARK                         _______ _______ _______ _____ _____    ______ ____
ROOT
ATOM      1  C   UNL     1       1.627   8.410  21.075  0.00  0.00    +0.000 C 
ENDROOT
BRANCH   1   4
ATOM      2  C   UNL     1       2.086   8.366  18.631  0.00  0.00    +0.000 C 
ATOM      3  C   UNL     1       1.628   9.801  18.542  0.00  0.00    +0.000 C 
ATOM      4  C   UNL     1       2.077   7.754  19.829  0.00  0.00    +0.000 C 
BRANCH   2   5
ATOM      5  C   UNL     1       2.561   7.610  17.406  0.00  0.00    +0.000 C 
BRANCH   5   6
ATOM      6  C   UNL     1       3.893   6.890  17.701  0.00  0.00    +0.000 C 
BRANCH   6   8
ATOM      7  C   UNL     1       4.848   4.858  18.821  0.00  0.00    +0.000 C 
ATOM      8  C   UNL     1       3.815   5.514  18.224  0.00  0.00    +0.000 C 
BRANCH   7  10
ATOM      9  C   UNL     1       7.321   5.103  18.293  0.00  0.00    +0.000 C 
ATOM     10  C   UNL     1       6.200   5.376  18.995  0.00  0.00    +0.000 C 
ENDBRANCH   7  10
BRANCH   7  11
ATOM     11  C   UNL     1       4.648   3.428  19.283  0.00  0.00    +0.000 C 
BRANCH  11  12
ATOM     12  C   UNL     1       3.523   2.707  18.535  0.00  0.00    +0.000 C 
BRANCH  12  13
ATOM     13  C   UNL     1       2.376   2.221  19.418  0.00  0.00    +0.000 C 
BRANCH  13  14
ATOM     14  C   UNL     1       2.074   3.236  20.541  0.00  0.00    +0.000 C 
ATOM     15  C   UNL     1       0.944   4.208  20.178  0.00  0.00    +0.000 C 
ATOM     16  C   UNL     1       1.724   2.498  21.831  0.00  0.00    +0.000 C 
ENDBRANCH  13  14
ENDBRANCH  12  13
ENDBRANCH  11  12
ENDBRANCH   7  11
ENDBRANCH   6   8
ENDBRANCH   5   6
ENDBRANCH   2   5
ENDBRANCH   1   4
BRANCH   1  17
ATOM     17  C   UNL     1       0.176   8.076  21.318  0.00  0.00    +0.000 C 
BRANCH  17  18
ATOM     18  C   UNL     1      -0.587   9.303  21.633  0.00  0.00    +0.000 C 
ATOM     19  C   UNL     1      -0.537   9.925  22.821  0.00  0.00    +0.000 C 
ATOM     20  C   UNL     1       0.319   9.402  23.947  0.00  0.00    +0.000 C 
BRANCH  19  21
ATOM     21  C   UNL     1      -1.356  11.182  23.052  0.00  0.00    +0.000 C 
BRANCH  21  22
ATOM     22  C   UNL     1      -0.860  12.340  22.182  0.00  0.00    +0.000 C 
BRANCH  22  23
ATOM     23  C   UNL     1      -1.288  12.292  20.757  0.00  0.00    +0.000 C 
ATOM     24  C   UNL     1      -0.517  12.668  19.758  0.00  0.00    +0.000 C 
ATOM     25  C   UNL     1       0.909  13.155  19.942  0.00  0.00    +0.000 C 
BRANCH  24  26
ATOM     26  C   UNL     1      -1.023  12.604  18.330  0.00  0.00    +0.000 C 
BRANCH  26  27
ATOM     27  C   UNL     1      -1.692  11.273  17.930  0.00  0.00    +0.000 C 
BRANCH  27  28
ATOM     28  C   UNL     1      -3.161  11.429  18.047  0.00  0.00    +0.000 C 
ATOM     29  O   UNL     1      -3.964  10.260  17.873  0.00  0.00    +0.000 OA
ATOM     30  C   UNL     1      -4.107  11.287  16.873  0.00  0.00    +0.000 C 
ATOM     31  C   UNL     1      -5.346  12.113  16.947  0.00  0.00    +0.000 C 
ATOM     32  C   UNL     1      -3.715  10.788  15.514  0.00  0.00    +0.000 C 
ENDBRANCH  27  28
ENDBRANCH  26  27
ENDBRANCH  24  26
ENDBRANCH  22  23
ENDBRANCH  21  22
ENDBRANCH  19  21
ENDBRANCH  17  18
ENDBRANCH   1  17
TORSDOF 17
ENDMDL
MODEL 6
REMARK VINA RESULT:      -6.5      5.725      8.560
REMARK  Name = 
REMARK  24 active torsions:
REMARK  status: ('A' for Active; 'I' for Inactive)
REMARK    1  A    between atoms: C_2  and  C_3
REMARK    2  A    between atoms: C_3  and  C_27
REMARK    3  A    between atoms: C_4  and  C_5
REMARK    4  A    between atoms: C_5  and  C_6
REMARK    5  A    between atoms: C_6  and  C_7
REMARK    6  A    between atoms: C_7  and  C_8
REMARK    7  A    between atoms: C_9  and  C_10
REMARK    8  A    between atoms: C_10  and  C_11
REMARK    9  A    between atoms: C_11  and  C_12
REMARK   10  A    between atoms: C_13  and  C_14
REMARK   11  A    between atoms: C_13  and  C_15
REMARK   12  A    between atoms: C_15  and  C_16
REMARK   13  A    between atoms: C_16  and  C_17
REMARK   14  A    between atoms: C_18  and  C_19
REMARK   15  A    between atoms: C_18  and  C_20
REMARK   16  A    between atoms: C_20  and  C_21
REMARK   17  A    between atoms: C_21  and  C_22
REMARK   18  A    between atoms: C_24  and  C_25
REMARK   19  A    between atoms: C_24  and  C_26
REMARK   20  A    between atoms: C_27  and  C_28
REMARK   21  A    between atoms: C_28  and  C_29
REMARK   22  A    between atoms: C_29  and  C_30
REMARK   23  A    between atoms: C_30  and  C_31
REMARK   24  A    between atoms: C_30  and  C_32
REMARK                            x       y       z     vdW  Elec       q    Type
REMARK                         _______ _______ _______ _____ _____    ______ ____
ROOT
ATOM      1  C   UNL     1       2.168   9.262  17.936  0.00  0.00    +0.000 C 
ENDROOT
BRANCH   1   4
ATOM      2  C   UNL     1       0.140  10.095  19.110  0.00  0.00    +0.000 C 
ATOM      3  C   UNL     1       0.809   9.796  20.429  0.00  0.00    +0.000 C 
ATOM      4  C   UNL     1       0.808   9.838  17.971  0.00  0.00    +0.000 C 
BRANCH   2   5
ATOM      5  C   UNL     1      -1.255  10.682  19.046  0.00  0.00    +0.000 C 
BRANCH   5   6
ATOM      6  C   UNL     1      -1.294  11.874  18.068  0.00  0.00    +0.000 C 
BRANCH   6   8
ATOM      7  C   UNL     1      -0.849  13.812  19.598  0.00  0.00    +0.000 C 
ATOM      8  C   UNL     1      -0.580  13.100  18.470  0.00  0.00    +0.000 C 
BRANCH   7  10
ATOM      9  C   UNL     1      -2.669  14.365  21.283  0.00  0.00    +0.000 C 
ATOM     10  C   UNL     1      -1.906  13.518  20.560  0.00  0.00    +0.000 C 
ENDBRANCH   7  10
BRANCH   7  11
ATOM     11  C   UNL     1      -0.066  15.080  19.878  0.00  0.00    +0.000 C 
BRANCH  11  12
ATOM     12  C   UNL     1       1.395  14.994  19.430  0.00  0.00    +0.000 C 
BRANCH  12  13
ATOM     13  C   UNL     1       2.175  16.303  19.532  0.00  0.00    +0.000 C 
BRANCH  13  14
ATOM     14  C   UNL     1       2.907  16.615  18.210  0.00  0.00    +0.000 C 
ATOM     15  C   UNL     1       3.398  15.353  17.488  0.00  0.00    +0.000 C 
ATOM     16  C   UNL     1       1.994  17.415  17.284  0.00  0.00    +0.000 C 
ENDBRANCH  13  14
ENDBRANCH  12  13
ENDBRANCH  11  12
ENDBRANCH   7  11
ENDBRANCH   6   8
ENDBRANCH   5   6
ENDBRANCH   2   5
ENDBRANCH   1   4
BRANCH   1  17
ATOM     17  C   UNL     1       2.077   7.785  17.641  0.00  0.00    +0.000 C 
BRANCH  17  18
ATOM     18  C   UNL     1       3.207   7.067  18.270  0.00  0.00    +0.000 C 
ATOM     19  C   UNL     1       3.194   5.752  18.539  0.00  0.00    +0.000 C 
ATOM     20  C   UNL     1       1.997   4.895  18.214  0.00  0.00    +0.000 C 
BRANCH  19  21
ATOM     21  C   UNL     1       4.402   5.101  19.186  0.00  0.00    +0.000 C 
BRANCH  21  22
ATOM     22  C   UNL     1       4.835   3.844  18.425  0.00  0.00    +0.000 C 
BRANCH  22  23
ATOM     23  C   UNL     1       5.229   4.065  17.007  0.00  0.00    +0.000 C 
ATOM     24  C   UNL     1       6.436   4.443  16.644  0.00  0.00    +0.000 C 
ATOM     25  C   UNL     1       7.575   4.658  17.625  0.00  0.00    +0.000 C 
BRANCH  24  26
ATOM     26  C   UNL     1       6.765   4.663  15.180  0.00  0.00    +0.000 C 
BRANCH  26  27
ATOM     27  C   UNL     1       5.675   4.207  14.187  0.00  0.00    +0.000 C 
BRANCH  27  28
ATOM     28  C   UNL     1       6.295   3.305  13.188  0.00  0.00    +0.000 C 
ATOM     29  O   UNL     1       6.657   3.870  11.925  0.00  0.00    +0.000 OA
ATOM     30  C   UNL     1       5.605   2.886  11.906  0.00  0.00    +0.000 C 
ATOM     31  C   UNL     1       5.974   1.535  11.395  0.00  0.00    +0.000 C 
ATOM     32  C   UNL     1       4.320   3.467  11.398  0.00  0.00    +0.000 C 
ENDBRANCH  27  28
ENDBRANCH  26  27
ENDBRANCH  24  26
ENDBRANCH  22  23
ENDBRANCH  21  22
ENDBRANCH  19  21
ENDBRANCH  17  18
ENDBRANCH   1  17
TORSDOF 17
ENDMDL
MODEL 7
REMARK VINA RESULT:      -6.4      5.751     10.373
REMARK  Name = 
REMARK  24 active torsions:
REMARK  status: ('A' for Active; 'I' for Inactive)
REMARK    1  A    between atoms: C_2  and  C_3
REMARK    2  A    between atoms: C_3  and  C_27
REMARK    3  A    between atoms: C_4  and  C_5
REMARK    4  A    between atoms: C_5  and  C_6
REMARK    5  A    between atoms: C_6  and  C_7
REMARK    6  A    between atoms: C_7  and  C_8
REMARK    7  A    between atoms: C_9  and  C_10
REMARK    8  A    between atoms: C_10  and  C_11
REMARK    9  A    between atoms: C_11  and  C_12
REMARK   10  A    between atoms: C_13  and  C_14
REMARK   11  A    between atoms: C_13  and  C_15
REMARK   12  A    between atoms: C_15  and  C_16
REMARK   13  A    between atoms: C_16  and  C_17
REMARK   14  A    between atoms: C_18  and  C_19
REMARK   15  A    between atoms: C_18  and  C_20
REMARK   16  A    between atoms: C_20  and  C_21
REMARK   17  A    between atoms: C_21  and  C_22
REMARK   18  A    between atoms: C_24  and  C_25
REMARK   19  A    between atoms: C_24  and  C_26
REMARK   20  A    between atoms: C_27  and  C_28
REMARK   21  A    between atoms: C_28  and  C_29
REMARK   22  A    between atoms: C_29  and  C_30
REMARK   23  A    between atoms: C_30  and  C_31
REMARK   24  A    between atoms: C_30  and  C_32
REMARK                            x       y       z     vdW  Elec       q    Type
REMARK                         _______ _______ _______ _____ _____    ______ ____
ROOT
ATOM      1  C   UNL     1       1.323   5.480  20.621  0.00  0.00    +0.000 C 
ENDROOT
BRANCH   1   4
ATOM      2  C   UNL     1       2.538   3.331  20.919  0.00  0.00    +0.000 C 
ATOM      3  C   UNL     1       1.224   2.657  21.228  0.00  0.00    +0.000 C 
ATOM      4  C   UNL     1       2.543   4.646  20.635  0.00  0.00    +0.000 C 
BRANCH   2   5
ATOM      5  C   UNL     1       3.841   2.557  20.915  0.00  0.00    +0.000 C 
BRANCH   5   6
ATOM      6  C   UNL     1       4.467   2.565  19.505  0.00  0.00    +0.000 C 
BRANCH   6   8
ATOM      7  C   UNL     1       4.202   4.383  17.796  0.00  0.00    +0.000 C 
ATOM      8  C   UNL     1       4.787   3.878  18.916  0.00  0.00    +0.000 C 
BRANCH   7  10
ATOM      9  C   UNL     1       1.980   3.254  17.300  0.00  0.00    +0.000 C 
ATOM     10  C   UNL     1       3.211   3.700  16.971  0.00  0.00    +0.000 C 
ENDBRANCH   7  10
BRANCH   7  11
ATOM     11  C   UNL     1       4.648   5.733  17.270  0.00  0.00    +0.000 C 
BRANCH  11  12
ATOM     12  C   UNL     1       5.716   5.628  16.178  0.00  0.00    +0.000 C 
BRANCH  12  13
ATOM     13  C   UNL     1       7.155   5.743  16.676  0.00  0.00    +0.000 C 
BRANCH  13  14
ATOM     14  C   UNL     1       7.229   6.589  17.964  0.00  0.00    +0.000 C 
ATOM     15  C   UNL     1       7.967   5.875  19.104  0.00  0.00    +0.000 C 
ATOM     16  C   UNL     1       7.904   7.926  17.673  0.00  0.00    +0.000 C 
ENDBRANCH  13  14
ENDBRANCH  12  13
ENDBRANCH  11  12
ENDBRANCH   7  11
ENDBRANCH   6   8
ENDBRANCH   5   6
ENDBRANCH   2   5
ENDBRANCH   1   4
BRANCH   1  17
ATOM     17  C   UNL     1       1.658   6.862  21.128  0.00  0.00    +0.000 C 
BRANCH  17  18
ATOM     18  C   UNL     1       1.723   7.819  20.001  0.00  0.00    +0.000 C 
ATOM     19  C   UNL     1       1.171   9.042  20.033  0.00  0.00    +0.000 C 
ATOM     20  C   UNL     1       0.427   9.537  21.247  0.00  0.00    +0.000 C 
BRANCH  19  21
ATOM     21  C   UNL     1       1.290   9.956  18.828  0.00  0.00    +0.000 C 
BRANCH  21  22
ATOM     22  C   UNL     1      -0.021  10.012  18.038  0.00  0.00    +0.000 C 
BRANCH  22  23
ATOM     23  C   UNL     1      -1.014  11.007  18.527  0.00  0.00    +0.000 C 
ATOM     24  C   UNL     1      -2.314  10.866  18.373  0.00  0.00    +0.000 C 
ATOM     25  C   UNL     1      -2.950   9.654  17.716  0.00  0.00    +0.000 C 
BRANCH  24  26
ATOM     26  C   UNL     1      -3.268  11.927  18.886  0.00  0.00    +0.000 C 
BRANCH  26  27
ATOM     27  C   UNL     1      -2.622  13.027  19.752  0.00  0.00    +0.000 C 
BRANCH  27  28
ATOM     28  C   UNL     1      -3.096  12.868  21.147  0.00  0.00    +0.000 C 
ATOM     29  O   UNL     1      -2.813  13.928  22.065  0.00  0.00    +0.000 OA
ATOM     30  C   UNL     1      -2.163  12.668  22.324  0.00  0.00    +0.000 C 
ATOM     31  C   UNL     1      -2.717  11.859  23.447  0.00  0.00    +0.000 C 
ATOM     32  C   UNL     1      -0.671  12.798  22.264  0.00  0.00    +0.000 C 
ENDBRANCH  27  28
ENDBRANCH  26  27
ENDBRANCH  24  26
ENDBRANCH  22  23
ENDBRANCH  21  22
ENDBRANCH  19  21
ENDBRANCH  17  18
ENDBRANCH   1  17
TORSDOF 17
ENDMDL
MODEL 8
REMARK VINA RESULT:      -6.4      6.548      9.099
REMARK  Name = 
REMARK  24 active torsions:
REMARK  status: ('A' for Active; 'I' for Inactive)
REMARK    1  A    between atoms: C_2  and  C_3
REMARK    2  A    between atoms: C_3  and  C_27
REMARK    3  A    between atoms: C_4  and  C_5
REMARK    4  A    between atoms: C_5  and  C_6
REMARK    5  A    between atoms: C_6  and  C_7
REMARK    6  A    between atoms: C_7  and  C_8
REMARK    7  A    between atoms: C_9  and  C_10
REMARK    8  A    between atoms: C_10  and  C_11
REMARK    9  A    between atoms: C_11  and  C_12
REMARK   10  A    between atoms: C_13  and  C_14
REMARK   11  A    between atoms: C_13  and  C_15
REMARK   12  A    between atoms: C_15  and  C_16
REMARK   13  A    between atoms: C_16  and  C_17
REMARK   14  A    between atoms: C_18  and  C_19
REMARK   15  A    between atoms: C_18  and  C_20
REMARK   16  A    between atoms: C_20  and  C_21
REMARK   17  A    between atoms: C_21  and  C_22
REMARK   18  A    between atoms: C_24  and  C_25
REMARK   19  A    between atoms: C_24  and  C_26
REMARK   20  A    between atoms: C_27  and  C_28
REMARK   21  A    between atoms: C_28  and  C_29
REMARK   22  A    between atoms: C_29  and  C_30
REMARK   23  A    between atoms: C_30  and  C_31
REMARK   24  A    between atoms: C_30  and  C_32
REMARK                            x       y       z     vdW  Elec       q    Type
REMARK                         _______ _______ _______ _____ _____    ______ ____
ROOT
ATOM      1  C   UNL     1       0.511   3.326  18.612  0.00  0.00    +0.000 C 
ENDROOT
BRANCH   1   4
ATOM      2  C   UNL     1       1.884   5.397  18.723  0.00  0.00    +0.000 C 
ATOM      3  C   UNL     1       1.529   5.528  20.183  0.00  0.00    +0.000 C 
ATOM      4  C   UNL     1       1.396   4.355  18.026  0.00  0.00    +0.000 C 
BRANCH   2   5
ATOM      5  C   UNL     1       2.781   6.406  18.034  0.00  0.00    +0.000 C 
BRANCH   5   6
ATOM      6  C   UNL     1       2.440   7.836  18.500  0.00  0.00    +0.000 C 
BRANCH   6   8
ATOM      7  C   UNL     1       0.824   9.720  18.133  0.00  0.00    +0.000 C 
ATOM      8  C   UNL     1       1.153   8.401  18.057  0.00  0.00    +0.000 C 
BRANCH   7  10
ATOM      9  C   UNL     1       2.074  11.932  18.151  0.00  0.00    +0.000 C 
ATOM     10  C   UNL     1       1.655  10.773  18.704  0.00  0.00    +0.000 C 
ENDBRANCH   7  10
BRANCH   7  11
ATOM     11  C   UNL     1      -0.551  10.168  17.677  0.00  0.00    +0.000 C 
BRANCH  11  12
ATOM     12  C   UNL     1      -1.533  10.363  18.834  0.00  0.00    +0.000 C 
BRANCH  12  13
ATOM     13  C   UNL     1      -2.139  11.761  18.932  0.00  0.00    +0.000 C 
BRANCH  13  14
ATOM     14  C   UNL     1      -1.668  12.481  20.213  0.00  0.00    +0.000 C 
ATOM     15  C   UNL     1      -0.954  11.543  21.195  0.00  0.00    +0.000 C 
ATOM     16  C   UNL     1      -0.748  13.643  19.851  0.00  0.00    +0.000 C 
ENDBRANCH  13  14
ENDBRANCH  12  13
ENDBRANCH  11  12
ENDBRANCH   7  11
ENDBRANCH   6   8
ENDBRANCH   5   6
ENDBRANCH   2   5
ENDBRANCH   1   4
BRANCH   1  17
ATOM     17  C   UNL     1       1.324   2.100  18.947  0.00  0.00    +0.000 C 
BRANCH  17  18
ATOM     18  C   UNL     1       2.767   2.386  18.796  0.00  0.00    +0.000 C 
ATOM     19  C   UNL     1       3.604   2.555  19.832  0.00  0.00    +0.000 C 
ATOM     20  C   UNL     1       3.118   2.466  21.257  0.00  0.00    +0.000 C 
BRANCH  19  21
ATOM     21  C   UNL     1       5.072   2.844  19.579  0.00  0.00    +0.000 C 
BRANCH  21  22
ATOM     22  C   UNL     1       5.279   4.269  19.059  0.00  0.00    +0.000 C 
BRANCH  22  23
ATOM     23  C   UNL     1       6.170   4.389  17.872  0.00  0.00    +0.000 C 
ATOM     24  C   UNL     1       5.761   4.181  16.639  0.00  0.00    +0.000 C 
ATOM     25  C   UNL     1       4.327   3.834  16.282  0.00  0.00    +0.000 C 
BRANCH  24  26
ATOM     26  C   UNL     1       6.727   4.308  15.477  0.00  0.00    +0.000 C 
BRANCH  26  27
ATOM     27  C   UNL     1       6.072   4.566  14.105  0.00  0.00    +0.000 C 
BRANCH  27  28
ATOM     28  C   UNL     1       6.605   3.580  13.135  0.00  0.00    +0.000 C 
ATOM     29  O   UNL     1       6.827   4.027  11.795  0.00  0.00    +0.000 OA
ATOM     30  C   UNL     1       5.797   3.037  11.975  0.00  0.00    +0.000 C 
ATOM     31  C   UNL     1       6.137   1.647  11.555  0.00  0.00    +0.000 C 
ATOM     32  C   UNL     1       4.457   3.555  11.548  0.00  0.00    +0.000 C 
ENDBRANCH  27  28
ENDBRANCH  26  27
ENDBRANCH  24  26
ENDBRANCH  22  23
ENDBRANCH  21  22
ENDBRANCH  19  21
ENDBRANCH  17  18
ENDBRANCH   1  17
TORSDOF 17
ENDMDL
MODEL 9
REMARK VINA RESULT:      -6.3      3.461      6.988
REMARK  Name = 
REMARK  24 active torsions:
REMARK  status: ('A' for Active; 'I' for Inactive)
REMARK    1  A    between atoms: C_2  and  C_3
REMARK    2  A    between atoms: C_3  and  C_27
REMARK    3  A    between atoms: C_4  and  C_5
REMARK    4  A    between atoms: C_5  and  C_6
REMARK    5  A    between atoms: C_6  and  C_7
REMARK    6  A    between atoms: C_7  and  C_8
REMARK    7  A    between atoms: C_9  and  C_10
REMARK    8  A    between atoms: C_10  and  C_11
REMARK    9  A    between atoms: C_11  and  C_12
REMARK   10  A    between atoms: C_13  and  C_14
REMARK   11  A    between atoms: C_13  and  C_15
REMARK   12  A    between atoms: C_15  and  C_16
REMARK   13  A    between atoms: C_16  and  C_17
REMARK   14  A    between atoms: C_18  and  C_19
REMARK   15  A    between atoms: C_18  and  C_20
REMARK   16  A    between atoms: C_20  and  C_21
REMARK   17  A    between atoms: C_21  and  C_22
REMARK   18  A    between atoms: C_24  and  C_25
REMARK   19  A    between atoms: C_24  and  C_26
REMARK   20  A    between atoms: C_27  and  C_28
REMARK   21  A    between atoms: C_28  and  C_29
REMARK   22  A    between atoms: C_29  and  C_30
REMARK   23  A    between atoms: C_30  and  C_31
REMARK   24  A    between atoms: C_30  and  C_32
REMARK                            x       y       z     vdW  Elec       q    Type
REMARK                         _______ _______ _______ _____ _____    ______ ____
ROOT
ATOM      1  C   UNL     1       5.567   6.629  16.148  0.00  0.00    +0.000 C 
ENDROOT
BRANCH   1   4
ATOM      2  C   UNL     1       7.444   6.566  17.780  0.00  0.00    +0.000 C 
ATOM      3  C   UNL     1       7.468   5.062  17.659  0.00  0.00    +0.000 C 
ATOM      4  C   UNL     1       6.548   7.261  17.055  0.00  0.00    +0.000 C 
BRANCH   2   5
ATOM      5  C   UNL     1       8.407   7.301  18.688  0.00  0.00    +0.000 C 
BRANCH   5   6
ATOM      6  C   UNL     1       8.398   8.811  18.373  0.00  0.00    +0.000 C 
BRANCH   6   8
ATOM      7  C   UNL     1       9.719  10.811  19.118  0.00  0.00    +0.000 C 
ATOM      8  C   UNL     1       8.956   9.718  19.393  0.00  0.00    +0.000 C 
BRANCH   7  10
ATOM      9  C   UNL     1      10.894  12.304  17.430  0.00  0.00    +0.000 C 
ATOM     10  C   UNL     1      10.152  11.235  17.791  0.00  0.00    +0.000 C 
ENDBRANCH   7  10
BRANCH   7  11
ATOM     11  C   UNL     1      10.265  11.641  20.263  0.00  0.00    +0.000 C 
BRANCH  11  12
ATOM     12  C   UNL     1       9.297  12.732  20.727  0.00  0.00    +0.000 C 
BRANCH  12  13
ATOM     13  C   UNL     1       9.937  13.853  21.542  0.00  0.00    +0.000 C 
BRANCH  13  14
ATOM     14  C   UNL     1      10.567  14.918  20.619  0.00  0.00    +0.000 C 
ATOM     15  C   UNL     1       9.674  15.273  19.423  0.00  0.00    +0.000 C 
ATOM     16  C   UNL     1      10.884  16.179  21.417  0.00  0.00    +0.000 C 
ENDBRANCH  13  14
ENDBRANCH  12  13
ENDBRANCH  11  12
ENDBRANCH   7  11
ENDBRANCH   6   8
ENDBRANCH   5   6
ENDBRANCH   2   5
ENDBRANCH   1   4
BRANCH   1  17
ATOM     17  C   UNL     1       4.444   6.036  16.962  0.00  0.00    +0.000 C 
BRANCH  17  18
ATOM     18  C   UNL     1       3.565   7.108  17.480  0.00  0.00    +0.000 C 
ATOM     19  C   UNL     1       2.881   7.018  18.630  0.00  0.00    +0.000 C 
ATOM     20  C   UNL     1       2.959   5.786  19.496  0.00  0.00    +0.000 C 
BRANCH  19  21
ATOM     21  C   UNL     1       2.004   8.171  19.081  0.00  0.00    +0.000 C 
BRANCH  21  22
ATOM     22  C   UNL     1       1.665   9.105  17.915  0.00  0.00    +0.000 C 
BRANCH  22  23
ATOM     23  C   UNL     1       1.994  10.540  18.136  0.00  0.00    +0.000 C 
ATOM     24  C   UNL     1       1.210  11.366  18.797  0.00  0.00    +0.000 C 
ATOM     25  C   UNL     1      -0.097  10.942  19.442  0.00  0.00    +0.000 C 
BRANCH  24  26
ATOM     26  C   UNL     1       1.602  12.821  18.973  0.00  0.00    +0.000 C 
BRANCH  26  27
ATOM     27  C   UNL     1       2.755  13.304  18.069  0.00  0.00    +0.000 C 
BRANCH  27  28
ATOM     28  C   UNL     1       2.936  14.760  18.273  0.00  0.00    +0.000 C 
ATOM     29  O   UNL     1       3.408  15.528  17.163  0.00  0.00    +0.000 OA
ATOM     30  C   UNL     1       4.293  15.433  18.296  0.00  0.00    +0.000 C 
ATOM     31  C   UNL     1       4.390  16.644  19.161  0.00  0.00    +0.000 C 
ATOM     32  C   UNL     1       5.584  14.767  17.930  0.00  0.00    +0.000 C 
ENDBRANCH  27  28
ENDBRANCH  26  27
ENDBRANCH  24  26
ENDBRANCH  22  23
ENDBRANCH  21  22
ENDBRANCH  19  21
ENDBRANCH  17  18
ENDBRANCH   1  17
TORSDOF 17
ENDMDL
