MODEL 1
REMARK VINA RESULT:      -9.5      0.000      0.000
REMARK  Name = 
REMARK  7 active torsions:
REMARK  status: ('A' for Active; 'I' for Inactive)
REMARK    1  A    between atoms: C_2  and  C_28
REMARK    2  A    between atoms: N_3  and  C_4
REMARK    3  A    between atoms: C_8  and  C_9
REMARK    4  A    between atoms: C_9  and  N_10
REMARK    5  A    between atoms: C_13  and  C_14
REMARK    6  A    between atoms: N_16  and  C_17
REMARK    7  A    between atoms: C_17  and  C_18
REMARK                            x       y       z     vdW  Elec       q    Type
REMARK                         _______ _______ _______ _____ _____    ______ ____
ROOT
ATOM      1  C   UNL     1       3.769   4.325  17.969  0.00  0.00    +0.000 C 
ENDROOT
BRANCH   1   6
ATOM      2  C   UNL     1       2.062   7.355  19.576  0.00  0.00    +0.000 A 
ATOM      3  C   UNL     1       1.439   6.769  20.678  0.00  0.00    +0.000 A 
ATOM      4  C   UNL     1       1.465   5.385  20.834  0.00  0.00    +0.000 A 
ATOM      5  C   UNL     1       2.183   4.593  19.938  0.00  0.00    +0.000 A 
ATOM      6  C   UNL     1       2.889   5.172  18.873  0.00  0.00    +0.000 A 
ATOM      7  C   UNL     1       2.781   6.560  18.676  0.00  0.00    +0.000 A 
BRANCH   2  10
ATOM      8  O   UNL     1       0.742   8.805  17.454  0.00  0.00    +0.000 OA
ATOM      9  C   UNL     1       1.332   9.366  18.366  0.00  0.00    +0.000 C 
ATOM     10  N   UNL     1       1.967   8.751  19.433  0.00  0.00    +0.000 N 
ATOM     11  H   UNL     1       2.045   9.297  20.282  0.00  0.00    +0.000 HD
BRANCH   9  12
ATOM     12  C   UNL     1       1.308  10.849  18.446  0.00  0.00    +0.000 A 
ATOM     13  C   UNL     1       0.138  11.491  18.881  0.00  0.00    +0.000 A 
ATOM     14  C   UNL     1       0.110  12.888  18.979  0.00  0.00    +0.000 A 
ATOM     15  C   UNL     1       1.242  13.630  18.633  0.00  0.00    +0.000 A 
ATOM     16 CL   UNL     1       1.212  15.345  18.760  0.00  0.00    +0.000 Cl
ATOM     17  C   UNL     1       2.400  12.996  18.180  0.00  0.00    +0.000 A 
ATOM     18  C   UNL     1       2.432  11.599  18.087  0.00  0.00    +0.000 A 
ENDBRANCH   9  12
ENDBRANCH   2  10
ENDBRANCH   1   6
BRANCH   1  19
ATOM     19  N   UNL     1       5.235   4.459  18.142  0.00  0.00    +0.000 NA
ATOM     20  C   UNL     1       5.935   4.702  16.876  0.00  0.00    +0.000 C 
ATOM     21  C   UNL     1       7.450   4.786  17.051  0.00  0.00    +0.000 C 
ATOM     22  C   UNL     1       7.847   5.845  18.081  0.00  0.00    +0.000 C 
ATOM     23  C   UNL     1       7.110   5.557  19.394  0.00  0.00    +0.000 C 
ATOM     24  C   UNL     1       5.595   5.407  19.203  0.00  0.00    +0.000 C 
BRANCH  22  25
ATOM     25  C   UNL     1       7.624   7.288  17.609  0.00  0.00    +0.000 C 
ATOM     26  O   UNL     1       6.803   7.595  16.749  0.00  0.00    +0.000 OA
ATOM     27  N   UNL     1       8.352   8.241  18.287  0.00  0.00    +0.000 N 
ATOM     28  H   UNL     1       9.070   7.969  18.944  0.00  0.00    +0.000 HD
BRANCH  27  29
ATOM     29  C   UNL     1       8.150   9.650  18.019  0.00  0.00    +0.000 C 
BRANCH  29  30
ATOM     30  C   UNL     1       9.238  10.481  18.645  0.00  0.00    +0.000 A 
ATOM     31  C   UNL     1       9.327  10.599  20.040  0.00  0.00    +0.000 A 
ATOM     32  C   UNL     1      10.282  11.435  20.623  0.00  0.00    +0.000 A 
ATOM     33  C   UNL     1      11.155  12.166  19.817  0.00  0.00    +0.000 A 
ATOM     34  C   UNL     1      11.085  12.038  18.432  0.00  0.00    +0.000 A 
ATOM     35 CL   UNL     1      12.161  12.943  17.438  0.00  0.00    +0.000 Cl
ATOM     36  C   UNL     1      10.139  11.198  17.843  0.00  0.00    +0.000 A 
ENDBRANCH  29  30
ENDBRANCH  27  29
ENDBRANCH  22  25
ENDBRANCH   1  19
TORSDOF 7
ENDMDL
MODEL 2
REMARK VINA RESULT:      -9.0      1.009      1.276
REMARK  Name = 
REMARK  7 active torsions:
REMARK  status: ('A' for Active; 'I' for Inactive)
REMARK    1  A    between atoms: C_2  and  C_28
REMARK    2  A    between atoms: N_3  and  C_4
REMARK    3  A    between atoms: C_8  and  C_9
REMARK    4  A    between atoms: C_9  and  N_10
REMARK    5  A    between atoms: C_13  and  C_14
REMARK    6  A    between atoms: N_16  and  C_17
REMARK    7  A    between atoms: C_17  and  C_18
REMARK                            x       y       z     vdW  Elec       q    Type
REMARK                         _______ _______ _______ _____ _____    ______ ____
ROOT
ATOM      1  C   UNL     1       3.816   4.322  18.018  0.00  0.00    +0.000 C 
ENDROOT
BRANCH   1   6
ATOM      2  C   UNL     1       1.984   7.247  19.678  0.00  0.00    +0.000 A 
ATOM      3  C   UNL     1       1.369   6.613  20.757  0.00  0.00    +0.000 A 
ATOM      4  C   UNL     1       1.443   5.226  20.880  0.00  0.00    +0.000 A 
ATOM      5  C   UNL     1       2.200   4.483  19.973  0.00  0.00    +0.000 A 
ATOM      6  C   UNL     1       2.896   5.113  18.932  0.00  0.00    +0.000 A 
ATOM      7  C   UNL     1       2.741   6.502  18.767  0.00  0.00    +0.000 A 
BRANCH   2  10
ATOM      8  O   UNL     1       1.621   8.778  17.254  0.00  0.00    +0.000 OA
ATOM      9  C   UNL     1       1.693   9.300  18.357  0.00  0.00    +0.000 C 
ATOM     10  N   UNL     1       1.840   8.643  19.568  0.00  0.00    +0.000 N 
ATOM     11  H   UNL     1       1.485   9.124  20.384  0.00  0.00    +0.000 HD
BRANCH   9  12
ATOM     12  C   UNL     1       1.506  10.769  18.482  0.00  0.00    +0.000 A 
ATOM     13  C   UNL     1       0.335  11.260  19.080  0.00  0.00    +0.000 A 
ATOM     14  C   UNL     1       0.158  12.642  19.221  0.00  0.00    +0.000 A 
ATOM     15  C   UNL     1       1.140  13.519  18.755  0.00  0.00    +0.000 A 
ATOM     16 CL   UNL     1       0.926  15.216  18.935  0.00  0.00    +0.000 Cl
ATOM     17  C   UNL     1       2.295  13.034  18.140  0.00  0.00    +0.000 A 
ATOM     18  C   UNL     1       2.478  11.653  18.004  0.00  0.00    +0.000 A 
ENDBRANCH   9  12
ENDBRANCH   2  10
ENDBRANCH   1   6
BRANCH   1  19
ATOM     19  N   UNL     1       5.275   4.480  18.232  0.00  0.00    +0.000 NA
ATOM     20  C   UNL     1       6.012   4.691  16.982  0.00  0.00    +0.000 C 
ATOM     21  C   UNL     1       7.519   4.800  17.201  0.00  0.00    +0.000 C 
ATOM     22  C   UNL     1       7.870   5.897  18.208  0.00  0.00    +0.000 C 
ATOM     23  C   UNL     1       7.095   5.642  19.505  0.00  0.00    +0.000 C 
ATOM     24  C   UNL     1       5.590   5.467  19.273  0.00  0.00    +0.000 C 
BRANCH  22  25
ATOM     25  C   UNL     1       7.646   7.321  17.682  0.00  0.00    +0.000 C 
ATOM     26  O   UNL     1       6.786   7.603  16.850  0.00  0.00    +0.000 OA
ATOM     27  N   UNL     1       8.421   8.291  18.277  0.00  0.00    +0.000 N 
ATOM     28  H   UNL     1       9.167   8.037  18.910  0.00  0.00    +0.000 HD
BRANCH  27  29
ATOM     29  C   UNL     1       8.226   9.690  17.956  0.00  0.00    +0.000 C 
BRANCH  29  30
ATOM     30  C   UNL     1       9.203  10.558  18.703  0.00  0.00    +0.000 A 
ATOM     31  C   UNL     1      10.456  10.855  18.147  0.00  0.00    +0.000 A 
ATOM     32  C   UNL     1      11.398  11.590  18.871  0.00  0.00    +0.000 A 
ATOM     33  C   UNL     1      11.099  12.032  20.159  0.00  0.00    +0.000 A 
ATOM     34  C   UNL     1       9.849  11.758  20.709  0.00  0.00    +0.000 A 
ATOM     35 CL   UNL     1       9.481  12.301  22.301  0.00  0.00    +0.000 Cl
ATOM     36  C   UNL     1       8.900  11.031  19.989  0.00  0.00    +0.000 A 
ENDBRANCH  29  30
ENDBRANCH  27  29
ENDBRANCH  22  25
ENDBRANCH   1  19
TORSDOF 7
ENDMDL
MODEL 3
REMARK VINA RESULT:      -8.7      3.629      5.088
REMARK  Name = 
REMARK  7 active torsions:
REMARK  status: ('A' for Active; 'I' for Inactive)
REMARK    1  A    between atoms: C_2  and  C_28
REMARK    2  A    between atoms: N_3  and  C_4
REMARK    3  A    between atoms: C_8  and  C_9
REMARK    4  A    between atoms: C_9  and  N_10
REMARK    5  A    between atoms: C_13  and  C_14
REMARK    6  A    between atoms: N_16  and  C_17
REMARK    7  A    between atoms: C_17  and  C_18
REMARK                            x       y       z     vdW  Elec       q    Type
REMARK                         _______ _______ _______ _____ _____    ______ ____
ROOT
ATOM      1  C   UNL     1       2.025   5.138  20.972  0.00  0.00    +0.000 C 
ENDROOT
BRANCH   1   6
ATOM      2  C   UNL     1       0.707   8.664  20.263  0.00  0.00    +0.000 A 
ATOM      3  C   UNL     1       1.399   8.989  19.096  0.00  0.00    +0.000 A 
ATOM      4  C   UNL     1       2.379   8.126  18.608  0.00  0.00    +0.000 A 
ATOM      5  C   UNL     1       2.608   6.902  19.237  0.00  0.00    +0.000 A 
ATOM      6  C   UNL     1       1.862   6.519  20.361  0.00  0.00    +0.000 A 
ATOM      7  C   UNL     1       0.939   7.437  20.895  0.00  0.00    +0.000 A 
BRANCH   2  10
ATOM      8  O   UNL     1       1.245  11.166  21.607  0.00  0.00    +0.000 OA
ATOM      9  C   UNL     1       0.110  10.760  21.403  0.00  0.00    +0.000 C 
ATOM     10  N   UNL     1      -0.237   9.589  20.746  0.00  0.00    +0.000 N 
ATOM     11  H   UNL     1      -1.146   9.579  20.301  0.00  0.00    +0.000 HD
BRANCH   9  12
ATOM     12  C   UNL     1      -1.048  11.611  21.780  0.00  0.00    +0.000 A 
ATOM     13  C   UNL     1      -1.511  12.575  20.871  0.00  0.00    +0.000 A 
ATOM     14  C   UNL     1      -2.614  13.370  21.207  0.00  0.00    +0.000 A 
ATOM     15  C   UNL     1      -3.235  13.204  22.447  0.00  0.00    +0.000 A 
ATOM     16 CL   UNL     1      -4.595  14.174  22.859  0.00  0.00    +0.000 Cl
ATOM     17  C   UNL     1      -2.764  12.261  23.362  0.00  0.00    +0.000 A 
ATOM     18  C   UNL     1      -1.665  11.461  23.025  0.00  0.00    +0.000 A 
ENDBRANCH   9  12
ENDBRANCH   2  10
ENDBRANCH   1   6
BRANCH   1  19
ATOM     19  N   UNL     1       2.272   4.014  20.037  0.00  0.00    +0.000 NA
ATOM     20  C   UNL     1       1.721   4.257  18.700  0.00  0.00    +0.000 C 
ATOM     21  C   UNL     1       1.930   3.075  17.756  0.00  0.00    +0.000 C 
ATOM     22  C   UNL     1       3.405   2.683  17.652  0.00  0.00    +0.000 C 
ATOM     23  C   UNL     1       3.947   2.424  19.063  0.00  0.00    +0.000 C 
ATOM     24  C   UNL     1       3.676   3.587  20.025  0.00  0.00    +0.000 C 
BRANCH  22  25
ATOM     25  C   UNL     1       4.267   3.697  16.889  0.00  0.00    +0.000 C 
ATOM     26  O   UNL     1       3.914   4.854  16.675  0.00  0.00    +0.000 OA
ATOM     27  N   UNL     1       5.519   3.247  16.534  0.00  0.00    +0.000 N 
ATOM     28  H   UNL     1       5.771   2.276  16.658  0.00  0.00    +0.000 HD
BRANCH  27  29
ATOM     29  C   UNL     1       6.475   4.140  15.913  0.00  0.00    +0.000 C 
BRANCH  29  30
ATOM     30  C   UNL     1       6.971   5.169  16.893  0.00  0.00    +0.000 A 
ATOM     31  C   UNL     1       7.007   6.526  16.540  0.00  0.00    +0.000 A 
ATOM     32  C   UNL     1       7.543   7.474  17.414  0.00  0.00    +0.000 A 
ATOM     33  C   UNL     1       8.054   7.075  18.649  0.00  0.00    +0.000 A 
ATOM     34  C   UNL     1       8.003   5.732  19.015  0.00  0.00    +0.000 A 
ATOM     35 CL   UNL     1       8.637   5.239  20.538  0.00  0.00    +0.000 Cl
ATOM     36  C   UNL     1       7.461   4.780  18.150  0.00  0.00    +0.000 A 
ENDBRANCH  29  30
ENDBRANCH  27  29
ENDBRANCH  22  25
ENDBRANCH   1  19
TORSDOF 7
ENDMDL
MODEL 4
REMARK VINA RESULT:      -8.7      1.096      1.322
REMARK  Name = 
REMARK  7 active torsions:
REMARK  status: ('A' for Active; 'I' for Inactive)
REMARK    1  A    between atoms: C_2  and  C_28
REMARK    2  A    between atoms: N_3  and  C_4
REMARK    3  A    between atoms: C_8  and  C_9
REMARK    4  A    between atoms: C_9  and  N_10
REMARK    5  A    between atoms: C_13  and  C_14
REMARK    6  A    between atoms: N_16  and  C_17
REMARK    7  A    between atoms: C_17  and  C_18
REMARK                            x       y       z     vdW  Elec       q    Type
REMARK                         _______ _______ _______ _____ _____    ______ ____
ROOT
ATOM      1  C   UNL     1       3.903   3.985  18.036  0.00  0.00    +0.000 C 
ENDROOT
BRANCH   1   6
ATOM      2  C   UNL     1       1.967   6.852  19.680  0.00  0.00    +0.000 A 
ATOM      3  C   UNL     1       1.340   6.193  20.737  0.00  0.00    +0.000 A 
ATOM      4  C   UNL     1       1.440   4.807  20.846  0.00  0.00    +0.000 A 
ATOM      5  C   UNL     1       2.235   4.090  19.951  0.00  0.00    +0.000 A 
ATOM      6  C   UNL     1       2.944   4.747  18.934  0.00  0.00    +0.000 A 
ATOM      7  C   UNL     1       2.763   6.133  18.781  0.00  0.00    +0.000 A 
BRANCH   2  10
ATOM      8  O   UNL     1       0.239   8.517  21.292  0.00  0.00    +0.000 OA
ATOM      9  C   UNL     1       0.924   8.965  20.383  0.00  0.00    +0.000 C 
ATOM     10  N   UNL     1       1.796   8.245  19.581  0.00  0.00    +0.000 N 
ATOM     11  H   UNL     1       2.564   8.766  19.177  0.00  0.00    +0.000 HD
BRANCH   9  12
ATOM     12  C   UNL     1       0.943  10.430  20.139  0.00  0.00    +0.000 A 
ATOM     13  C   UNL     1       1.522  10.918  18.957  0.00  0.00    +0.000 A 
ATOM     14  C   UNL     1       1.527  12.297  18.708  0.00  0.00    +0.000 A 
ATOM     15  C   UNL     1       0.969  13.172  19.641  0.00  0.00    +0.000 A 
ATOM     16 CL   UNL     1       0.969  14.865  19.332  0.00  0.00    +0.000 Cl
ATOM     17  C   UNL     1       0.412  12.692  20.827  0.00  0.00    +0.000 A 
ATOM     18  C   UNL     1       0.399  11.314  21.076  0.00  0.00    +0.000 A 
ENDBRANCH   9  12
ENDBRANCH   2  10
ENDBRANCH   1   6
BRANCH   1  19
ATOM     19  N   UNL     1       5.351   4.239  18.232  0.00  0.00    +0.000 NA
ATOM     20  C   UNL     1       6.056   4.498  16.972  0.00  0.00    +0.000 C 
ATOM     21  C   UNL     1       7.556   4.705  17.172  0.00  0.00    +0.000 C 
ATOM     22  C   UNL     1       7.848   5.822  18.175  0.00  0.00    +0.000 C 
ATOM     23  C   UNL     1       7.108   5.516  19.483  0.00  0.00    +0.000 C 
ATOM     24  C   UNL     1       5.614   5.243  19.269  0.00  0.00    +0.000 C 
BRANCH  22  25
ATOM     25  C   UNL     1       7.524   7.228  17.654  0.00  0.00    +0.000 C 
ATOM     26  O   UNL     1       6.548   7.477  16.951  0.00  0.00    +0.000 OA
ATOM     27  N   UNL     1       8.360   8.225  18.108  0.00  0.00    +0.000 N 
ATOM     28  H   UNL     1       9.194   7.997  18.631  0.00  0.00    +0.000 HD
BRANCH  27  29
ATOM     29  C   UNL     1       8.096   9.611  17.786  0.00  0.00    +0.000 C 
BRANCH  29  30
ATOM     30  C   UNL     1       9.034  10.528  18.525  0.00  0.00    +0.000 A 
ATOM     31  C   UNL     1       9.259  10.353  19.899  0.00  0.00    +0.000 A 
ATOM     32  C   UNL     1      10.063  11.251  20.606  0.00  0.00    +0.000 A 
ATOM     33  C   UNL     1      10.645  12.334  19.949  0.00  0.00    +0.000 A 
ATOM     34  C   UNL     1      10.443  12.501  18.581  0.00  0.00    +0.000 A 
ATOM     35 CL   UNL     1      11.160  13.840  17.772  0.00  0.00    +0.000 Cl
ATOM     36  C   UNL     1       9.648  11.604  17.867  0.00  0.00    +0.000 A 
ENDBRANCH  29  30
ENDBRANCH  27  29
ENDBRANCH  22  25
ENDBRANCH   1  19
TORSDOF 7
ENDMDL
MODEL 5
REMARK VINA RESULT:      -8.7      4.895      6.064
REMARK  Name = 
REMARK  7 active torsions:
REMARK  status: ('A' for Active; 'I' for Inactive)
REMARK    1  A    between atoms: C_2  and  C_28
REMARK    2  A    between atoms: N_3  and  C_4
REMARK    3  A    between atoms: C_8  and  C_9
REMARK    4  A    between atoms: C_9  and  N_10
REMARK    5  A    between atoms: C_13  and  C_14
REMARK    6  A    between atoms: N_16  and  C_17
REMARK    7  A    between atoms: C_17  and  C_18
REMARK                            x       y       z     vdW  Elec       q    Type
REMARK                         _______ _______ _______ _____ _____    ______ ____
ROOT
ATOM      1  C   UNL     1       1.812   5.287  20.704  0.00  0.00    +0.000 C 
ENDROOT
BRANCH   1   6
ATOM      2  C   UNL     1       1.126   9.019  20.180  0.00  0.00    +0.000 A 
ATOM      3  C   UNL     1       1.718   9.237  18.936  0.00  0.00    +0.000 A 
ATOM      4  C   UNL     1       2.444   8.216  18.325  0.00  0.00    +0.000 A 
ATOM      5  C   UNL     1       2.507   6.953  18.915  0.00  0.00    +0.000 A 
ATOM      6  C   UNL     1       1.846   6.690  20.123  0.00  0.00    +0.000 A 
ATOM      7  C   UNL     1       1.192   7.753  20.773  0.00  0.00    +0.000 A 
BRANCH   2  10
ATOM      8  O   UNL     1      -1.232  10.366  19.191  0.00  0.00    +0.000 OA
ATOM      9  C   UNL     1      -0.668  10.699  20.224  0.00  0.00    +0.000 C 
ATOM     10  N   UNL     1       0.447  10.094  20.782  0.00  0.00    +0.000 N 
ATOM     11  H   UNL     1       0.553  10.189  21.784  0.00  0.00    +0.000 HD
BRANCH   9  12
ATOM     12  C   UNL     1      -1.253  11.781  21.057  0.00  0.00    +0.000 A 
ATOM     13  C   UNL     1      -2.321  12.535  20.546  0.00  0.00    +0.000 A 
ATOM     14  C   UNL     1      -2.893  13.545  21.331  0.00  0.00    +0.000 A 
ATOM     15  C   UNL     1      -2.388  13.800  22.608  0.00  0.00    +0.000 A 
ATOM     16 CL   UNL     1      -3.095  15.035  23.575  0.00  0.00    +0.000 Cl
ATOM     17  C   UNL     1      -1.313  13.067  23.110  0.00  0.00    +0.000 A 
ATOM     18  C   UNL     1      -0.744  12.052  22.330  0.00  0.00    +0.000 A 
ENDBRANCH   9  12
ENDBRANCH   2  10
ENDBRANCH   1   6
BRANCH   1  19
ATOM     19  N   UNL     1       2.315   4.190  19.842  0.00  0.00    +0.000 NA
ATOM     20  C   UNL     1       1.850   4.300  18.455  0.00  0.00    +0.000 C 
ATOM     21  C   UNL     1       2.326   3.140  17.584  0.00  0.00    +0.000 C 
ATOM     22  C   UNL     1       3.848   2.990  17.616  0.00  0.00    +0.000 C 
ATOM     23  C   UNL     1       4.300   2.865  19.075  0.00  0.00    +0.000 C 
ATOM     24  C   UNL     1       3.765   3.997  19.961  0.00  0.00    +0.000 C 
BRANCH  22  25
ATOM     25  C   UNL     1       4.600   4.108  16.882  0.00  0.00    +0.000 C 
ATOM     26  O   UNL     1       4.105   5.207  16.641  0.00  0.00    +0.000 OA
ATOM     27  N   UNL     1       5.915   3.827  16.584  0.00  0.00    +0.000 N 
ATOM     28  H   UNL     1       6.288   2.899  16.728  0.00  0.00    +0.000 HD
BRANCH  27  29
ATOM     29  C   UNL     1       6.770   4.838  15.997  0.00  0.00    +0.000 C 
BRANCH  29  30
ATOM     30  C   UNL     1       6.929   4.619  14.516  0.00  0.00    +0.000 A 
ATOM     31  C   UNL     1       7.831   5.397  13.777  0.00  0.00    +0.000 A 
ATOM     32  C   UNL     1       7.922   5.256  12.390  0.00  0.00    +0.000 A 
ATOM     33  C   UNL     1       7.108   4.337  11.728  0.00  0.00    +0.000 A 
ATOM     34  C   UNL     1       6.224   3.547  12.458  0.00  0.00    +0.000 A 
ATOM     35 CL   UNL     1       5.218   2.416  11.638  0.00  0.00    +0.000 Cl
ATOM     36  C   UNL     1       6.134   3.677  13.844  0.00  0.00    +0.000 A 
ENDBRANCH  29  30
ENDBRANCH  27  29
ENDBRANCH  22  25
ENDBRANCH   1  19
TORSDOF 7
ENDMDL
MODEL 6
REMARK VINA RESULT:      -8.7      3.678      5.191
REMARK  Name = 
REMARK  7 active torsions:
REMARK  status: ('A' for Active; 'I' for Inactive)
REMARK    1  A    between atoms: C_2  and  C_28
REMARK    2  A    between atoms: N_3  and  C_4
REMARK    3  A    between atoms: C_8  and  C_9
REMARK    4  A    between atoms: C_9  and  N_10
REMARK    5  A    between atoms: C_13  and  C_14
REMARK    6  A    between atoms: N_16  and  C_17
REMARK    7  A    between atoms: C_17  and  C_18
REMARK                            x       y       z     vdW  Elec       q    Type
REMARK                         _______ _______ _______ _____ _____    ______ ____
ROOT
ATOM      1  C   UNL     1       1.830   4.712  21.303  0.00  0.00    +0.000 C 
ENDROOT
BRANCH   1   6
ATOM      2  C   UNL     1       1.282   8.315  20.125  0.00  0.00    +0.000 A 
ATOM      3  C   UNL     1       2.080   8.357  18.983  0.00  0.00    +0.000 A 
ATOM      4  C   UNL     1       2.890   7.268  18.662  0.00  0.00    +0.000 A 
ATOM      5  C   UNL     1       2.839   6.107  19.434  0.00  0.00    +0.000 A 
ATOM      6  C   UNL     1       1.977   6.014  20.536  0.00  0.00    +0.000 A 
ATOM      7  C   UNL     1       1.232   7.151  20.901  0.00  0.00    +0.000 A 
BRANCH   2  10
ATOM      8  O   UNL     1       1.271   9.779  22.617  0.00  0.00    +0.000 OA
ATOM      9  C   UNL     1       0.559  10.085  21.671  0.00  0.00    +0.000 C 
ATOM     10  N   UNL     1       0.520   9.456  20.437  0.00  0.00    +0.000 N 
ATOM     11  H   UNL     1       0.221  10.025  19.655  0.00  0.00    +0.000 HD
BRANCH   9  12
ATOM     12  C   UNL     1      -0.288  11.301  21.761  0.00  0.00    +0.000 A 
ATOM     13  C   UNL     1      -0.324  12.191  20.675  0.00  0.00    +0.000 A 
ATOM     14  C   UNL     1      -1.135  13.331  20.740  0.00  0.00    +0.000 A 
ATOM     15  C   UNL     1      -1.890  13.579  21.888  0.00  0.00    +0.000 A 
ATOM     16 CL   UNL     1      -2.892  14.975  21.966  0.00  0.00    +0.000 Cl
ATOM     17  C   UNL     1      -1.841  12.708  22.977  0.00  0.00    +0.000 A 
ATOM     18  C   UNL     1      -1.036  11.564  22.912  0.00  0.00    +0.000 A 
ENDBRANCH   9  12
ENDBRANCH   2  10
ENDBRANCH   1   6
BRANCH   1  19
ATOM     19  N   UNL     1       2.098   3.458  20.558  0.00  0.00    +0.000 NA
ATOM     20  C   UNL     1       1.229   3.298  19.387  0.00  0.00    +0.000 C 
ATOM     21  C   UNL     1       1.472   1.981  18.653  0.00  0.00    +0.000 C 
ATOM     22  C   UNL     1       2.936   1.818  18.245  0.00  0.00    +0.000 C 
ATOM     23  C   UNL     1       3.817   1.978  19.490  0.00  0.00    +0.000 C 
ATOM     24  C   UNL     1       3.524   3.271  20.261  0.00  0.00    +0.000 C 
BRANCH  22  25
ATOM     25  C   UNL     1       3.376   2.756  17.113  0.00  0.00    +0.000 C 
ATOM     26  O   UNL     1       2.588   3.289  16.336  0.00  0.00    +0.000 OA
ATOM     27  N   UNL     1       4.724   3.039  17.081  0.00  0.00    +0.000 N 
ATOM     28  H   UNL     1       5.368   2.544  17.683  0.00  0.00    +0.000 HD
BRANCH  27  29
ATOM     29  C   UNL     1       5.253   4.000  16.137  0.00  0.00    +0.000 C 
BRANCH  29  30
ATOM     30  C   UNL     1       6.018   5.089  16.843  0.00  0.00    +0.000 A 
ATOM     31  C   UNL     1       6.079   6.380  16.298  0.00  0.00    +0.000 A 
ATOM     32  C   UNL     1       6.854   7.371  16.905  0.00  0.00    +0.000 A 
ATOM     33  C   UNL     1       7.581   7.080  18.059  0.00  0.00    +0.000 A 
ATOM     34  C   UNL     1       7.508   5.805  18.617  0.00  0.00    +0.000 A 
ATOM     35 CL   UNL     1       8.408   5.446  20.040  0.00  0.00    +0.000 Cl
ATOM     36  C   UNL     1       6.729   4.813  18.021  0.00  0.00    +0.000 A 
ENDBRANCH  29  30
ENDBRANCH  27  29
ENDBRANCH  22  25
ENDBRANCH   1  19
TORSDOF 7
ENDMDL
MODEL 7
REMARK VINA RESULT:      -8.7      3.608      5.166
REMARK  Name = 
REMARK  7 active torsions:
REMARK  status: ('A' for Active; 'I' for Inactive)
REMARK    1  A    between atoms: C_2  and  C_28
REMARK    2  A    between atoms: N_3  and  C_4
REMARK    3  A    between atoms: C_8  and  C_9
REMARK    4  A    between atoms: C_9  and  N_10
REMARK    5  A    between atoms: C_13  and  C_14
REMARK    6  A    between atoms: N_16  and  C_17
REMARK    7  A    between atoms: C_17  and  C_18
REMARK                            x       y       z     vdW  Elec       q    Type
REMARK                         _______ _______ _______ _____ _____    ______ ____
ROOT
ATOM      1  C   UNL     1       1.600   5.806  21.156  0.00  0.00    +0.000 C 
ENDROOT
BRANCH   1   6
ATOM      2  C   UNL     1       1.637   9.075  19.159  0.00  0.00    +0.000 A 
ATOM      3  C   UNL     1       2.368   8.702  18.032  0.00  0.00    +0.000 A 
ATOM      4  C   UNL     1       2.952   7.438  17.971  0.00  0.00    +0.000 A 
ATOM      5  C   UNL     1       2.738   6.518  18.998  0.00  0.00    +0.000 A 
ATOM      6  C   UNL     1       1.934   6.845  20.099  0.00  0.00    +0.000 A 
ATOM      7  C   UNL     1       1.423   8.152  20.190  0.00  0.00    +0.000 A 
BRANCH   2  10
ATOM      8  O   UNL     1       1.270  10.741  21.492  0.00  0.00    +0.000 OA
ATOM      9  C   UNL     1       0.944  11.100  20.369  0.00  0.00    +0.000 C 
ATOM     10  N   UNL     1       1.108  10.378  19.198  0.00  0.00    +0.000 N 
ATOM     11  H   UNL     1       1.182  10.919  18.346  0.00  0.00    +0.000 HD
BRANCH   9  12
ATOM     12  C   UNL     1       0.415  12.473  20.168  0.00  0.00    +0.000 A 
ATOM     13  C   UNL     1       0.323  13.338  21.270  0.00  0.00    +0.000 A 
ATOM     14  C   UNL     1      -0.155  14.642  21.088  0.00  0.00    +0.000 A 
ATOM     15  C   UNL     1      -0.548  15.065  19.816  0.00  0.00    +0.000 A 
ATOM     16 CL   UNL     1      -1.129  16.668  19.590  0.00  0.00    +0.000 Cl
ATOM     17  C   UNL     1      -0.478  14.200  18.723  0.00  0.00    +0.000 A 
ATOM     18  C   UNL     1       0.007  12.899  18.901  0.00  0.00    +0.000 A 
ENDBRANCH   9  12
ENDBRANCH   2  10
ENDBRANCH   1   6
BRANCH   1  19
ATOM     19  N   UNL     1       1.704   4.382  20.756  0.00  0.00    +0.000 NA
ATOM     20  C   UNL     1       0.828   4.044  19.629  0.00  0.00    +0.000 C 
ATOM     21  C   UNL     1       0.899   2.565  19.255  0.00  0.00    +0.000 C 
ATOM     22  C   UNL     1       2.331   2.121  18.957  0.00  0.00    +0.000 C 
ATOM     23  C   UNL     1       3.218   2.476  20.156  0.00  0.00    +0.000 C 
ATOM     24  C   UNL     1       3.094   3.947  20.570  0.00  0.00    +0.000 C 
BRANCH  22  25
ATOM     25  C   UNL     1       2.897   2.681  17.646  0.00  0.00    +0.000 C 
ATOM     26  O   UNL     1       2.190   3.082  16.725  0.00  0.00    +0.000 OA
ATOM     27  N   UNL     1       4.270   2.791  17.603  0.00  0.00    +0.000 N 
ATOM     28  H   UNL     1       4.840   2.397  18.339  0.00  0.00    +0.000 HD
BRANCH  27  29
ATOM     29  C   UNL     1       4.925   3.412  16.471  0.00  0.00    +0.000 C 
BRANCH  29  30
ATOM     30  C   UNL     1       5.663   4.656  16.887  0.00  0.00    +0.000 A 
ATOM     31  C   UNL     1       5.621   5.807  16.087  0.00  0.00    +0.000 A 
ATOM     32  C   UNL     1       6.370   6.936  16.425  0.00  0.00    +0.000 A 
ATOM     33  C   UNL     1       7.174   6.924  17.565  0.00  0.00    +0.000 A 
ATOM     34  C   UNL     1       7.205   5.792  18.376  0.00  0.00    +0.000 A 
ATOM     35 CL   UNL     1       8.199   5.778  19.781  0.00  0.00    +0.000 Cl
ATOM     36  C   UNL     1       6.452   4.664  18.048  0.00  0.00    +0.000 A 
ENDBRANCH  29  30
ENDBRANCH  27  29
ENDBRANCH  22  25
ENDBRANCH   1  19
TORSDOF 7
ENDMDL
MODEL 8
REMARK VINA RESULT:      -8.6      3.299      4.682
REMARK  Name = 
REMARK  7 active torsions:
REMARK  status: ('A' for Active; 'I' for Inactive)
REMARK    1  A    between atoms: C_2  and  C_28
REMARK    2  A    between atoms: N_3  and  C_4
REMARK    3  A    between atoms: C_8  and  C_9
REMARK    4  A    between atoms: C_9  and  N_10
REMARK    5  A    between atoms: C_13  and  C_14
REMARK    6  A    between atoms: N_16  and  C_17
REMARK    7  A    between atoms: C_17  and  C_18
REMARK                            x       y       z     vdW  Elec       q    Type
REMARK                         _______ _______ _______ _____ _____    ______ ____
ROOT
ATOM      1  C   UNL     1       1.931   5.075  20.881  0.00  0.00    +0.000 C 
ENDROOT
BRANCH   1   6
ATOM      2  C   UNL     1       1.406   8.787  20.095  0.00  0.00    +0.000 A 
ATOM      3  C   UNL     1       1.849   8.855  18.774  0.00  0.00    +0.000 A 
ATOM      4  C   UNL     1       2.431   7.737  18.179  0.00  0.00    +0.000 A 
ATOM      5  C   UNL     1       2.493   6.528  18.874  0.00  0.00    +0.000 A 
ATOM      6  C   UNL     1       1.974   6.417  20.171  0.00  0.00    +0.000 A 
ATOM      7  C   UNL     1       1.471   7.575  20.792  0.00  0.00    +0.000 A 
BRANCH   2  10
ATOM      8  O   UNL     1      -0.810   8.967  21.942  0.00  0.00    +0.000 OA
ATOM      9  C   UNL     1      -0.213   9.952  21.532  0.00  0.00    +0.000 C 
ATOM     10  N   UNL     1       0.872   9.954  20.670  0.00  0.00    +0.000 N 
ATOM     11  H   UNL     1       1.497  10.748  20.739  0.00  0.00    +0.000 HD
BRANCH   9  12
ATOM     12  C   UNL     1      -0.574  11.293  22.058  0.00  0.00    +0.000 A 
ATOM     13  C   UNL     1      -1.587  11.399  23.024  0.00  0.00    +0.000 A 
ATOM     14  C   UNL     1      -1.922  12.656  23.541  0.00  0.00    +0.000 A 
ATOM     15  C   UNL     1      -1.254  13.794  23.084  0.00  0.00    +0.000 A 
ATOM     16 CL   UNL     1      -1.659  15.339  23.724  0.00  0.00    +0.000 Cl
ATOM     17  C   UNL     1      -0.261  13.696  22.109  0.00  0.00    +0.000 A 
ATOM     18  C   UNL     1       0.080  12.438  21.595  0.00  0.00    +0.000 A 
ENDBRANCH   9  12
ENDBRANCH   2  10
ENDBRANCH   1   6
BRANCH   1  19
ATOM     19  N   UNL     1       2.283   3.878  20.079  0.00  0.00    +0.000 NA
ATOM     20  C   UNL     1       1.667   3.885  18.749  0.00  0.00    +0.000 C 
ATOM     21  C   UNL     1       1.989   2.626  17.946  0.00  0.00    +0.000 C 
ATOM     22  C   UNL     1       3.496   2.399  17.824  0.00  0.00    +0.000 C 
ATOM     23  C   UNL     1       4.109   2.384  19.229  0.00  0.00    +0.000 C 
ATOM     24  C   UNL     1       3.728   3.619  20.055  0.00  0.00    +0.000 C 
BRANCH  22  25
ATOM     25  C   UNL     1       4.205   3.403  16.906  0.00  0.00    +0.000 C 
ATOM     26  O   UNL     1       3.609   4.257  16.255  0.00  0.00    +0.000 OA
ATOM     27  N   UNL     1       5.581   3.343  16.928  0.00  0.00    +0.000 N 
ATOM     28  H   UNL     1       6.055   2.595  17.416  0.00  0.00    +0.000 HD
BRANCH  27  29
ATOM     29  C   UNL     1       6.373   4.309  16.197  0.00  0.00    +0.000 C 
BRANCH  29  30
ATOM     30  C   UNL     1       7.080   5.251  17.136  0.00  0.00    +0.000 A 
ATOM     31  C   UNL     1       7.604   4.782  18.349  0.00  0.00    +0.000 A 
ATOM     32  C   UNL     1       8.186   5.666  19.261  0.00  0.00    +0.000 A 
ATOM     33  C   UNL     1       8.246   7.029  18.971  0.00  0.00    +0.000 A 
ATOM     34  C   UNL     1       7.746   7.498  17.759  0.00  0.00    +0.000 A 
ATOM     35 CL   UNL     1       7.818   9.181  17.403  0.00  0.00    +0.000 Cl
ATOM     36  C   UNL     1       7.171   6.620  16.840  0.00  0.00    +0.000 A 
ENDBRANCH  29  30
ENDBRANCH  27  29
ENDBRANCH  22  25
ENDBRANCH   1  19
TORSDOF 7
ENDMDL
MODEL 9
REMARK VINA RESULT:      -8.6      3.762      5.404
REMARK  Name = 
REMARK  7 active torsions:
REMARK  status: ('A' for Active; 'I' for Inactive)
REMARK    1  A    between atoms: C_2  and  C_28
REMARK    2  A    between atoms: N_3  and  C_4
REMARK    3  A    between atoms: C_8  and  C_9
REMARK    4  A    between atoms: C_9  and  N_10
REMARK    5  A    between atoms: C_13  and  C_14
REMARK    6  A    between atoms: N_16  and  C_17
REMARK    7  A    between atoms: C_17  and  C_18
REMARK                            x       y       z     vdW  Elec       q    Type
REMARK                         _______ _______ _______ _____ _____    ______ ____
ROOT
ATOM      1  C   UNL     1       1.870   5.984  21.088  0.00  0.00    +0.000 C 
ENDROOT
BRANCH   1   6
ATOM      2  C   UNL     1       1.475   9.330  19.266  0.00  0.00    +0.000 A 
ATOM      3  C   UNL     1       2.026   9.033  18.020  0.00  0.00    +0.000 A 
ATOM      4  C   UNL     1       2.635   7.797  17.807  0.00  0.00    +0.000 A 
ATOM      5  C   UNL     1       2.620   6.828  18.811  0.00  0.00    +0.000 A 
ATOM      6  C   UNL     1       1.994   7.077  20.041  0.00  0.00    +0.000 A 
ATOM      7  C   UNL     1       1.462   8.359  20.274  0.00  0.00    +0.000 A 
BRANCH   2  10
ATOM      8  O   UNL     1      -1.286  10.098  18.890  0.00  0.00    +0.000 OA
ATOM      9  C   UNL     1      -0.420  10.895  19.223  0.00  0.00    +0.000 C 
ATOM     10  N   UNL     1       0.917  10.608  19.450  0.00  0.00    +0.000 N 
ATOM     11  H   UNL     1       1.405  11.226  20.085  0.00  0.00    +0.000 HD
BRANCH   9  12
ATOM     12  C   UNL     1      -0.801  12.298  19.530  0.00  0.00    +0.000 A 
ATOM     13  C   UNL     1      -1.901  12.539  20.368  0.00  0.00    +0.000 A 
ATOM     14  C   UNL     1      -2.257  13.858  20.680  0.00  0.00    +0.000 A 
ATOM     15  C   UNL     1      -1.522  14.919  20.145  0.00  0.00    +0.000 A 
ATOM     16 CL   UNL     1      -1.954  16.538  20.534  0.00  0.00    +0.000 Cl
ATOM     17  C   UNL     1      -0.442  14.683  19.295  0.00  0.00    +0.000 A 
ATOM     18  C   UNL     1      -0.080  13.365  18.987  0.00  0.00    +0.000 A 
ENDBRANCH   9  12
ENDBRANCH   2  10
ENDBRANCH   1   6
BRANCH   1  19
ATOM     19  N   UNL     1       1.447   4.644  20.614  0.00  0.00    +0.000 NA
ATOM     20  C   UNL     1       1.251   4.592  19.162  0.00  0.00    +0.000 C 
ATOM     21  C   UNL     1       0.764   3.225  18.685  0.00  0.00    +0.000 C 
ATOM     22  C   UNL     1       1.700   2.100  19.128  0.00  0.00    +0.000 C 
ATOM     23  C   UNL     1       1.874   2.174  20.650  0.00  0.00    +0.000 C 
ATOM     24  C   UNL     1       2.299   3.566  21.131  0.00  0.00    +0.000 C 
BRANCH  22  25
ATOM     25  C   UNL     1       3.051   2.090  18.401  0.00  0.00    +0.000 C 
ATOM     26  O   UNL     1       3.838   1.148  18.457  0.00  0.00    +0.000 OA
ATOM     27  N   UNL     1       3.289   3.183  17.598  0.00  0.00    +0.000 N 
ATOM     28  H   UNL     1       2.664   3.978  17.613  0.00  0.00    +0.000 HD
BRANCH  27  29
ATOM     29  C   UNL     1       4.473   3.244  16.767  0.00  0.00    +0.000 C 
BRANCH  29  30
ATOM     30  C   UNL     1       5.254   4.504  17.028  0.00  0.00    +0.000 A 
ATOM     31  C   UNL     1       5.126   5.607  16.171  0.00  0.00    +0.000 A 
ATOM     32  C   UNL     1       5.910   6.748  16.360  0.00  0.00    +0.000 A 
ATOM     33  C   UNL     1       6.833   6.796  17.404  0.00  0.00    +0.000 A 
ATOM     34  C   UNL     1       6.950   5.712  18.271  0.00  0.00    +0.000 A 
ATOM     35 CL   UNL     1       8.092   5.771  19.559  0.00  0.00    +0.000 Cl
ATOM     36  C   UNL     1       6.164   4.573  18.093  0.00  0.00    +0.000 A 
ENDBRANCH  29  30
ENDBRANCH  27  29
ENDBRANCH  22  25
ENDBRANCH   1  19
TORSDOF 7
ENDMDL
