MODEL 1
REMARK VINA RESULT:      -8.5      0.000      0.000
REMARK  Name = 
REMARK  8 active torsions:
REMARK  status: ('A' for Active; 'I' for Inactive)
REMARK    1  A    between atoms: C_1  and  C_2
REMARK    2  A    between atoms: C_2  and  C_4
REMARK    3  A    between atoms: C_7  and  N_8
REMARK    4  A    between atoms: N_11  and  C_12
REMARK    5  A    between atoms: C_15  and  C_16
REMARK    6  A    between atoms: C_16  and  C_17
REMARK    7  A    between atoms: C_29  and  C_30
REMARK    8  A    between atoms: C_32  and  C_33
REMARK                            x       y       z     vdW  Elec       q    Type
REMARK                         _______ _______ _______ _____ _____    ______ ____
ROOT
ATOM      1  N   UNL     1       1.853   8.349  19.520  0.00  0.00    +0.000 N 
ATOM      2  C   UNL     1       1.633   8.965  20.832  0.00  0.00    +0.000 C 
ATOM      3  C   UNL     1       0.242   9.608  20.969  0.00  0.00    +0.000 C 
ATOM      4  N   UNL     1      -0.081  10.461  19.822  0.00  0.00    +0.000 N 
ATOM      5  C   UNL     1       0.059   9.795  18.518  0.00  0.00    +0.000 C 
ATOM      6  C   UNL     1       1.450   9.124  18.327  0.00  0.00    +0.000 C 
ATOM      7  C   UNL     1       2.529  10.150  17.989  0.00  0.00    +0.000 C 
ENDROOT
BRANCH   4   8
ATOM      8  C   UNL     1      -0.334  11.813  19.875  0.00  0.00    +0.000 A 
ATOM      9  N   UNL     1      -0.367  12.527  18.724  0.00  0.00    +0.000 NA
ATOM     10  N   UNL     1      -0.629  13.914  18.684  0.00  0.00    +0.000 NA
ATOM     11  C   UNL     1      -0.875  14.601  19.813  0.00  0.00    +0.000 A 
ATOM     12  C   UNL     1      -0.870  13.911  21.004  0.00  0.00    +0.000 A 
ATOM     13  C   UNL     1      -0.598  12.525  21.033  0.00  0.00    +0.000 A 
ATOM     14  C   UNL     1      -0.681  12.043  22.453  0.00  0.00    +0.000 C 
ATOM     15  C   UNL     1      -1.436  13.171  23.153  0.00  0.00    +0.000 C 
ATOM     16  C   UNL     1      -1.100  14.447  22.384  0.00  0.00    +0.000 C 
BRANCH  11  17
ATOM     17  C   UNL     1      -1.136  16.081  19.712  0.00  0.00    +0.000 C 
BRANCH  17  18
ATOM     18  C   UNL     1      -0.261  16.795  18.705  0.00  0.00    +0.000 A 
ATOM     19  C   UNL     1       1.133  16.638  18.748  0.00  0.00    +0.000 A 
ATOM     20  C   UNL     1       1.953  17.311  17.841  0.00  0.00    +0.000 A 
ATOM     21  C   UNL     1       1.390  18.143  16.877  0.00  0.00    +0.000 A 
ATOM     22  C   UNL     1       0.006  18.292  16.808  0.00  0.00    +0.000 A 
ATOM     23  C   UNL     1      -0.818  17.619  17.717  0.00  0.00    +0.000 A 
ENDBRANCH  17  18
ENDBRANCH  11  17
ENDBRANCH   4   8
BRANCH   1  27
ATOM     24  C   UNL     1       2.781   4.290  19.314  0.00  0.00    +0.000 A 
ATOM     25  C   UNL     1       2.028   4.865  20.331  0.00  0.00    +0.000 A 
ATOM     26  N   UNL     1       1.738   6.186  20.425  0.00  0.00    +0.000 NA
ATOM     27  C   UNL     1       2.162   7.012  19.450  0.00  0.00    +0.000 A 
ATOM     28  C   UNL     1       2.940   6.511  18.414  0.00  0.00    +0.000 A 
ATOM     29  C   UNL     1       3.286   5.144  18.334  0.00  0.00    +0.000 A 
BRANCH  29  30
ATOM     30  C   UNL     1       4.201   4.762  17.203  0.00  0.00    +0.000 C 
ATOM     31  F   UNL     1       3.766   3.808  16.347  0.00  0.00    +0.000 F 
ATOM     32  F   UNL     1       4.560   5.839  16.449  0.00  0.00    +0.000 F 
ATOM     33  F   UNL     1       5.381   4.266  17.690  0.00  0.00    +0.000 F 
ENDBRANCH  29  30
BRANCH  24  35
ATOM     34  C   UNL     1       1.893   2.006  18.521  0.00  0.00    +0.000 C 
ATOM     35  C   UNL     1       2.918   2.816  19.280  0.00  0.00    +0.000 C 
ATOM     36  O   UNL     1       3.896   2.295  19.803  0.00  0.00    +0.000 OA
ENDBRANCH  24  35
ENDBRANCH   1  27
TORSDOF 6
ENDMDL
MODEL 2
REMARK VINA RESULT:      -8.5      3.127      4.786
REMARK  Name = 
REMARK  8 active torsions:
REMARK  status: ('A' for Active; 'I' for Inactive)
REMARK    1  A    between atoms: C_1  and  C_2
REMARK    2  A    between atoms: C_2  and  C_4
REMARK    3  A    between atoms: C_7  and  N_8
REMARK    4  A    between atoms: N_11  and  C_12
REMARK    5  A    between atoms: C_15  and  C_16
REMARK    6  A    between atoms: C_16  and  C_17
REMARK    7  A    between atoms: C_29  and  C_30
REMARK    8  A    between atoms: C_32  and  C_33
REMARK                            x       y       z     vdW  Elec       q    Type
REMARK                         _______ _______ _______ _____ _____    ______ ____
ROOT
ATOM      1  N   UNL     1       1.647   8.175  19.323  0.00  0.00    +0.000 N 
ATOM      2  C   UNL     1       1.146   9.197  18.400  0.00  0.00    +0.000 C 
ATOM      3  C   UNL     1       1.393  10.632  18.899  0.00  0.00    +0.000 C 
ATOM      4  N   UNL     1       0.980  10.802  20.295  0.00  0.00    +0.000 N 
ATOM      5  C   UNL     1       1.567   9.820  21.221  0.00  0.00    +0.000 C 
ATOM      6  C   UNL     1       1.348   8.350  20.761  0.00  0.00    +0.000 C 
ATOM      7  C   UNL     1      -0.073   7.872  21.055  0.00  0.00    +0.000 C 
ENDROOT
BRANCH   4   8
ATOM      8  C   UNL     1       0.010  11.670  20.744  0.00  0.00    +0.000 A 
ATOM      9  N   UNL     1       0.301  12.524  21.755  0.00  0.00    +0.000 NA
ATOM     10  N   UNL     1      -0.627  13.454  22.271  0.00  0.00    +0.000 NA
ATOM     11  C   UNL     1      -1.869  13.541  21.762  0.00  0.00    +0.000 A 
ATOM     12  C   UNL     1      -2.202  12.705  20.721  0.00  0.00    +0.000 A 
ATOM     13  C   UNL     1      -1.267  11.773  20.218  0.00  0.00    +0.000 A 
ATOM     14  C   UNL     1      -1.895  11.017  19.082  0.00  0.00    +0.000 C 
ATOM     15  C   UNL     1      -3.093  11.890  18.714  0.00  0.00    +0.000 C 
ATOM     16  C   UNL     1      -3.511  12.602  19.999  0.00  0.00    +0.000 C 
BRANCH  11  17
ATOM     17  C   UNL     1      -2.822  14.542  22.360  0.00  0.00    +0.000 C 
BRANCH  17  18
ATOM     18  C   UNL     1      -4.015  13.921  23.054  0.00  0.00    +0.000 A 
ATOM     19  C   UNL     1      -3.822  12.950  24.048  0.00  0.00    +0.000 A 
ATOM     20  C   UNL     1      -4.913  12.351  24.678  0.00  0.00    +0.000 A 
ATOM     21  C   UNL     1      -6.209  12.720  24.328  0.00  0.00    +0.000 A 
ATOM     22  C   UNL     1      -6.416  13.699  23.358  0.00  0.00    +0.000 A 
ATOM     23  C   UNL     1      -5.323  14.299  22.724  0.00  0.00    +0.000 A 
ENDBRANCH  17  18
ENDBRANCH  11  17
ENDBRANCH   4   8
BRANCH   1  27
ATOM     24  C   UNL     1       4.469   5.422  17.967  0.00  0.00    +0.000 A 
ATOM     25  C   UNL     1       4.388   6.737  17.522  0.00  0.00    +0.000 A 
ATOM     26  N   UNL     1       3.461   7.636  17.935  0.00  0.00    +0.000 NA
ATOM     27  C   UNL     1       2.574   7.265  18.877  0.00  0.00    +0.000 A 
ATOM     28  C   UNL     1       2.581   5.959  19.352  0.00  0.00    +0.000 A 
ATOM     29  C   UNL     1       3.513   5.004  18.892  0.00  0.00    +0.000 A 
BRANCH  29  30
ATOM     30  C   UNL     1       3.348   3.609  19.434  0.00  0.00    +0.000 C 
ATOM     31  F   UNL     1       4.410   3.059  20.067  0.00  0.00    +0.000 F 
ATOM     32  F   UNL     1       2.285   3.513  20.282  0.00  0.00    +0.000 F 
ATOM     33  F   UNL     1       3.068   2.733  18.420  0.00  0.00    +0.000 F 
ENDBRANCH  29  30
BRANCH  24  35
ATOM     34  C   UNL     1       5.586   4.028  16.112  0.00  0.00    +0.000 C 
ATOM     35  C   UNL     1       5.606   4.589  17.514  0.00  0.00    +0.000 C 
ATOM     36  O   UNL     1       6.568   4.437  18.259  0.00  0.00    +0.000 OA
ENDBRANCH  24  35
ENDBRANCH   1  27
TORSDOF 6
ENDMDL
MODEL 3
REMARK VINA RESULT:      -8.4      2.906      5.112
REMARK  Name = 
REMARK  8 active torsions:
REMARK  status: ('A' for Active; 'I' for Inactive)
REMARK    1  A    between atoms: C_1  and  C_2
REMARK    2  A    between atoms: C_2  and  C_4
REMARK    3  A    between atoms: C_7  and  N_8
REMARK    4  A    between atoms: N_11  and  C_12
REMARK    5  A    between atoms: C_15  and  C_16
REMARK    6  A    between atoms: C_16  and  C_17
REMARK    7  A    between atoms: C_29  and  C_30
REMARK    8  A    between atoms: C_32  and  C_33
REMARK                            x       y       z     vdW  Elec       q    Type
REMARK                         _______ _______ _______ _____ _____    ______ ____
ROOT
ATOM      1  N   UNL     1       1.157   8.818  19.799  0.00  0.00    +0.000 N 
ATOM      2  C   UNL     1       0.527   9.967  19.143  0.00  0.00    +0.000 C 
ATOM      3  C   UNL     1       0.755  11.289  19.897  0.00  0.00    +0.000 C 
ATOM      4  N   UNL     1       0.466  11.158  21.327  0.00  0.00    +0.000 N 
ATOM      5  C   UNL     1       1.180  10.053  21.987  0.00  0.00    +0.000 C 
ATOM      6  C   UNL     1       0.986   8.690  21.262  0.00  0.00    +0.000 C 
ATOM      7  C   UNL     1      -0.378   8.076  21.571  0.00  0.00    +0.000 C 
ENDROOT
BRANCH   4   8
ATOM      8  C   UNL     1      -0.496  11.859  22.018  0.00  0.00    +0.000 A 
ATOM      9  N   UNL     1      -1.520  11.186  22.596  0.00  0.00    +0.000 NA
ATOM     10  N   UNL     1      -2.544  11.822  23.331  0.00  0.00    +0.000 NA
ATOM     11  C   UNL     1      -2.542  13.155  23.504  0.00  0.00    +0.000 A 
ATOM     12  C   UNL     1      -1.509  13.877  22.949  0.00  0.00    +0.000 A 
ATOM     13  C   UNL     1      -0.494  13.231  22.209  0.00  0.00    +0.000 A 
ATOM     14  C   UNL     1       0.500  14.258  21.747  0.00  0.00    +0.000 C 
ATOM     15  C   UNL     1       0.194  15.456  22.644  0.00  0.00    +0.000 C 
ATOM     16  C   UNL     1      -1.290  15.359  22.989  0.00  0.00    +0.000 C 
BRANCH  11  17
ATOM     17  C   UNL     1      -3.666  13.781  24.286  0.00  0.00    +0.000 C 
BRANCH  17  18
ATOM     18  C   UNL     1      -5.036  13.560  23.683  0.00  0.00    +0.000 A 
ATOM     19  C   UNL     1      -5.389  14.202  22.486  0.00  0.00    +0.000 A 
ATOM     20  C   UNL     1      -6.658  14.027  21.933  0.00  0.00    +0.000 A 
ATOM     21  C   UNL     1      -7.587  13.203  22.565  0.00  0.00    +0.000 A 
ATOM     22  C   UNL     1      -7.242  12.542  23.743  0.00  0.00    +0.000 A 
ATOM     23  C   UNL     1      -5.971  12.718  24.300  0.00  0.00    +0.000 A 
ENDBRANCH  17  18
ENDBRANCH  11  17
ENDBRANCH   4   8
BRANCH   1  27
ATOM     24  C   UNL     1       3.961   6.565  17.690  0.00  0.00    +0.000 A 
ATOM     25  C   UNL     1       3.500   7.812  17.284  0.00  0.00    +0.000 A 
ATOM     26  N   UNL     1       2.572   8.546  17.945  0.00  0.00    +0.000 NA
ATOM     27  C   UNL     1       2.079   8.072  19.105  0.00  0.00    +0.000 A 
ATOM     28  C   UNL     1       2.477   6.821  19.561  0.00  0.00    +0.000 A 
ATOM     29  C   UNL     1       3.408   6.031  18.854  0.00  0.00    +0.000 A 
BRANCH  29  30
ATOM     30  C   UNL     1       3.680   4.665  19.424  0.00  0.00    +0.000 C 
ATOM     31  F   UNL     1       3.267   3.597  18.702  0.00  0.00    +0.000 F 
ATOM     32  F   UNL     1       5.002   4.476  19.694  0.00  0.00    +0.000 F 
ATOM     33  F   UNL     1       3.051   4.519  20.632  0.00  0.00    +0.000 F 
ENDBRANCH  29  30
BRANCH  24  35
ATOM     34  C   UNL     1       6.480   6.392  17.181  0.00  0.00    +0.000 C 
ATOM     35  C   UNL     1       5.063   5.933  16.929  0.00  0.00    +0.000 C 
ATOM     36  O   UNL     1       4.808   5.005  16.170  0.00  0.00    +0.000 OA
ENDBRANCH  24  35
ENDBRANCH   1  27
TORSDOF 6
ENDMDL
MODEL 4
REMARK VINA RESULT:      -8.4      3.134      4.861
REMARK  Name = 
REMARK  8 active torsions:
REMARK  status: ('A' for Active; 'I' for Inactive)
REMARK    1  A    between atoms: C_1  and  C_2
REMARK    2  A    between atoms: C_2  and  C_4
REMARK    3  A    between atoms: C_7  and  N_8
REMARK    4  A    between atoms: N_11  and  C_12
REMARK    5  A    between atoms: C_15  and  C_16
REMARK    6  A    between atoms: C_16  and  C_17
REMARK    7  A    between atoms: C_29  and  C_30
REMARK    8  A    between atoms: C_32  and  C_33
REMARK                            x       y       z     vdW  Elec       q    Type
REMARK                         _______ _______ _______ _____ _____    ______ ____
ROOT
ATOM      1  N   UNL     1       1.599   8.268  19.228  0.00  0.00    +0.000 N 
ATOM      2  C   UNL     1       1.066   9.310  18.346  0.00  0.00    +0.000 C 
ATOM      3  C   UNL     1       1.319  10.733  18.874  0.00  0.00    +0.000 C 
ATOM      4  N   UNL     1       0.946  10.865  20.285  0.00  0.00    +0.000 N 
ATOM      5  C   UNL     1       1.564   9.864  21.168  0.00  0.00    +0.000 C 
ATOM      6  C   UNL     1       1.341   8.404  20.678  0.00  0.00    +0.000 C 
ATOM      7  C   UNL     1      -0.068   7.911  21.000  0.00  0.00    +0.000 C 
ENDROOT
BRANCH   4   8
ATOM      8  C   UNL     1      -0.016  11.715  20.783  0.00  0.00    +0.000 A 
ATOM      9  N   UNL     1       0.292  12.526  21.825  0.00  0.00    +0.000 NA
ATOM     10  N   UNL     1      -0.627  13.434  22.393  0.00  0.00    +0.000 NA
ATOM     11  C   UNL     1      -1.876  13.546  21.905  0.00  0.00    +0.000 A 
ATOM     12  C   UNL     1      -2.225  12.754  20.834  0.00  0.00    +0.000 A 
ATOM     13  C   UNL     1      -1.299  11.843  20.280  0.00  0.00    +0.000 A 
ATOM     14  C   UNL     1      -1.945  11.137  19.122  0.00  0.00    +0.000 C 
ATOM     15  C   UNL     1      -3.146  12.027  18.807  0.00  0.00    +0.000 C 
ATOM     16  C   UNL     1      -3.544  12.685  20.127  0.00  0.00    +0.000 C 
BRANCH  11  17
ATOM     17  C   UNL     1      -2.818  14.523  22.557  0.00  0.00    +0.000 C 
BRANCH  17  18
ATOM     18  C   UNL     1      -4.034  13.880  23.189  0.00  0.00    +0.000 A 
ATOM     19  C   UNL     1      -5.321  14.312  22.835  0.00  0.00    +0.000 A 
ATOM     20  C   UNL     1      -6.449  13.745  23.429  0.00  0.00    +0.000 A 
ATOM     21  C   UNL     1      -6.305  12.735  24.377  0.00  0.00    +0.000 A 
ATOM     22  C   UNL     1      -5.034  12.281  24.722  0.00  0.00    +0.000 A 
ATOM     23  C   UNL     1      -3.901  12.849  24.129  0.00  0.00    +0.000 A 
ENDBRANCH  17  18
ENDBRANCH  11  17
ENDBRANCH   4   8
BRANCH   1  27
ATOM     24  C   UNL     1       4.397   5.568  17.722  0.00  0.00    +0.000 A 
ATOM     25  C   UNL     1       4.325   6.904  17.347  0.00  0.00    +0.000 A 
ATOM     26  N   UNL     1       3.406   7.788  17.808  0.00  0.00    +0.000 NA
ATOM     27  C   UNL     1       2.518   7.375  18.732  0.00  0.00    +0.000 A 
ATOM     28  C   UNL     1       2.516   6.046  19.138  0.00  0.00    +0.000 A 
ATOM     29  C   UNL     1       3.440   5.109  18.627  0.00  0.00    +0.000 A 
BRANCH  29  30
ATOM     30  C   UNL     1       3.264   3.689  19.096  0.00  0.00    +0.000 C 
ATOM     31  F   UNL     1       2.149   3.405  19.807  0.00  0.00    +0.000 F 
ATOM     32  F   UNL     1       3.317   2.800  18.065  0.00  0.00    +0.000 F 
ATOM     33  F   UNL     1       4.294   3.329  19.923  0.00  0.00    +0.000 F 
ENDBRANCH  29  30
BRANCH  24  35
ATOM     34  C   UNL     1       5.516   4.295  15.784  0.00  0.00    +0.000 C 
ATOM     35  C   UNL     1       5.526   4.751  17.224  0.00  0.00    +0.000 C 
ATOM     36  O   UNL     1       6.474   4.527  17.968  0.00  0.00    +0.000 OA
ENDBRANCH  24  35
ENDBRANCH   1  27
TORSDOF 6
ENDMDL
MODEL 5
REMARK VINA RESULT:      -8.3      1.039      1.489
REMARK  Name = 
REMARK  8 active torsions:
REMARK  status: ('A' for Active; 'I' for Inactive)
REMARK    1  A    between atoms: C_1  and  C_2
REMARK    2  A    between atoms: C_2  and  C_4
REMARK    3  A    between atoms: C_7  and  N_8
REMARK    4  A    between atoms: N_11  and  C_12
REMARK    5  A    between atoms: C_15  and  C_16
REMARK    6  A    between atoms: C_16  and  C_17
REMARK    7  A    between atoms: C_29  and  C_30
REMARK    8  A    between atoms: C_32  and  C_33
REMARK                            x       y       z     vdW  Elec       q    Type
REMARK                         _______ _______ _______ _____ _____    ______ ____
ROOT
ATOM      1  N   UNL     1       1.586   8.666  19.834  0.00  0.00    +0.000 N 
ATOM      2  C   UNL     1       1.517   9.351  21.127  0.00  0.00    +0.000 C 
ATOM      3  C   UNL     1       0.175  10.068  21.356  0.00  0.00    +0.000 C 
ATOM      4  N   UNL     1      -0.213  10.883  20.202  0.00  0.00    +0.000 N 
ATOM      5  C   UNL     1      -0.224  10.151  18.925  0.00  0.00    +0.000 C 
ATOM      6  C   UNL     1       1.111   9.404  18.644  0.00  0.00    +0.000 C 
ATOM      7  C   UNL     1       2.200  10.359  18.159  0.00  0.00    +0.000 C 
ENDROOT
BRANCH   4   8
ATOM      8  C   UNL     1      -0.399  12.247  20.210  0.00  0.00    +0.000 A 
ATOM      9  N   UNL     1       0.620  13.057  19.832  0.00  0.00    +0.000 NA
ATOM     10  N   UNL     1       0.515  14.465  19.800  0.00  0.00    +0.000 NA
ATOM     11  C   UNL     1      -0.632  15.077  20.141  0.00  0.00    +0.000 A 
ATOM     12  C   UNL     1      -1.699  14.291  20.514  0.00  0.00    +0.000 A 
ATOM     13  C   UNL     1      -1.580  12.884  20.550  0.00  0.00    +0.000 A 
ATOM     14  C   UNL     1      -2.896  12.295  20.969  0.00  0.00    +0.000 C 
ATOM     15  C   UNL     1      -3.872  13.449  20.749  0.00  0.00    +0.000 C 
ATOM     16  C   UNL     1      -3.065  14.731  20.947  0.00  0.00    +0.000 C 
BRANCH  11  17
ATOM     17  C   UNL     1      -0.684  16.582  20.101  0.00  0.00    +0.000 C 
BRANCH  17  18
ATOM     18  C   UNL     1      -0.091  17.186  18.847  0.00  0.00    +0.000 A 
ATOM     19  C   UNL     1      -0.918  17.851  17.928  0.00  0.00    +0.000 A 
ATOM     20  C   UNL     1      -0.389  18.391  16.756  0.00  0.00    +0.000 A 
ATOM     21  C   UNL     1       0.974  18.280  16.490  0.00  0.00    +0.000 A 
ATOM     22  C   UNL     1       1.811  17.642  17.403  0.00  0.00    +0.000 A 
ATOM     23  C   UNL     1       1.282  17.098  18.579  0.00  0.00    +0.000 A 
ENDBRANCH  17  18
ENDBRANCH  11  17
ENDBRANCH   4   8
BRANCH   1  27
ATOM     24  C   UNL     1       2.306   4.560  19.749  0.00  0.00    +0.000 A 
ATOM     25  C   UNL     1       1.608   5.206  20.762  0.00  0.00    +0.000 A 
ATOM     26  N   UNL     1       1.387   6.543  20.817  0.00  0.00    +0.000 NA
ATOM     27  C   UNL     1       1.827   7.313  19.804  0.00  0.00    +0.000 A 
ATOM     28  C   UNL     1       2.553   6.738  18.768  0.00  0.00    +0.000 A 
ATOM     29  C   UNL     1       2.827   5.354  18.728  0.00  0.00    +0.000 A 
BRANCH  29  30
ATOM     30  C   UNL     1       3.694   4.888  17.589  0.00  0.00    +0.000 C 
ATOM     31  F   UNL     1       4.859   4.276  17.906  0.00  0.00    +0.000 F 
ATOM     32  F   UNL     1       3.024   4.055  16.744  0.00  0.00    +0.000 F 
ATOM     33  F   UNL     1       4.071   5.949  16.810  0.00  0.00    +0.000 F 
ENDBRANCH  29  30
BRANCH  24  35
ATOM     34  C   UNL     1       1.308   2.299  19.022  0.00  0.00    +0.000 C 
ATOM     35  C   UNL     1       2.368   3.080  19.763  0.00  0.00    +0.000 C 
ATOM     36  O   UNL     1       3.316   2.528  20.310  0.00  0.00    +0.000 OA
ENDBRANCH  24  35
ENDBRANCH   1  27
TORSDOF 6
ENDMDL
MODEL 6
REMARK VINA RESULT:      -8.3      0.675      1.212
REMARK  Name = 
REMARK  8 active torsions:
REMARK  status: ('A' for Active; 'I' for Inactive)
REMARK    1  A    between atoms: C_1  and  C_2
REMARK    2  A    between atoms: C_2  and  C_4
REMARK    3  A    between atoms: C_7  and  N_8
REMARK    4  A    between atoms: N_11  and  C_12
REMARK    5  A    between atoms: C_15  and  C_16
REMARK    6  A    between atoms: C_16  and  C_17
REMARK    7  A    between atoms: C_29  and  C_30
REMARK    8  A    between atoms: C_32  and  C_33
REMARK                            x       y       z     vdW  Elec       q    Type
REMARK                         _______ _______ _______ _____ _____    ______ ____
ROOT
ATOM      1  N   UNL     1       1.558   8.577  19.914  0.00  0.00    +0.000 N 
ATOM      2  C   UNL     1       1.523   9.240  21.220  0.00  0.00    +0.000 C 
ATOM      3  C   UNL     1       0.153   9.865  21.541  0.00  0.00    +0.000 C 
ATOM      4  N   UNL     1      -0.354  10.668  20.425  0.00  0.00    +0.000 N 
ATOM      5  C   UNL     1      -0.395   9.953  19.139  0.00  0.00    +0.000 C 
ATOM      6  C   UNL     1       0.966   9.298  18.767  0.00  0.00    +0.000 C 
ATOM      7  C   UNL     1       1.960  10.328  18.235  0.00  0.00    +0.000 C 
ENDROOT
BRANCH   4   8
ATOM      8  C   UNL     1      -0.627  12.016  20.467  0.00  0.00    +0.000 A 
ATOM      9  N   UNL     1      -0.359  12.781  19.380  0.00  0.00    +0.000 NA
ATOM     10  N   UNL     1      -0.615  14.168  19.331  0.00  0.00    +0.000 NA
ATOM     11  C   UNL     1      -1.160  14.805  20.382  0.00  0.00    +0.000 A 
ATOM     12  C   UNL     1      -1.466  14.063  21.501  0.00  0.00    +0.000 A 
ATOM     13  C   UNL     1      -1.198  12.677  21.541  0.00  0.00    +0.000 A 
ATOM     14  C   UNL     1      -1.651  12.132  22.866  0.00  0.00    +0.000 C 
ATOM     15  C   UNL     1      -2.577  13.229  23.387  0.00  0.00    +0.000 C 
ATOM     16  C   UNL     1      -2.061  14.538  22.791  0.00  0.00    +0.000 C 
BRANCH  11  17
ATOM     17  C   UNL     1      -1.400  16.288  20.279  0.00  0.00    +0.000 C 
BRANCH  17  18
ATOM     18  C   UNL     1      -0.531  16.985  19.255  0.00  0.00    +0.000 A 
ATOM     19  C   UNL     1      -1.109  17.538  18.102  0.00  0.00    +0.000 A 
ATOM     20  C   UNL     1      -0.316  18.160  17.138  0.00  0.00    +0.000 A 
ATOM     21  C   UNL     1       1.063  18.244  17.316  0.00  0.00    +0.000 A 
ATOM     22  C   UNL     1       1.648  17.719  18.467  0.00  0.00    +0.000 A 
ATOM     23  C   UNL     1       0.855  17.093  19.434  0.00  0.00    +0.000 A 
ENDBRANCH  17  18
ENDBRANCH  11  17
ENDBRANCH   4   8
BRANCH   1  27
ATOM     24  C   UNL     1       2.534   4.528  19.717  0.00  0.00    +0.000 A 
ATOM     25  C   UNL     1       1.794   5.101  20.744  0.00  0.00    +0.000 A 
ATOM     26  N   UNL     1       1.489   6.419  20.835  0.00  0.00    +0.000 NA
ATOM     27  C   UNL     1       1.884   7.244  19.847  0.00  0.00    +0.000 A 
ATOM     28  C   UNL     1       2.648   6.745  18.799  0.00  0.00    +0.000 A 
ATOM     29  C   UNL     1       3.009   5.383  18.722  0.00  0.00    +0.000 A 
BRANCH  29  30
ATOM     30  C   UNL     1       3.908   5.004  17.575  0.00  0.00    +0.000 C 
ATOM     31  F   UNL     1       4.237   5.980  16.697  0.00  0.00    +0.000 F 
ATOM     32  F   UNL     1       5.073   4.443  18.003  0.00  0.00    +0.000 F 
ATOM     33  F   UNL     1       3.316   4.040  16.803  0.00  0.00    +0.000 F 
ENDBRANCH  29  30
BRANCH  24  35
ATOM     34  C   UNL     1       1.618   2.223  19.025  0.00  0.00    +0.000 C 
ATOM     35  C   UNL     1       2.689   3.056  19.689  0.00  0.00    +0.000 C 
ATOM     36  O   UNL     1       3.714   2.556  20.138  0.00  0.00    +0.000 OA
ENDBRANCH  24  35
ENDBRANCH   1  27
TORSDOF 6
ENDMDL
MODEL 7
REMARK VINA RESULT:      -8.2      2.775      5.083
REMARK  Name = 
REMARK  8 active torsions:
REMARK  status: ('A' for Active; 'I' for Inactive)
REMARK    1  A    between atoms: C_1  and  C_2
REMARK    2  A    between atoms: C_2  and  C_4
REMARK    3  A    between atoms: C_7  and  N_8
REMARK    4  A    between atoms: N_11  and  C_12
REMARK    5  A    between atoms: C_15  and  C_16
REMARK    6  A    between atoms: C_16  and  C_17
REMARK    7  A    between atoms: C_29  and  C_30
REMARK    8  A    between atoms: C_32  and  C_33
REMARK                            x       y       z     vdW  Elec       q    Type
REMARK                         _______ _______ _______ _____ _____    ______ ____
ROOT
ATOM      1  N   UNL     1       1.319   8.548  19.569  0.00  0.00    +0.000 N 
ATOM      2  C   UNL     1       0.687   9.608  18.777  0.00  0.00    +0.000 C 
ATOM      3  C   UNL     1       0.839  11.002  19.410  0.00  0.00    +0.000 C 
ATOM      4  N   UNL     1       0.487  10.998  20.832  0.00  0.00    +0.000 N 
ATOM      5  C   UNL     1       1.201   9.985  21.626  0.00  0.00    +0.000 C 
ATOM      6  C   UNL     1       1.083   8.554  21.028  0.00  0.00    +0.000 C 
ATOM      7  C   UNL     1      -0.276   7.926  21.334  0.00  0.00    +0.000 C 
ENDROOT
BRANCH   4   8
ATOM      8  C   UNL     1      -0.527  11.728  21.409  0.00  0.00    +0.000 A 
ATOM      9  N   UNL     1      -1.195  11.212  22.469  0.00  0.00    +0.000 NA
ATOM     10  N   UNL     1      -2.241  11.894  23.128  0.00  0.00    +0.000 NA
ATOM     11  C   UNL     1      -2.621  13.121  22.730  0.00  0.00    +0.000 A 
ATOM     12  C   UNL     1      -1.956  13.691  21.668  0.00  0.00    +0.000 A 
ATOM     13  C   UNL     1      -0.917  12.995  21.011  0.00  0.00    +0.000 A 
ATOM     14  C   UNL     1      -0.368  13.863  19.915  0.00  0.00    +0.000 C 
ATOM     15  C   UNL     1      -0.886  15.251  20.287  0.00  0.00    +0.000 C 
ATOM     16  C   UNL     1      -2.199  15.027  21.035  0.00  0.00    +0.000 C 
BRANCH  11  17
ATOM     17  C   UNL     1      -3.750  13.797  23.462  0.00  0.00    +0.000 C 
BRANCH  17  18
ATOM     18  C   UNL     1      -5.121  13.258  23.114  0.00  0.00    +0.000 A 
ATOM     19  C   UNL     1      -5.465  13.022  21.775  0.00  0.00    +0.000 A 
ATOM     20  C   UNL     1      -6.734  12.550  21.439  0.00  0.00    +0.000 A 
ATOM     21  C   UNL     1      -7.672  12.300  22.438  0.00  0.00    +0.000 A 
ATOM     22  C   UNL     1      -7.337  12.509  23.775  0.00  0.00    +0.000 A 
ATOM     23  C   UNL     1      -6.065  12.984  24.113  0.00  0.00    +0.000 A 
ENDBRANCH  17  18
ENDBRANCH  11  17
ENDBRANCH   4   8
BRANCH   1  27
ATOM     24  C   UNL     1       4.286   6.202  17.814  0.00  0.00    +0.000 A 
ATOM     25  C   UNL     1       3.929   7.468  17.366  0.00  0.00    +0.000 A 
ATOM     26  N   UNL     1       2.951   8.233  17.911  0.00  0.00    +0.000 NA
ATOM     27  C   UNL     1       2.295   7.771  18.991  0.00  0.00    +0.000 A 
ATOM     28  C   UNL     1       2.582   6.503  19.480  0.00  0.00    +0.000 A 
ATOM     29  C   UNL     1       3.567   5.682  18.890  0.00  0.00    +0.000 A 
BRANCH  29  30
ATOM     30  C   UNL     1       3.711   4.302  19.475  0.00  0.00    +0.000 C 
ATOM     31  F   UNL     1       4.964   3.873  19.752  0.00  0.00    +0.000 F 
ATOM     32  F   UNL     1       2.977   4.151  20.614  0.00  0.00    +0.000 F 
ATOM     33  F   UNL     1       3.214   3.363  18.610  0.00  0.00    +0.000 F 
ENDBRANCH  29  30
BRANCH  24  35
ATOM     34  C   UNL     1       5.240   4.693  15.958  0.00  0.00    +0.000 C 
ATOM     35  C   UNL     1       5.453   5.533  17.195  0.00  0.00    +0.000 C 
ATOM     36  O   UNL     1       6.570   5.736  17.655  0.00  0.00    +0.000 OA
ENDBRANCH  24  35
ENDBRANCH   1  27
TORSDOF 6
ENDMDL
MODEL 8
REMARK VINA RESULT:      -8.2      5.354     10.328
REMARK  Name = 
REMARK  8 active torsions:
REMARK  status: ('A' for Active; 'I' for Inactive)
REMARK    1  A    between atoms: C_1  and  C_2
REMARK    2  A    between atoms: C_2  and  C_4
REMARK    3  A    between atoms: C_7  and  N_8
REMARK    4  A    between atoms: N_11  and  C_12
REMARK    5  A    between atoms: C_15  and  C_16
REMARK    6  A    between atoms: C_16  and  C_17
REMARK    7  A    between atoms: C_29  and  C_30
REMARK    8  A    between atoms: C_32  and  C_33
REMARK                            x       y       z     vdW  Elec       q    Type
REMARK                         _______ _______ _______ _____ _____    ______ ____
ROOT
ATOM      1  N   UNL     1      -0.659  12.372  20.266  0.00  0.00    +0.000 N 
ATOM      2  C   UNL     1      -1.150  11.517  19.181  0.00  0.00    +0.000 C 
ATOM      3  C   UNL     1      -0.937  10.018  19.453  0.00  0.00    +0.000 C 
ATOM      4  N   UNL     1       0.431   9.732  19.896  0.00  0.00    +0.000 N 
ATOM      5  C   UNL     1       0.872  10.538  21.045  0.00  0.00    +0.000 C 
ATOM      6  C   UNL     1       0.676  12.066  20.824  0.00  0.00    +0.000 C 
ATOM      7  C   UNL     1       1.760  12.648  19.920  0.00  0.00    +0.000 C 
ENDROOT
BRANCH   4   8
ATOM      8  C   UNL     1       1.332   8.922  19.243  0.00  0.00    +0.000 A 
ATOM      9  N   UNL     1       1.999   9.405  18.167  0.00  0.00    +0.000 NA
ATOM     10  N   UNL     1       2.947   8.649  17.444  0.00  0.00    +0.000 NA
ATOM     11  C   UNL     1       3.244   7.389  17.807  0.00  0.00    +0.000 A 
ATOM     12  C   UNL     1       2.603   6.864  18.907  0.00  0.00    +0.000 A 
ATOM     13  C   UNL     1       1.650   7.628  19.618  0.00  0.00    +0.000 A 
ATOM     14  C   UNL     1       1.136   6.813  20.770  0.00  0.00    +0.000 C 
ATOM     15  C   UNL     1       2.181   5.707  20.899  0.00  0.00    +0.000 C 
ATOM     16  C   UNL     1       2.750   5.495  19.497  0.00  0.00    +0.000 C 
BRANCH  11  17
ATOM     17  C   UNL     1       4.254   6.625  16.992  0.00  0.00    +0.000 C 
BRANCH  17  18
ATOM     18  C   UNL     1       5.641   6.597  17.596  0.00  0.00    +0.000 A 
ATOM     19  C   UNL     1       6.560   7.613  17.292  0.00  0.00    +0.000 A 
ATOM     20  C   UNL     1       7.851   7.586  17.821  0.00  0.00    +0.000 A 
ATOM     21  C   UNL     1       8.236   6.548  18.667  0.00  0.00    +0.000 A 
ATOM     22  C   UNL     1       7.327   5.545  18.996  0.00  0.00    +0.000 A 
ATOM     23  C   UNL     1       6.033   5.569  18.464  0.00  0.00    +0.000 A 
ENDBRANCH  17  18
ENDBRANCH  11  17
ENDBRANCH   4   8
BRANCH   1  27
ATOM     24  C   UNL     1      -3.309  14.977  22.156  0.00  0.00    +0.000 A 
ATOM     25  C   UNL     1      -2.482  15.339  21.100  0.00  0.00    +0.000 A 
ATOM     26  N   UNL     1      -1.598  14.511  20.491  0.00  0.00    +0.000 NA
ATOM     27  C   UNL     1      -1.532  13.228  20.892  0.00  0.00    +0.000 A 
ATOM     28  C   UNL     1      -2.313  12.800  21.959  0.00  0.00    +0.000 A 
ATOM     29  C   UNL     1      -3.202  13.669  22.628  0.00  0.00    +0.000 A 
BRANCH  29  30
ATOM     30  C   UNL     1      -3.921  13.087  23.816  0.00  0.00    +0.000 C 
ATOM     31  F   UNL     1      -3.810  13.747  24.992  0.00  0.00    +0.000 F 
ATOM     32  F   UNL     1      -5.252  12.919  23.577  0.00  0.00    +0.000 F 
ATOM     33  F   UNL     1      -3.452  11.830  24.089  0.00  0.00    +0.000 F 
ENDBRANCH  29  30
BRANCH  24  35
ATOM     34  C   UNL     1      -5.711  15.905  22.086  0.00  0.00    +0.000 C 
ATOM     35  C   UNL     1      -4.308  15.955  22.644  0.00  0.00    +0.000 C 
ATOM     36  O   UNL     1      -3.994  16.732  23.539  0.00  0.00    +0.000 OA
ENDBRANCH  24  35
ENDBRANCH   1  27
TORSDOF 6
ENDMDL
MODEL 9
REMARK VINA RESULT:      -8.2      5.342     10.352
REMARK  Name = 
REMARK  8 active torsions:
REMARK  status: ('A' for Active; 'I' for Inactive)
REMARK    1  A    between atoms: C_1  and  C_2
REMARK    2  A    between atoms: C_2  and  C_4
REMARK    3  A    between atoms: C_7  and  N_8
REMARK    4  A    between atoms: N_11  and  C_12
REMARK    5  A    between atoms: C_15  and  C_16
REMARK    6  A    between atoms: C_16  and  C_17
REMARK    7  A    between atoms: C_29  and  C_30
REMARK    8  A    between atoms: C_32  and  C_33
REMARK                            x       y       z     vdW  Elec       q    Type
REMARK                         _______ _______ _______ _____ _____    ______ ____
ROOT
ATOM      1  N   UNL     1      -0.648  12.399  20.257  0.00  0.00    +0.000 N 
ATOM      2  C   UNL     1      -1.166  11.513  19.211  0.00  0.00    +0.000 C 
ATOM      3  C   UNL     1      -0.935  10.023  19.517  0.00  0.00    +0.000 C 
ATOM      4  N   UNL     1       0.446   9.757  19.927  0.00  0.00    +0.000 N 
ATOM      5  C   UNL     1       0.916  10.596  21.040  0.00  0.00    +0.000 C 
ATOM      6  C   UNL     1       0.704  12.116  20.783  0.00  0.00    +0.000 C 
ATOM      7  C   UNL     1       1.757  12.679  19.831  0.00  0.00    +0.000 C 
ENDROOT
BRANCH   4   8
ATOM      8  C   UNL     1       1.333   8.934  19.270  0.00  0.00    +0.000 A 
ATOM      9  N   UNL     1       2.006   9.409  18.194  0.00  0.00    +0.000 NA
ATOM     10  N   UNL     1       2.940   8.640  17.467  0.00  0.00    +0.000 NA
ATOM     11  C   UNL     1       3.217   7.374  17.826  0.00  0.00    +0.000 A 
ATOM     12  C   UNL     1       2.569   6.856  18.925  0.00  0.00    +0.000 A 
ATOM     13  C   UNL     1       1.630   7.633  19.640  0.00  0.00    +0.000 A 
ATOM     14  C   UNL     1       1.104   6.823  20.790  0.00  0.00    +0.000 C 
ATOM     15  C   UNL     1       2.131   5.700  20.914  0.00  0.00    +0.000 C 
ATOM     16  C   UNL     1       2.694   5.483  19.510  0.00  0.00    +0.000 C 
BRANCH  11  17
ATOM     17  C   UNL     1       4.213   6.596  17.007  0.00  0.00    +0.000 C 
BRANCH  17  18
ATOM     18  C   UNL     1       5.610   6.575  17.589  0.00  0.00    +0.000 A 
ATOM     19  C   UNL     1       5.995   5.540  18.454  0.00  0.00    +0.000 A 
ATOM     20  C   UNL     1       7.271   5.523  19.018  0.00  0.00    +0.000 A 
ATOM     21  C   UNL     1       8.180   6.536  18.718  0.00  0.00    +0.000 A 
ATOM     22  C   UNL     1       7.818   7.558  17.843  0.00  0.00    +0.000 A 
ATOM     23  C   UNL     1       6.538   7.578  17.278  0.00  0.00    +0.000 A 
ENDBRANCH  17  18
ENDBRANCH  11  17
ENDBRANCH   4   8
BRANCH   1  27
ATOM     24  C   UNL     1      -3.258  15.041  22.153  0.00  0.00    +0.000 A 
ATOM     25  C   UNL     1      -2.430  15.392  21.093  0.00  0.00    +0.000 A 
ATOM     26  N   UNL     1      -1.558  14.551  20.482  0.00  0.00    +0.000 NA
ATOM     27  C   UNL     1      -1.508  13.268  20.885  0.00  0.00    +0.000 A 
ATOM     28  C   UNL     1      -2.291  12.851  21.955  0.00  0.00    +0.000 A 
ATOM     29  C   UNL     1      -3.166  13.732  22.626  0.00  0.00    +0.000 A 
BRANCH  29  30
ATOM     30  C   UNL     1      -3.888  13.162  23.817  0.00  0.00    +0.000 C 
ATOM     31  F   UNL     1      -5.240  13.153  23.778  0.00  0.00    +0.000 F 
ATOM     32  F   UNL     1      -3.489  11.889  24.095  0.00  0.00    +0.000 F 
ATOM     33  F   UNL     1      -3.587  13.878  24.946  0.00  0.00    +0.000 F 
ENDBRANCH  29  30
BRANCH  24  35
ATOM     34  C   UNL     1      -3.769  17.139  23.556  0.00  0.00    +0.000 C 
ATOM     35  C   UNL     1      -4.242  16.033  22.643  0.00  0.00    +0.000 C 
ATOM     36  O   UNL     1      -5.397  15.977  22.238  0.00  0.00    +0.000 OA
ENDBRANCH  24  35
ENDBRANCH   1  27
TORSDOF 6
ENDMDL
