MODEL 1
REMARK VINA RESULT:      -6.9      0.000      0.000
REMARK  Name = 
REMARK  5 active torsions:
REMARK  status: ('A' for Active; 'I' for Inactive)
REMARK    1  A    between atoms: C_1  and  C_2
REMARK    2  A    between atoms: C_6  and  C_7
REMARK    3  A    between atoms: N_13  and  N_14
REMARK    4  A    between atoms: N_14  and  C_15
REMARK    5  A    between atoms: C_15  and  N_16
REMARK                            x       y       z     vdW  Elec       q    Type
REMARK                         _______ _______ _______ _____ _____    ______ ____
ROOT
ATOM      1  C   UNL     1       2.163   8.954  18.240  0.00  0.00    +0.000 C 
ATOM      2  C   UNL     1       2.590   7.528  18.477  0.00  0.00    +0.000 A 
ATOM      3  C   UNL     1       3.379   6.883  17.512  0.00  0.00    +0.000 A 
ATOM      4  C   UNL     1       3.732   5.565  17.731  0.00  0.00    +0.000 A 
ATOM      5  C   UNL     1       3.337   4.856  18.868  0.00  0.00    +0.000 A 
ATOM      6  C   UNL     1       2.590   5.482  19.868  0.00  0.00    +0.000 A 
ATOM      7  C   UNL     1       2.208   4.752  21.127  0.00  0.00    +0.000 C 
ATOM      8  C   UNL     1       2.209   6.827  19.652  0.00  0.00    +0.000 A 
ATOM      9 CL   UNL     1       1.255   7.645  20.855  0.00  0.00    +0.000 Cl
ATOM     10  C   UNL     1       3.881   3.458  18.852  0.00  0.00    +0.000 C 
ATOM     11  C   UNL     1       4.349   3.261  17.405  0.00  0.00    +0.000 C 
ATOM     12  C   UNL     1       4.507   4.665  16.877  0.00  0.00    +0.000 C 
ATOM     13  N   UNL     1       5.183   5.062  15.841  0.00  0.00    +0.000 NA
ENDROOT
BRANCH  13  14
ATOM     14  N   UNL     1       5.861   4.097  15.146  0.00  0.00    +0.000 N 
ATOM     15  H   UNL     1       5.844   3.130  15.445  0.00  0.00    +0.000 HD
BRANCH  14  16
ATOM     16  C   UNL     1       6.609   4.381  14.038  0.00  0.00    +0.000 C 
ATOM     17  S   UNL     1       6.335   3.630  12.583  0.00  0.00    +0.000 S 
BRANCH  16  18
ATOM     18  N   UNL     1       7.580   5.307  14.190  0.00  0.00    +0.000 N 
ATOM     19  H   UNL     1       7.297   6.279  14.183  0.00  0.00    +0.000 HD
ATOM     20  H   UNL     1       8.530   5.043  14.406  0.00  0.00    +0.000 HD
ENDBRANCH  16  18
ENDBRANCH  14  16
ENDBRANCH  13  14
TORSDOF 3
ENDMDL
MODEL 2
REMARK VINA RESULT:      -6.9      1.040      1.040
REMARK  Name = 
REMARK  5 active torsions:
REMARK  status: ('A' for Active; 'I' for Inactive)
REMARK    1  A    between atoms: C_1  and  C_2
REMARK    2  A    between atoms: C_6  and  C_7
REMARK    3  A    between atoms: N_13  and  N_14
REMARK    4  A    between atoms: N_14  and  C_15
REMARK    5  A    between atoms: C_15  and  N_16
REMARK                            x       y       z     vdW  Elec       q    Type
REMARK                         _______ _______ _______ _____ _____    ______ ____
ROOT
ATOM      1  C   UNL     1       2.021   9.072  18.035  0.00  0.00    +0.000 C 
ATOM      2  C   UNL     1       2.740   7.777  18.315  0.00  0.00    +0.000 A 
ATOM      3  C   UNL     1       3.807   7.397  17.486  0.00  0.00    +0.000 A 
ATOM      4  C   UNL     1       4.433   6.191  17.738  0.00  0.00    +0.000 A 
ATOM      5  C   UNL     1       4.046   5.342  18.778  0.00  0.00    +0.000 A 
ATOM      6  C   UNL     1       3.017   5.711  19.646  0.00  0.00    +0.000 A 
ATOM      7  C   UNL     1       2.629   4.838  20.808  0.00  0.00    +0.000 C 
ATOM      8  C   UNL     1       2.359   6.937  19.394  0.00  0.00    +0.000 A 
ATOM      9 CL   UNL     1       1.052   7.430  20.432  0.00  0.00    +0.000 Cl
ATOM     10  C   UNL     1       4.911   4.118  18.829  0.00  0.00    +0.000 C 
ATOM     11  C   UNL     1       5.640   4.125  17.480  0.00  0.00    +0.000 C 
ATOM     12  C   UNL     1       5.532   5.555  17.012  0.00  0.00    +0.000 C 
ATOM     13  N   UNL     1       6.247   6.162  16.114  0.00  0.00    +0.000 NA
ENDROOT
BRANCH  13  14
ATOM     14  N   UNL     1       7.244   5.430  15.527  0.00  0.00    +0.000 N 
ATOM     15  H   UNL     1       8.068   5.160  16.049  0.00  0.00    +0.000 HD
BRANCH  14  16
ATOM     16  C   UNL     1       7.198   5.048  14.216  0.00  0.00    +0.000 C 
ATOM     17  S   UNL     1       6.109   3.917  13.674  0.00  0.00    +0.000 S 
BRANCH  16  18
ATOM     18  N   UNL     1       8.081   5.641  13.386  0.00  0.00    +0.000 N 
ATOM     19  H   UNL     1       9.065   5.492  13.575  0.00  0.00    +0.000 HD
ATOM     20  H   UNL     1       7.780   6.124  12.553  0.00  0.00    +0.000 HD
ENDBRANCH  16  18
ENDBRANCH  14  16
ENDBRANCH  13  14
TORSDOF 3
ENDMDL
MODEL 3
REMARK VINA RESULT:      -6.8      1.387      2.923
REMARK  Name = 
REMARK  5 active torsions:
REMARK  status: ('A' for Active; 'I' for Inactive)
REMARK    1  A    between atoms: C_1  and  C_2
REMARK    2  A    between atoms: C_6  and  C_7
REMARK    3  A    between atoms: N_13  and  N_14
REMARK    4  A    between atoms: N_14  and  C_15
REMARK    5  A    between atoms: C_15  and  N_16
REMARK                            x       y       z     vdW  Elec       q    Type
REMARK                         _______ _______ _______ _____ _____    ______ ____
ROOT
ATOM      1  C   UNL     1       2.309   1.960  18.882  0.00  0.00    +0.000 C 
ATOM      2  C   UNL     1       2.857   3.326  18.558  0.00  0.00    +0.000 A 
ATOM      3  C   UNL     1       3.930   3.434  17.659  0.00  0.00    +0.000 A 
ATOM      4  C   UNL     1       4.441   4.692  17.399  0.00  0.00    +0.000 A 
ATOM      5  C   UNL     1       3.934   5.850  17.993  0.00  0.00    +0.000 A 
ATOM      6  C   UNL     1       2.839   5.781  18.858  0.00  0.00    +0.000 A 
ATOM      7  C   UNL     1       2.242   7.025  19.458  0.00  0.00    +0.000 C 
ATOM      8  C   UNL     1       2.313   4.500  19.143  0.00  0.00    +0.000 A 
ATOM      9 CL   UNL     1       0.966   4.357  20.235  0.00  0.00    +0.000 Cl
ATOM     10  C   UNL     1       4.663   7.070  17.514  0.00  0.00    +0.000 C 
ATOM     11  C   UNL     1       5.919   6.507  16.838  0.00  0.00    +0.000 C 
ATOM     12  C   UNL     1       5.563   5.071  16.542  0.00  0.00    +0.000 C 
ATOM     13  N   UNL     1       6.129   4.261  15.700  0.00  0.00    +0.000 NA
ENDROOT
BRANCH  13  14
ATOM     14  N   UNL     1       7.167   4.768  14.965  0.00  0.00    +0.000 N 
ATOM     15  H   UNL     1       7.956   5.214  15.416  0.00  0.00    +0.000 HD
BRANCH  14  16
ATOM     16  C   UNL     1       7.188   4.725  13.599  0.00  0.00    +0.000 C 
ATOM     17  S   UNL     1       6.190   3.711  12.743  0.00  0.00    +0.000 S 
BRANCH  16  18
ATOM     18  N   UNL     1       8.061   5.551  12.985  0.00  0.00    +0.000 N 
ATOM     19  H   UNL     1       8.366   6.367  13.501  0.00  0.00    +0.000 HD
ATOM     20  H   UNL     1       8.473   5.315  12.095  0.00  0.00    +0.000 HD
ENDBRANCH  16  18
ENDBRANCH  14  16
ENDBRANCH  13  14
TORSDOF 3
ENDMDL
MODEL 4
REMARK VINA RESULT:      -6.7      5.264      6.978
REMARK  Name = 
REMARK  5 active torsions:
REMARK  status: ('A' for Active; 'I' for Inactive)
REMARK    1  A    between atoms: C_1  and  C_2
REMARK    2  A    between atoms: C_6  and  C_7
REMARK    3  A    between atoms: N_13  and  N_14
REMARK    4  A    between atoms: N_14  and  C_15
REMARK    5  A    between atoms: C_15  and  N_16
REMARK                            x       y       z     vdW  Elec       q    Type
REMARK                         _______ _______ _______ _____ _____    ______ ____
ROOT
ATOM      1  C   UNL     1       1.704   2.524  21.184  0.00  0.00    +0.000 C 
ATOM      2  C   UNL     1       2.136   3.669  20.305  0.00  0.00    +0.000 A 
ATOM      3  C   UNL     1       1.787   4.979  20.672  0.00  0.00    +0.000 A 
ATOM      4  C   UNL     1       2.161   6.014  19.836  0.00  0.00    +0.000 A 
ATOM      5  C   UNL     1       2.869   5.807  18.649  0.00  0.00    +0.000 A 
ATOM      6  C   UNL     1       3.269   4.522  18.278  0.00  0.00    +0.000 A 
ATOM      7  C   UNL     1       4.084   4.289  17.035  0.00  0.00    +0.000 C 
ATOM      8  C   UNL     1       2.882   3.451  19.116  0.00  0.00    +0.000 A 
ATOM      9 CL   UNL     1       3.333   1.827  18.685  0.00  0.00    +0.000 Cl
ATOM     10  C   UNL     1       3.158   7.107  17.957  0.00  0.00    +0.000 C 
ATOM     11  C   UNL     1       2.234   8.111  18.656  0.00  0.00    +0.000 C 
ATOM     12  C   UNL     1       1.896   7.446  19.968  0.00  0.00    +0.000 C 
ATOM     13  N   UNL     1       1.430   7.994  21.049  0.00  0.00    +0.000 NA
ENDROOT
BRANCH  13  14
ATOM     14  N   UNL     1       1.239   9.349  21.015  0.00  0.00    +0.000 N 
ATOM     15  H   UNL     1       1.987   9.974  20.744  0.00  0.00    +0.000 HD
BRANCH  14  16
ATOM     16  C   UNL     1       0.053   9.931  21.364  0.00  0.00    +0.000 C 
ATOM     17  S   UNL     1      -0.493   9.930  22.932  0.00  0.00    +0.000 S 
BRANCH  16  18
ATOM     18  N   UNL     1      -0.649  10.508  20.365  0.00  0.00    +0.000 N 
ATOM     19  H   UNL     1      -1.210   9.899  19.783  0.00  0.00    +0.000 HD
ATOM     20  H   UNL     1      -0.698  11.511  20.267  0.00  0.00    +0.000 HD
ENDBRANCH  16  18
ENDBRANCH  14  16
ENDBRANCH  13  14
TORSDOF 3
ENDMDL
MODEL 5
REMARK VINA RESULT:      -6.6      1.594      2.978
REMARK  Name = 
REMARK  5 active torsions:
REMARK  status: ('A' for Active; 'I' for Inactive)
REMARK    1  A    between atoms: C_1  and  C_2
REMARK    2  A    between atoms: C_6  and  C_7
REMARK    3  A    between atoms: N_13  and  N_14
REMARK    4  A    between atoms: N_14  and  C_15
REMARK    5  A    between atoms: C_15  and  N_16
REMARK                            x       y       z     vdW  Elec       q    Type
REMARK                         _______ _______ _______ _____ _____    ______ ____
ROOT
ATOM      1  C   UNL     1       1.618   1.934  18.711  0.00  0.00    +0.000 C 
ATOM      2  C   UNL     1       2.351   3.221  18.432  0.00  0.00    +0.000 A 
ATOM      3  C   UNL     1       3.380   3.225  17.476  0.00  0.00    +0.000 A 
ATOM      4  C   UNL     1       4.064   4.406  17.258  0.00  0.00    +0.000 A 
ATOM      5  C   UNL     1       3.773   5.586  17.946  0.00  0.00    +0.000 A 
ATOM      6  C   UNL     1       2.727   5.626  18.871  0.00  0.00    +0.000 A 
ATOM      7  C   UNL     1       2.360   6.903  19.576  0.00  0.00    +0.000 C 
ATOM      8  C   UNL     1       2.026   4.422  19.115  0.00  0.00    +0.000 A 
ATOM      9 CL   UNL     1       0.732   4.412  20.278  0.00  0.00    +0.000 Cl
ATOM     10  C   UNL     1       4.655   6.711  17.493  0.00  0.00    +0.000 C 
ATOM     11  C   UNL     1       5.773   6.011  16.711  0.00  0.00    +0.000 C 
ATOM     12  C   UNL     1       5.185   4.667  16.356  0.00  0.00    +0.000 C 
ATOM     13  N   UNL     1       5.576   3.838  15.436  0.00  0.00    +0.000 NA
ENDROOT
BRANCH  13  14
ATOM     14  N   UNL     1       6.639   4.230  14.668  0.00  0.00    +0.000 N 
ATOM     15  H   UNL     1       7.451   4.665  15.087  0.00  0.00    +0.000 HD
BRANCH  14  16
ATOM     16  C   UNL     1       6.657   4.083  13.310  0.00  0.00    +0.000 C 
ATOM     17  S   UNL     1       7.547   5.089  12.334  0.00  0.00    +0.000 S 
BRANCH  16  18
ATOM     18  N   UNL     1       5.915   3.074  12.806  0.00  0.00    +0.000 N 
ATOM     19  H   UNL     1       5.085   3.327  12.284  0.00  0.00    +0.000 HD
ATOM     20  H   UNL     1       6.227   2.116  12.854  0.00  0.00    +0.000 HD
ENDBRANCH  16  18
ENDBRANCH  14  16
ENDBRANCH  13  14
TORSDOF 3
ENDMDL
MODEL 6
REMARK VINA RESULT:      -6.5      4.639      6.116
REMARK  Name = 
REMARK  5 active torsions:
REMARK  status: ('A' for Active; 'I' for Inactive)
REMARK    1  A    between atoms: C_1  and  C_2
REMARK    2  A    between atoms: C_6  and  C_7
REMARK    3  A    between atoms: N_13  and  N_14
REMARK    4  A    between atoms: N_14  and  C_15
REMARK    5  A    between atoms: C_15  and  N_16
REMARK                            x       y       z     vdW  Elec       q    Type
REMARK                         _______ _______ _______ _____ _____    ______ ____
ROOT
ATOM      1  C   UNL     1       4.827   5.138  16.844  0.00  0.00    +0.000 C 
ATOM      2  C   UNL     1       3.881   5.638  17.906  0.00  0.00    +0.000 A 
ATOM      3  C   UNL     1       3.341   6.927  17.785  0.00  0.00    +0.000 A 
ATOM      4  C   UNL     1       2.503   7.381  18.786  0.00  0.00    +0.000 A 
ATOM      5  C   UNL     1       2.176   6.610  19.904  0.00  0.00    +0.000 A 
ATOM      6  C   UNL     1       2.662   5.308  20.032  0.00  0.00    +0.000 A 
ATOM      7  C   UNL     1       2.271   4.442  21.199  0.00  0.00    +0.000 C 
ATOM      8  C   UNL     1       3.531   4.834  19.023  0.00  0.00    +0.000 A 
ATOM      9 CL   UNL     1       4.186   3.226  19.149  0.00  0.00    +0.000 Cl
ATOM     10  C   UNL     1       1.234   7.344  20.812  0.00  0.00    +0.000 C 
ATOM     11  C   UNL     1       1.302   8.795  20.321  0.00  0.00    +0.000 C 
ATOM     12  C   UNL     1       1.845   8.680  18.917  0.00  0.00    +0.000 C 
ATOM     13  N   UNL     1       1.785   9.556  17.960  0.00  0.00    +0.000 NA
ENDROOT
BRANCH  13  14
ATOM     14  N   UNL     1       1.129  10.725  18.239  0.00  0.00    +0.000 N 
ATOM     15  H   UNL     1       0.117  10.768  18.236  0.00  0.00    +0.000 HD
BRANCH  14  16
ATOM     16  C   UNL     1       1.790  11.890  18.509  0.00  0.00    +0.000 C 
ATOM     17  S   UNL     1       1.569  12.708  19.937  0.00  0.00    +0.000 S 
BRANCH  16  18
ATOM     18  N   UNL     1       2.632  12.337  17.555  0.00  0.00    +0.000 N 
ATOM     19  H   UNL     1       2.992  13.278  17.660  0.00  0.00    +0.000 HD
ATOM     20  H   UNL     1       2.973  11.729  16.825  0.00  0.00    +0.000 HD
ENDBRANCH  16  18
ENDBRANCH  14  16
ENDBRANCH  13  14
TORSDOF 3
ENDMDL
MODEL 7
REMARK VINA RESULT:      -6.5      5.025      6.390
REMARK  Name = 
REMARK  5 active torsions:
REMARK  status: ('A' for Active; 'I' for Inactive)
REMARK    1  A    between atoms: C_1  and  C_2
REMARK    2  A    between atoms: C_6  and  C_7
REMARK    3  A    between atoms: N_13  and  N_14
REMARK    4  A    between atoms: N_14  and  C_15
REMARK    5  A    between atoms: C_15  and  N_16
REMARK                            x       y       z     vdW  Elec       q    Type
REMARK                         _______ _______ _______ _____ _____    ______ ____
ROOT
ATOM      1  C   UNL     1       5.398   6.641  16.009  0.00  0.00    +0.000 C 
ATOM      2  C   UNL     1       4.524   5.883  16.975  0.00  0.00    +0.000 A 
ATOM      3  C   UNL     1       3.792   6.598  17.936  0.00  0.00    +0.000 A 
ATOM      4  C   UNL     1       3.022   5.885  18.835  0.00  0.00    +0.000 A 
ATOM      5  C   UNL     1       2.946   4.490  18.823  0.00  0.00    +0.000 A 
ATOM      6  C   UNL     1       3.627   3.752  17.853  0.00  0.00    +0.000 A 
ATOM      7  C   UNL     1       3.507   2.254  17.788  0.00  0.00    +0.000 C 
ATOM      8  C   UNL     1       4.429   4.467  16.934  0.00  0.00    +0.000 A 
ATOM      9 CL   UNL     1       5.319   3.593  15.721  0.00  0.00    +0.000 Cl
ATOM     10  C   UNL     1       2.023   3.988  19.894  0.00  0.00    +0.000 C 
ATOM     11  C   UNL     1       1.822   5.203  20.807  0.00  0.00    +0.000 C 
ATOM     12  C   UNL     1       2.204   6.379  19.942  0.00  0.00    +0.000 C 
ATOM     13  N   UNL     1       1.904   7.631  20.111  0.00  0.00    +0.000 NA
ENDROOT
BRANCH  13  14
ATOM     14  N   UNL     1       1.124   7.934  21.195  0.00  0.00    +0.000 N 
ATOM     15  H   UNL     1       1.001   7.270  21.949  0.00  0.00    +0.000 HD
BRANCH  14  16
ATOM     16  C   UNL     1       0.458   9.121  21.310  0.00  0.00    +0.000 C 
ATOM     17  S   UNL     1      -0.161   9.638  22.761  0.00  0.00    +0.000 S 
BRANCH  16  18
ATOM     18  N   UNL     1       0.331   9.850  20.181  0.00  0.00    +0.000 N 
ATOM     19  H   UNL     1      -0.159  10.733  20.254  0.00  0.00    +0.000 HD
ATOM     20  H   UNL     1       0.794   9.581  19.325  0.00  0.00    +0.000 HD
ENDBRANCH  16  18
ENDBRANCH  14  16
ENDBRANCH  13  14
TORSDOF 3
ENDMDL
MODEL 8
REMARK VINA RESULT:      -6.4      4.851      6.670
REMARK  Name = 
REMARK  5 active torsions:
REMARK  status: ('A' for Active; 'I' for Inactive)
REMARK    1  A    between atoms: C_1  and  C_2
REMARK    2  A    between atoms: C_6  and  C_7
REMARK    3  A    between atoms: N_13  and  N_14
REMARK    4  A    between atoms: N_14  and  C_15
REMARK    5  A    between atoms: C_15  and  N_16
REMARK                            x       y       z     vdW  Elec       q    Type
REMARK                         _______ _______ _______ _____ _____    ______ ____
ROOT
ATOM      1  C   UNL     1       1.561   2.506  20.727  0.00  0.00    +0.000 C 
ATOM      2  C   UNL     1       2.118   3.639  19.904  0.00  0.00    +0.000 A 
ATOM      3  C   UNL     1       1.782   4.958  20.245  0.00  0.00    +0.000 A 
ATOM      4  C   UNL     1       2.274   5.982  19.459  0.00  0.00    +0.000 A 
ATOM      5  C   UNL     1       3.089   5.755  18.347  0.00  0.00    +0.000 A 
ATOM      6  C   UNL     1       3.477   4.458  18.007  0.00  0.00    +0.000 A 
ATOM      7  C   UNL     1       4.403   4.200  16.850  0.00  0.00    +0.000 C 
ATOM      8  C   UNL     1       2.970   3.398  18.795  0.00  0.00    +0.000 A 
ATOM      9 CL   UNL     1       3.403   1.760  18.397  0.00  0.00    +0.000 Cl
ATOM     10  C   UNL     1       3.492   7.046  17.697  0.00  0.00    +0.000 C 
ATOM     11  C   UNL     1       2.539   8.080  18.308  0.00  0.00    +0.000 C 
ATOM     12  C   UNL     1       2.048   7.422  19.575  0.00  0.00    +0.000 C 
ATOM     13  N   UNL     1       1.497   7.983  20.608  0.00  0.00    +0.000 NA
ENDROOT
BRANCH  13  14
ATOM     14  N   UNL     1       1.359   9.344  20.567  0.00  0.00    +0.000 N 
ATOM     15  H   UNL     1       2.170   9.949  20.549  0.00  0.00    +0.000 HD
BRANCH  14  16
ATOM     16  C   UNL     1       0.138   9.957  20.571  0.00  0.00    +0.000 C 
ATOM     17  S   UNL     1      -0.582  10.479  19.169  0.00  0.00    +0.000 S 
BRANCH  16  18
ATOM     18  N   UNL     1      -0.451  10.114  21.775  0.00  0.00    +0.000 N 
ATOM     19  H   UNL     1      -1.375  10.529  21.787  0.00  0.00    +0.000 HD
ATOM     20  H   UNL     1      -0.038   9.741  22.617  0.00  0.00    +0.000 HD
ENDBRANCH  16  18
ENDBRANCH  14  16
ENDBRANCH  13  14
TORSDOF 3
ENDMDL
MODEL 9
REMARK VINA RESULT:      -6.4      3.644      5.355
REMARK  Name = 
REMARK  5 active torsions:
REMARK  status: ('A' for Active; 'I' for Inactive)
REMARK    1  A    between atoms: C_1  and  C_2
REMARK    2  A    between atoms: C_6  and  C_7
REMARK    3  A    between atoms: N_13  and  N_14
REMARK    4  A    between atoms: N_14  and  C_15
REMARK    5  A    between atoms: C_15  and  N_16
REMARK                            x       y       z     vdW  Elec       q    Type
REMARK                         _______ _______ _______ _____ _____    ______ ____
ROOT
ATOM      1  C   UNL     1       0.099   9.347  23.233  0.00  0.00    +0.000 C 
ATOM      2  C   UNL     1       0.518   9.277  21.787  0.00  0.00    +0.000 A 
ATOM      3  C   UNL     1       1.249   8.163  21.343  0.00  0.00    +0.000 A 
ATOM      4  C   UNL     1       1.653   8.132  20.022  0.00  0.00    +0.000 A 
ATOM      5  C   UNL     1       1.365   9.159  19.119  0.00  0.00    +0.000 A 
ATOM      6  C   UNL     1       0.603  10.259  19.519  0.00  0.00    +0.000 A 
ATOM      7  C   UNL     1       0.231  11.343  18.545  0.00  0.00    +0.000 C 
ATOM      8  C   UNL     1       0.192  10.311  20.871  0.00  0.00    +0.000 A 
ATOM      9 CL   UNL     1      -0.737  11.674  21.426  0.00  0.00    +0.000 Cl
ATOM     10  C   UNL     1       1.906   8.850  17.755  0.00  0.00    +0.000 C 
ATOM     11  C   UNL     1       2.880   7.691  17.998  0.00  0.00    +0.000 C 
ATOM     12  C   UNL     1       2.444   7.119  19.325  0.00  0.00    +0.000 C 
ATOM     13  N   UNL     1       2.711   5.949  19.821  0.00  0.00    +0.000 NA
ENDROOT
BRANCH  13  14
ATOM     14  N   UNL     1       3.461   5.110  19.041  0.00  0.00    +0.000 N 
ATOM     15  H   UNL     1       3.691   5.353  18.086  0.00  0.00    +0.000 HD
BRANCH  14  16
ATOM     16  C   UNL     1       3.916   3.903  19.492  0.00  0.00    +0.000 C 
ATOM     17  S   UNL     1       2.973   2.909  20.430  0.00  0.00    +0.000 S 
BRANCH  16  18
ATOM     18  N   UNL     1       5.171   3.561  19.131  0.00  0.00    +0.000 N 
ATOM     19  H   UNL     1       5.613   2.811  19.648  0.00  0.00    +0.000 HD
ATOM     20  H   UNL     1       5.613   3.962  18.317  0.00  0.00    +0.000 HD
ENDBRANCH  16  18
ENDBRANCH  14  16
ENDBRANCH  13  14
TORSDOF 3
ENDMDL
