MODEL 1
REMARK VINA RESULT:      -8.9      0.000      0.000
REMARK  Name = 
REMARK  6 active torsions:
REMARK  status: ('A' for Active; 'I' for Inactive)
REMARK    1  A    between atoms: C_2  and  CA_3
REMARK    2  A    between atoms: C_8  and  O_9
REMARK    3  A    between atoms: O_9  and  C_10
REMARK    4  A    between atoms: C_13  and  C_14
REMARK    5  A    between atoms: CA_29  and  C_30
REMARK    6  A    between atoms: C_30  and  O_31
REMARK                            x       y       z     vdW  Elec       q    Type
REMARK                         _______ _______ _______ _____ _____    ______ ____
ROOT
ATOM      1  CA  UNL     1       2.973   6.738  19.192  0.00  0.00    +0.000 A 
ATOM      2  C   UNL     1       3.180   7.259  17.926  0.00  0.00    +0.000 A 
ATOM      3  C   UNL     1       2.486   8.417  17.572  0.00  0.00    +0.000 A 
ATOM      4  C   UNL     1       1.602   9.013  18.486  0.00  0.00    +0.000 A 
ATOM      5  C   UNL     1       0.842  10.160  18.184  0.00  0.00    +0.000 A 
ATOM      6  C   UNL     1      -0.048  10.682  19.125  0.00  0.00    +0.000 A 
ATOM      7  C   UNL     1      -0.216  10.034  20.349  0.00  0.00    +0.000 A 
ATOM      8  C   UNL     1       0.567   8.927  20.660  0.00  0.00    +0.000 A 
ATOM      9  C   UNL     1       1.473   8.411  19.751  0.00  0.00    +0.000 A 
ATOM     10  N   UNL     1       2.160   7.323  20.100  0.00  0.00    +0.000 NA
ENDROOT
BRANCH   1  12
ATOM     11  O   UNL     1       4.826   5.443  19.867  0.00  0.00    +0.000 OA
ATOM     12  C   UNL     1       3.627   5.440  19.592  0.00  0.00    +0.000 C 
ATOM     13  N   UNL     1       2.876   4.264  19.613  0.00  0.00    +0.000 N 
ATOM     14  C   UNL     1       3.415   3.054  20.211  0.00  0.00    +0.000 C 
ATOM     15  C   UNL     1       2.188   2.330  20.738  0.00  0.00    +0.000 C 
ATOM     16  F   UNL     1       1.821   2.869  21.934  0.00  0.00    +0.000 F 
ATOM     17  C   UNL     1       1.115   2.645  19.712  0.00  0.00    +0.000 C 
ATOM     18  CA  UNL     1       1.462   4.066  19.238  0.00  0.00    +0.000 C 
BRANCH  18  19
ATOM     19  C   UNL     1       1.238   4.217  17.721  0.00  0.00    +0.000 C 
BRANCH  19  20
ATOM     20  O   UNL     1       2.076   3.315  16.994  0.00  0.00    +0.000 OA
ATOM     21  H   UNL     1       2.173   2.527  17.560  0.00  0.00    +0.000 HD
ENDBRANCH  19  20
ENDBRANCH  18  19
ENDBRANCH   1  12
BRANCH   6  22
ATOM     22  O   UNL     1      -0.781  11.787  18.756  0.00  0.00    +0.000 OA
BRANCH  22  23
ATOM     23  C   UNL     1      -2.164  11.658  18.707  0.00  0.00    +0.000 A 
ATOM     24  C   UNL     1      -2.682  10.830  17.724  0.00  0.00    +0.000 A 
ATOM     25  C   UNL     1      -4.068  10.696  17.641  0.00  0.00    +0.000 A 
ATOM     26  C   UNL     1      -4.888  11.389  18.538  0.00  0.00    +0.000 A 
ATOM     27  C   UNL     1      -4.271  12.185  19.490  0.00  0.00    +0.000 A 
ATOM     28  N   UNL     1      -2.935  12.348  19.579  0.00  0.00    +0.000 NA
BRANCH  26  29
ATOM     29  C   UNL     1      -6.383  11.331  18.497  0.00  0.00    +0.000 C 
ATOM     30  F   UNL     1      -6.979  11.945  19.555  0.00  0.00    +0.000 F 
ATOM     31  F   UNL     1      -6.898  11.919  17.383  0.00  0.00    +0.000 F 
ATOM     32  F   UNL     1      -6.850  10.052  18.495  0.00  0.00    +0.000 F 
ENDBRANCH  26  29
ENDBRANCH  22  23
ENDBRANCH   6  22
TORSDOF 6
ENDMDL
MODEL 2
REMARK VINA RESULT:      -8.8      0.495      1.098
REMARK  Name = 
REMARK  6 active torsions:
REMARK  status: ('A' for Active; 'I' for Inactive)
REMARK    1  A    between atoms: C_2  and  CA_3
REMARK    2  A    between atoms: C_8  and  O_9
REMARK    3  A    between atoms: O_9  and  C_10
REMARK    4  A    between atoms: C_13  and  C_14
REMARK    5  A    between atoms: CA_29  and  C_30
REMARK    6  A    between atoms: C_30  and  O_31
REMARK                            x       y       z     vdW  Elec       q    Type
REMARK                         _______ _______ _______ _____ _____    ______ ____
ROOT
ATOM      1  CA  UNL     1       2.987   6.706  19.200  0.00  0.00    +0.000 A 
ATOM      2  C   UNL     1       3.195   7.230  17.936  0.00  0.00    +0.000 A 
ATOM      3  C   UNL     1       2.518   8.402  17.592  0.00  0.00    +0.000 A 
ATOM      4  C   UNL     1       1.648   9.007  18.515  0.00  0.00    +0.000 A 
ATOM      5  C   UNL     1       0.906  10.168  18.223  0.00  0.00    +0.000 A 
ATOM      6  C   UNL     1       0.029  10.698  19.172  0.00  0.00    +0.000 A 
ATOM      7  C   UNL     1      -0.142  10.046  20.393  0.00  0.00    +0.000 A 
ATOM      8  C   UNL     1       0.624   8.925  20.694  0.00  0.00    +0.000 A 
ATOM      9  C   UNL     1       1.516   8.399  19.777  0.00  0.00    +0.000 A 
ATOM     10  N   UNL     1       2.188   7.299  20.116  0.00  0.00    +0.000 NA
ENDROOT
BRANCH   1  12
ATOM     11  O   UNL     1       4.822   5.379  19.862  0.00  0.00    +0.000 OA
ATOM     12  C   UNL     1       3.622   5.396  19.589  0.00  0.00    +0.000 C 
ATOM     13  N   UNL     1       2.854   4.231  19.605  0.00  0.00    +0.000 N 
ATOM     14  C   UNL     1       3.376   3.009  20.194  0.00  0.00    +0.000 C 
ATOM     15  C   UNL     1       2.139   2.301  20.719  0.00  0.00    +0.000 C 
ATOM     16  F   UNL     1       1.784   2.836  21.919  0.00  0.00    +0.000 F 
ATOM     17  C   UNL     1       1.068   2.639  19.698  0.00  0.00    +0.000 C 
ATOM     18  CA  UNL     1       1.435   4.057  19.233  0.00  0.00    +0.000 C 
BRANCH  18  19
ATOM     19  C   UNL     1       1.210   4.222  17.717  0.00  0.00    +0.000 C 
BRANCH  19  20
ATOM     20  O   UNL     1       2.139   3.426  16.978  0.00  0.00    +0.000 OA
ATOM     21  H   UNL     1       2.898   4.009  16.791  0.00  0.00    +0.000 HD
ENDBRANCH  19  20
ENDBRANCH  18  19
ENDBRANCH   1  12
BRANCH   6  22
ATOM     22  O   UNL     1      -0.688  11.817  18.813  0.00  0.00    +0.000 OA
BRANCH  22  23
ATOM     23  C   UNL     1      -2.071  11.701  18.739  0.00  0.00    +0.000 A 
ATOM     24  C   UNL     1      -2.811  12.421  19.663  0.00  0.00    +0.000 A 
ATOM     25  C   UNL     1      -4.201  12.310  19.622  0.00  0.00    +0.000 A 
ATOM     26  C   UNL     1      -4.805  11.488  18.664  0.00  0.00    +0.000 A 
ATOM     27  C   UNL     1      -3.975  10.816  17.780  0.00  0.00    +0.000 A 
ATOM     28  N   UNL     1      -2.629  10.890  17.811  0.00  0.00    +0.000 NA
BRANCH  26  29
ATOM     29  C   UNL     1      -6.284  11.283  18.573  0.00  0.00    +0.000 C 
ATOM     30  F   UNL     1      -6.841  11.834  17.461  0.00  0.00    +0.000 F 
ATOM     31  F   UNL     1      -6.629   9.966  18.551  0.00  0.00    +0.000 F 
ATOM     32  F   UNL     1      -6.947  11.824  19.632  0.00  0.00    +0.000 F 
ENDBRANCH  26  29
ENDBRANCH  22  23
ENDBRANCH   6  22
TORSDOF 6
ENDMDL
MODEL 3
REMARK VINA RESULT:      -8.1      4.121      5.310
REMARK  Name = 
REMARK  6 active torsions:
REMARK  status: ('A' for Active; 'I' for Inactive)
REMARK    1  A    between atoms: C_2  and  CA_3
REMARK    2  A    between atoms: C_8  and  O_9
REMARK    3  A    between atoms: O_9  and  C_10
REMARK    4  A    between atoms: C_13  and  C_14
REMARK    5  A    between atoms: CA_29  and  C_30
REMARK    6  A    between atoms: C_30  and  O_31
REMARK                            x       y       z     vdW  Elec       q    Type
REMARK                         _______ _______ _______ _____ _____    ______ ____
ROOT
ATOM      1  CA  UNL     1       3.033   5.215  18.394  0.00  0.00    +0.000 A 
ATOM      2  C   UNL     1       2.767   4.874  19.709  0.00  0.00    +0.000 A 
ATOM      3  C   UNL     1       2.181   5.838  20.531  0.00  0.00    +0.000 A 
ATOM      4  C   UNL     1       1.887   7.113  20.019  0.00  0.00    +0.000 A 
ATOM      5  C   UNL     1       1.331   8.145  20.800  0.00  0.00    +0.000 A 
ATOM      6  C   UNL     1       1.098   9.402  20.240  0.00  0.00    +0.000 A 
ATOM      7  C   UNL     1       1.464   9.646  18.916  0.00  0.00    +0.000 A 
ATOM      8  C   UNL     1       1.974   8.614  18.136  0.00  0.00    +0.000 A 
ATOM      9  C   UNL     1       2.187   7.353  18.666  0.00  0.00    +0.000 A 
ATOM     10  N   UNL     1       2.717   6.422  17.873  0.00  0.00    +0.000 NA
ENDROOT
BRANCH   1  12
ATOM     11  O   UNL     1       3.138   3.253  17.089  0.00  0.00    +0.000 OA
ATOM     12  C   UNL     1       3.747   4.243  17.491  0.00  0.00    +0.000 C 
ATOM     13  N   UNL     1       5.083   4.464  17.153  0.00  0.00    +0.000 N 
ATOM     14  C   UNL     1       5.721   3.679  16.109  0.00  0.00    +0.000 C 
ATOM     15  C   UNL     1       6.749   4.628  15.517  0.00  0.00    +0.000 C 
ATOM     16  F   UNL     1       6.139   5.469  14.639  0.00  0.00    +0.000 F 
ATOM     17  C   UNL     1       7.227   5.433  16.712  0.00  0.00    +0.000 C 
ATOM     18  CA  UNL     1       5.981   5.546  17.605  0.00  0.00    +0.000 C 
BRANCH  18  19
ATOM     19  C   UNL     1       6.350   5.407  19.095  0.00  0.00    +0.000 C 
BRANCH  19  20
ATOM     20  O   UNL     1       7.742   5.121  19.247  0.00  0.00    +0.000 OA
ATOM     21  H   UNL     1       7.801   4.455  19.957  0.00  0.00    +0.000 HD
ENDBRANCH  19  20
ENDBRANCH  18  19
ENDBRANCH   1  12
BRANCH   6  22
ATOM     22  O   UNL     1       0.580  10.375  21.064  0.00  0.00    +0.000 OA
BRANCH  22  23
ATOM     23  C   UNL     1       0.560  11.681  20.591  0.00  0.00    +0.000 A 
ATOM     24  C   UNL     1      -0.511  12.043  19.791  0.00  0.00    +0.000 A 
ATOM     25  C   UNL     1      -0.547  13.343  19.288  0.00  0.00    +0.000 A 
ATOM     26  C   UNL     1       0.484  14.237  19.598  0.00  0.00    +0.000 A 
ATOM     27  C   UNL     1       1.507  13.779  20.414  0.00  0.00    +0.000 A 
ATOM     28  N   UNL     1       1.576  12.522  20.897  0.00  0.00    +0.000 NA
BRANCH  26  29
ATOM     29  C   UNL     1       0.544  15.637  19.073  0.00  0.00    +0.000 C 
ATOM     30  F   UNL     1      -0.541  15.984  18.329  0.00  0.00    +0.000 F 
ATOM     31  F   UNL     1       0.631  16.564  20.065  0.00  0.00    +0.000 F 
ATOM     32  F   UNL     1       1.627  15.842  18.273  0.00  0.00    +0.000 F 
ENDBRANCH  26  29
ENDBRANCH  22  23
ENDBRANCH   6  22
TORSDOF 6
ENDMDL
MODEL 4
REMARK VINA RESULT:      -8.0      4.096      4.783
REMARK  Name = 
REMARK  6 active torsions:
REMARK  status: ('A' for Active; 'I' for Inactive)
REMARK    1  A    between atoms: C_2  and  CA_3
REMARK    2  A    between atoms: C_8  and  O_9
REMARK    3  A    between atoms: O_9  and  C_10
REMARK    4  A    between atoms: C_13  and  C_14
REMARK    5  A    between atoms: CA_29  and  C_30
REMARK    6  A    between atoms: C_30  and  O_31
REMARK                            x       y       z     vdW  Elec       q    Type
REMARK                         _______ _______ _______ _____ _____    ______ ____
ROOT
ATOM      1  CA  UNL     1       3.083   6.568  19.166  0.00  0.00    +0.000 A 
ATOM      2  C   UNL     1       3.313   7.013  17.876  0.00  0.00    +0.000 A 
ATOM      3  C   UNL     1       2.702   8.202  17.473  0.00  0.00    +0.000 A 
ATOM      4  C   UNL     1       1.874   8.904  18.366  0.00  0.00    +0.000 A 
ATOM      5  C   UNL     1       1.198  10.088  18.016  0.00  0.00    +0.000 A 
ATOM      6  C   UNL     1       0.359  10.717  18.938  0.00  0.00    +0.000 A 
ATOM      7  C   UNL     1       0.157  10.140  20.192  0.00  0.00    +0.000 A 
ATOM      8  C   UNL     1       0.860   8.994  20.549  0.00  0.00    +0.000 A 
ATOM      9  C   UNL     1       1.715   8.371  19.658  0.00  0.00    +0.000 A 
ATOM     10  N   UNL     1       2.325   7.253  20.053  0.00  0.00    +0.000 NA
ENDROOT
BRANCH   1  12
ATOM     11  O   UNL     1       4.833   5.184  19.932  0.00  0.00    +0.000 OA
ATOM     12  C   UNL     1       3.643   5.245  19.622  0.00  0.00    +0.000 C 
ATOM     13  N   UNL     1       2.822   4.118  19.654  0.00  0.00    +0.000 N 
ATOM     14  C   UNL     1       3.268   2.896  20.302  0.00  0.00    +0.000 C 
ATOM     15  C   UNL     1       1.985   2.265  20.812  0.00  0.00    +0.000 C 
ATOM     16  F   UNL     1       1.619   2.860  21.981  0.00  0.00    +0.000 F 
ATOM     17  C   UNL     1       0.962   2.614  19.747  0.00  0.00    +0.000 C 
ATOM     18  CA  UNL     1       1.409   3.996  19.243  0.00  0.00    +0.000 C 
BRANCH  18  19
ATOM     19  C   UNL     1       1.237   4.114  17.716  0.00  0.00    +0.000 C 
BRANCH  19  20
ATOM     20  O   UNL     1       2.142   3.243  17.036  0.00  0.00    +0.000 OA
ATOM     21  H   UNL     1       2.464   2.615  17.709  0.00  0.00    +0.000 HD
ENDBRANCH  19  20
ENDBRANCH  18  19
ENDBRANCH   1  12
BRANCH   6  22
ATOM     22  O   UNL     1      -0.296  11.855  18.523  0.00  0.00    +0.000 OA
BRANCH  22  23
ATOM     23  C   UNL     1       0.399  13.057  18.580  0.00  0.00    +0.000 A 
ATOM     24  C   UNL     1      -0.337  14.194  18.869  0.00  0.00    +0.000 A 
ATOM     25  C   UNL     1       0.333  15.417  18.915  0.00  0.00    +0.000 A 
ATOM     26  C   UNL     1       1.710  15.464  18.672  0.00  0.00    +0.000 A 
ATOM     27  C   UNL     1       2.356  14.269  18.400  0.00  0.00    +0.000 A 
ATOM     28  N   UNL     1       1.729  13.076  18.330  0.00  0.00    +0.000 NA
BRANCH  26  29
ATOM     29  C   UNL     1       2.500  16.735  18.665  0.00  0.00    +0.000 C 
ATOM     30  F   UNL     1       3.278  16.885  17.559  0.00  0.00    +0.000 F 
ATOM     31  F   UNL     1       1.709  17.842  18.721  0.00  0.00    +0.000 F 
ATOM     32  F   UNL     1       3.343  16.825  19.731  0.00  0.00    +0.000 F 
ENDBRANCH  26  29
ENDBRANCH  22  23
ENDBRANCH   6  22
TORSDOF 6
ENDMDL
MODEL 5
REMARK VINA RESULT:      -8.0      2.809      3.809
REMARK  Name = 
REMARK  6 active torsions:
REMARK  status: ('A' for Active; 'I' for Inactive)
REMARK    1  A    between atoms: C_2  and  CA_3
REMARK    2  A    between atoms: C_8  and  O_9
REMARK    3  A    between atoms: O_9  and  C_10
REMARK    4  A    between atoms: C_13  and  C_14
REMARK    5  A    between atoms: CA_29  and  C_30
REMARK    6  A    between atoms: C_30  and  O_31
REMARK                            x       y       z     vdW  Elec       q    Type
REMARK                         _______ _______ _______ _____ _____    ______ ____
ROOT
ATOM      1  CA  UNL     1       2.276   6.683  18.418  0.00  0.00    +0.000 A 
ATOM      2  C   UNL     1       2.311   7.739  17.525  0.00  0.00    +0.000 A 
ATOM      3  C   UNL     1       1.994   9.012  18.003  0.00  0.00    +0.000 A 
ATOM      4  C   UNL     1       1.644   9.189  19.352  0.00  0.00    +0.000 A 
ATOM      5  C   UNL     1       1.277  10.437  19.893  0.00  0.00    +0.000 A 
ATOM      6  C   UNL     1       0.903  10.537  21.235  0.00  0.00    +0.000 A 
ATOM      7  C   UNL     1       0.848   9.389  22.024  0.00  0.00    +0.000 A 
ATOM      8  C   UNL     1       1.251   8.166  21.498  0.00  0.00    +0.000 A 
ATOM      9  C   UNL     1       1.650   8.050  20.178  0.00  0.00    +0.000 A 
ATOM     10  N   UNL     1       1.985   6.841  19.728  0.00  0.00    +0.000 NA
ENDROOT
BRANCH   1  12
ATOM     11  O   UNL     1       1.558   4.519  17.809  0.00  0.00    +0.000 OA
ATOM     12  C   UNL     1       2.520   5.276  17.934  0.00  0.00    +0.000 C 
ATOM     13  N   UNL     1       3.822   4.850  17.667  0.00  0.00    +0.000 N 
ATOM     14  C   UNL     1       4.062   3.589  16.986  0.00  0.00    +0.000 C 
ATOM     15  C   UNL     1       5.354   3.828  16.223  0.00  0.00    +0.000 C 
ATOM     16  F   UNL     1       5.084   4.504  15.073  0.00  0.00    +0.000 F 
ATOM     17  C   UNL     1       6.155   4.731  17.143  0.00  0.00    +0.000 C 
ATOM     18  CA  UNL     1       5.087   5.592  17.838  0.00  0.00    +0.000 C 
BRANCH  18  19
ATOM     19  C   UNL     1       5.433   5.816  19.323  0.00  0.00    +0.000 C 
BRANCH  19  20
ATOM     20  O   UNL     1       6.593   5.067  19.691  0.00  0.00    +0.000 OA
ATOM     21  H   UNL     1       6.866   5.410  20.561  0.00  0.00    +0.000 HD
ENDBRANCH  19  20
ENDBRANCH  18  19
ENDBRANCH   1  12
BRANCH   6  22
ATOM     22  O   UNL     1       0.528  11.780  21.694  0.00  0.00    +0.000 OA
BRANCH  22  23
ATOM     23  C   UNL     1      -0.831  12.057  21.771  0.00  0.00    +0.000 A 
ATOM     24  C   UNL     1      -1.426  11.939  23.016  0.00  0.00    +0.000 A 
ATOM     25  C   UNL     1      -2.793  12.195  23.119  0.00  0.00    +0.000 A 
ATOM     26  C   UNL     1      -3.519  12.560  21.980  0.00  0.00    +0.000 A 
ATOM     27  C   UNL     1      -2.829  12.659  20.783  0.00  0.00    +0.000 A 
ATOM     28  N   UNL     1      -1.512  12.397  20.652  0.00  0.00    +0.000 NA
BRANCH  26  29
ATOM     29  C   UNL     1      -4.993  12.817  21.993  0.00  0.00    +0.000 C 
ATOM     30  F   UNL     1      -5.689  12.029  21.129  0.00  0.00    +0.000 F 
ATOM     31  F   UNL     1      -5.549  12.611  23.219  0.00  0.00    +0.000 F 
ATOM     32  F   UNL     1      -5.297  14.101  21.657  0.00  0.00    +0.000 F 
ENDBRANCH  26  29
ENDBRANCH  22  23
ENDBRANCH   6  22
TORSDOF 6
ENDMDL
MODEL 6
REMARK VINA RESULT:      -8.0      2.768      3.347
REMARK  Name = 
REMARK  6 active torsions:
REMARK  status: ('A' for Active; 'I' for Inactive)
REMARK    1  A    between atoms: C_2  and  CA_3
REMARK    2  A    between atoms: C_8  and  O_9
REMARK    3  A    between atoms: O_9  and  C_10
REMARK    4  A    between atoms: C_13  and  C_14
REMARK    5  A    between atoms: CA_29  and  C_30
REMARK    6  A    between atoms: C_30  and  O_31
REMARK                            x       y       z     vdW  Elec       q    Type
REMARK                         _______ _______ _______ _____ _____    ______ ____
ROOT
ATOM      1  CA  UNL     1       2.987   6.731  19.292  0.00  0.00    +0.000 A 
ATOM      2  C   UNL     1       3.041   7.371  18.066  0.00  0.00    +0.000 A 
ATOM      3  C   UNL     1       2.273   8.524  17.893  0.00  0.00    +0.000 A 
ATOM      4  C   UNL     1       1.469   8.996  18.945  0.00  0.00    +0.000 A 
ATOM      5  C   UNL     1       0.641  10.130  18.829  0.00  0.00    +0.000 A 
ATOM      6  C   UNL     1      -0.163  10.524  19.900  0.00  0.00    +0.000 A 
ATOM      7  C   UNL     1      -0.178   9.763  21.069  0.00  0.00    +0.000 A 
ATOM      8  C   UNL     1       0.672   8.669  21.195  0.00  0.00    +0.000 A 
ATOM      9  C   UNL     1       1.495   8.278  20.154  0.00  0.00    +0.000 A 
ATOM     10  N   UNL     1       2.254   7.196  20.328  0.00  0.00    +0.000 NA
ENDROOT
BRANCH   1  12
ATOM     11  O   UNL     1       4.942   5.468  19.680  0.00  0.00    +0.000 OA
ATOM     12  C   UNL     1       3.725   5.433  19.500  0.00  0.00    +0.000 C 
ATOM     13  N   UNL     1       3.029   4.225  19.456  0.00  0.00    +0.000 N 
ATOM     14  C   UNL     1       3.665   2.989  19.879  0.00  0.00    +0.000 C 
ATOM     15  C   UNL     1       2.517   2.155  20.421  0.00  0.00    +0.000 C 
ATOM     16  F   UNL     1       2.228   2.550  21.692  0.00  0.00    +0.000 F 
ATOM     17  C   UNL     1       1.351   2.519  19.521  0.00  0.00    +0.000 C 
ATOM     18  CA  UNL     1       1.597   3.996  19.174  0.00  0.00    +0.000 C 
BRANCH  18  19
ATOM     19  C   UNL     1       1.243   4.289  17.703  0.00  0.00    +0.000 C 
BRANCH  19  20
ATOM     20  O   UNL     1       1.999   3.453  16.824  0.00  0.00    +0.000 OA
ATOM     21  H   UNL     1       1.489   2.626  16.739  0.00  0.00    +0.000 HD
ENDBRANCH  19  20
ENDBRANCH  18  19
ENDBRANCH   1  12
BRANCH   6  22
ATOM     22  O   UNL     1      -0.970  11.624  19.713  0.00  0.00    +0.000 OA
BRANCH  22  23
ATOM     23  C   UNL     1      -1.567  12.187  20.834  0.00  0.00    +0.000 A 
ATOM     24  C   UNL     1      -0.721  12.691  21.808  0.00  0.00    +0.000 A 
ATOM     25  C   UNL     1      -1.294  13.246  22.953  0.00  0.00    +0.000 A 
ATOM     26  C   UNL     1      -2.686  13.280  23.087  0.00  0.00    +0.000 A 
ATOM     27  C   UNL     1      -3.444  12.757  22.051  0.00  0.00    +0.000 A 
ATOM     28  N   UNL     1      -2.915  12.196  20.944  0.00  0.00    +0.000 NA
BRANCH  26  29
ATOM     29  C   UNL     1      -3.382  13.823  24.295  0.00  0.00    +0.000 C 
ATOM     30  F   UNL     1      -3.958  12.862  25.067  0.00  0.00    +0.000 F 
ATOM     31  F   UNL     1      -2.542  14.511  25.117  0.00  0.00    +0.000 F 
ATOM     32  F   UNL     1      -4.380  14.690  23.970  0.00  0.00    +0.000 F 
ENDBRANCH  26  29
ENDBRANCH  22  23
ENDBRANCH   6  22
TORSDOF 6
ENDMDL
MODEL 7
REMARK VINA RESULT:      -8.0      3.824      9.552
REMARK  Name = 
REMARK  6 active torsions:
REMARK  status: ('A' for Active; 'I' for Inactive)
REMARK    1  A    between atoms: C_2  and  CA_3
REMARK    2  A    between atoms: C_8  and  O_9
REMARK    3  A    between atoms: O_9  and  C_10
REMARK    4  A    between atoms: C_13  and  C_14
REMARK    5  A    between atoms: CA_29  and  C_30
REMARK    6  A    between atoms: C_30  and  O_31
REMARK                            x       y       z     vdW  Elec       q    Type
REMARK                         _______ _______ _______ _____ _____    ______ ____
ROOT
ATOM      1  CA  UNL     1      -1.698  11.612  22.218  0.00  0.00    +0.000 A 
ATOM      2  C   UNL     1      -1.118  10.783  23.162  0.00  0.00    +0.000 A 
ATOM      3  C   UNL     1      -0.124   9.900  22.737  0.00  0.00    +0.000 A 
ATOM      4  C   UNL     1       0.253   9.865  21.384  0.00  0.00    +0.000 A 
ATOM      5  C   UNL     1       1.221   8.975  20.879  0.00  0.00    +0.000 A 
ATOM      6  C   UNL     1       1.522   8.965  19.515  0.00  0.00    +0.000 A 
ATOM      7  C   UNL     1       0.827   9.808  18.649  0.00  0.00    +0.000 A 
ATOM      8  C   UNL     1      -0.098  10.715  19.156  0.00  0.00    +0.000 A 
ATOM      9  C   UNL     1      -0.392  10.758  20.508  0.00  0.00    +0.000 A 
ATOM     10  N   UNL     1      -1.318  11.623  20.920  0.00  0.00    +0.000 NA
ENDROOT
BRANCH   1  12
ATOM     11  O   UNL     1      -3.983  12.197  22.286  0.00  0.00    +0.000 OA
ATOM     12  C   UNL     1      -2.839  12.518  22.606  0.00  0.00    +0.000 C 
ATOM     13  N   UNL     1      -2.578  13.707  23.288  0.00  0.00    +0.000 N 
ATOM     14  C   UNL     1      -3.664  14.477  23.872  0.00  0.00    +0.000 C 
ATOM     15  C   UNL     1      -3.028  15.146  25.079  0.00  0.00    +0.000 C 
ATOM     16  F   UNL     1      -2.974  14.262  26.113  0.00  0.00    +0.000 F 
ATOM     17  C   UNL     1      -1.612  15.446  24.620  0.00  0.00    +0.000 C 
ATOM     18  CA  UNL     1      -1.274  14.281  23.676  0.00  0.00    +0.000 C 
BRANCH  18  19
ATOM     19  C   UNL     1      -0.469  14.769  22.456  0.00  0.00    +0.000 C 
BRANCH  19  20
ATOM     20  O   UNL     1       0.791  14.100  22.380  0.00  0.00    +0.000 OA
ATOM     21  H   UNL     1       1.330  14.618  21.754  0.00  0.00    +0.000 HD
ENDBRANCH  19  20
ENDBRANCH  18  19
ENDBRANCH   1  12
BRANCH   6  22
ATOM     22  O   UNL     1       2.456   8.052  19.082  0.00  0.00    +0.000 OA
BRANCH  22  23
ATOM     23  C   UNL     1       2.140   6.703  19.190  0.00  0.00    +0.000 A 
ATOM     24  C   UNL     1       1.889   6.217  20.462  0.00  0.00    +0.000 A 
ATOM     25  C   UNL     1       1.586   4.863  20.601  0.00  0.00    +0.000 A 
ATOM     26  C   UNL     1       1.542   4.041  19.469  0.00  0.00    +0.000 A 
ATOM     27  C   UNL     1       1.800   4.626  18.240  0.00  0.00    +0.000 A 
ATOM     28  N   UNL     1       2.116   5.928  18.080  0.00  0.00    +0.000 NA
BRANCH  26  29
ATOM     29  C   UNL     1       1.261   2.573  19.531  0.00  0.00    +0.000 C 
ATOM     30  F   UNL     1       0.269   2.174  18.689  0.00  0.00    +0.000 F 
ATOM     31  F   UNL     1       2.349   1.818  19.213  0.00  0.00    +0.000 F 
ATOM     32  F   UNL     1       0.879   2.172  20.775  0.00  0.00    +0.000 F 
ENDBRANCH  26  29
ENDBRANCH  22  23
ENDBRANCH   6  22
TORSDOF 6
ENDMDL
MODEL 8
REMARK VINA RESULT:      -7.9      3.135      3.701
REMARK  Name = 
REMARK  6 active torsions:
REMARK  status: ('A' for Active; 'I' for Inactive)
REMARK    1  A    between atoms: C_2  and  CA_3
REMARK    2  A    between atoms: C_8  and  O_9
REMARK    3  A    between atoms: O_9  and  C_10
REMARK    4  A    between atoms: C_13  and  C_14
REMARK    5  A    between atoms: CA_29  and  C_30
REMARK    6  A    between atoms: C_30  and  O_31
REMARK                            x       y       z     vdW  Elec       q    Type
REMARK                         _______ _______ _______ _____ _____    ______ ____
ROOT
ATOM      1  CA  UNL     1       3.039   6.721  19.218  0.00  0.00    +0.000 A 
ATOM      2  C   UNL     1       3.058   7.359  17.990  0.00  0.00    +0.000 A 
ATOM      3  C   UNL     1       2.255   8.490  17.826  0.00  0.00    +0.000 A 
ATOM      4  C   UNL     1       1.454   8.942  18.888  0.00  0.00    +0.000 A 
ATOM      5  C   UNL     1       0.593  10.052  18.783  0.00  0.00    +0.000 A 
ATOM      6  C   UNL     1      -0.206  10.427  19.865  0.00  0.00    +0.000 A 
ATOM      7  C   UNL     1      -0.183   9.668  21.035  0.00  0.00    +0.000 A 
ATOM      8  C   UNL     1       0.699   8.599  21.151  0.00  0.00    +0.000 A 
ATOM      9  C   UNL     1       1.517   8.228  20.099  0.00  0.00    +0.000 A 
ATOM     10  N   UNL     1       2.309   7.168  20.264  0.00  0.00    +0.000 NA
ENDROOT
BRANCH   1  12
ATOM     11  O   UNL     1       5.042   5.507  19.503  0.00  0.00    +0.000 OA
ATOM     12  C   UNL     1       3.816   5.445  19.418  0.00  0.00    +0.000 C 
ATOM     13  N   UNL     1       3.142   4.225  19.474  0.00  0.00    +0.000 N 
ATOM     14  C   UNL     1       3.833   3.017  19.894  0.00  0.00    +0.000 C 
ATOM     15  C   UNL     1       2.746   2.186  20.553  0.00  0.00    +0.000 C 
ATOM     16  F   UNL     1       2.547   2.626  21.826  0.00  0.00    +0.000 F 
ATOM     17  C   UNL     1       1.508   2.495  19.732  0.00  0.00    +0.000 C 
ATOM     18  CA  UNL     1       1.698   3.961  19.311  0.00  0.00    +0.000 C 
BRANCH  18  19
ATOM     19  C   UNL     1       1.227   4.190  17.862  0.00  0.00    +0.000 C 
BRANCH  19  20
ATOM     20  O   UNL     1       2.071   3.496  16.940  0.00  0.00    +0.000 OA
ATOM     21  H   UNL     1       2.075   4.034  16.127  0.00  0.00    +0.000 HD
ENDBRANCH  19  20
ENDBRANCH  18  19
ENDBRANCH   1  12
BRANCH   6  22
ATOM     22  O   UNL     1      -1.046  11.503  19.687  0.00  0.00    +0.000 OA
BRANCH  22  23
ATOM     23  C   UNL     1      -1.310  12.306  20.789  0.00  0.00    +0.000 A 
ATOM     24  C   UNL     1      -0.260  13.066  21.277  0.00  0.00    +0.000 A 
ATOM     25  C   UNL     1      -0.493  13.869  22.394  0.00  0.00    +0.000 A 
ATOM     26  C   UNL     1      -1.762  13.887  22.985  0.00  0.00    +0.000 A 
ATOM     27  C   UNL     1      -2.747  13.096  22.415  0.00  0.00    +0.000 A 
ATOM     28  N   UNL     1      -2.543  12.296  21.348  0.00  0.00    +0.000 NA
BRANCH  26  29
ATOM     29  C   UNL     1      -2.089  14.689  24.205  0.00  0.00    +0.000 C 
ATOM     30  F   UNL     1      -2.522  15.949  23.926  0.00  0.00    +0.000 F 
ATOM     31  F   UNL     1      -3.064  14.116  24.961  0.00  0.00    +0.000 F 
ATOM     32  F   UNL     1      -1.015  14.836  25.029  0.00  0.00    +0.000 F 
ENDBRANCH  26  29
ENDBRANCH  22  23
ENDBRANCH   6  22
TORSDOF 6
ENDMDL
MODEL 9
REMARK VINA RESULT:      -7.9      2.485      3.093
REMARK  Name = 
REMARK  6 active torsions:
REMARK  status: ('A' for Active; 'I' for Inactive)
REMARK    1  A    between atoms: C_2  and  CA_3
REMARK    2  A    between atoms: C_8  and  O_9
REMARK    3  A    between atoms: O_9  and  C_10
REMARK    4  A    between atoms: C_13  and  C_14
REMARK    5  A    between atoms: CA_29  and  C_30
REMARK    6  A    between atoms: C_30  and  O_31
REMARK                            x       y       z     vdW  Elec       q    Type
REMARK                         _______ _______ _______ _____ _____    ______ ____
ROOT
ATOM      1  CA  UNL     1       3.070   6.731  19.189  0.00  0.00    +0.000 A 
ATOM      2  C   UNL     1       3.072   7.374  17.963  0.00  0.00    +0.000 A 
ATOM      3  C   UNL     1       2.274   8.510  17.818  0.00  0.00    +0.000 A 
ATOM      4  C   UNL     1       1.494   8.964  18.895  0.00  0.00    +0.000 A 
ATOM      5  C   UNL     1       0.639  10.079  18.808  0.00  0.00    +0.000 A 
ATOM      6  C   UNL     1      -0.139  10.455  19.905  0.00  0.00    +0.000 A 
ATOM      7  C   UNL     1      -0.101   9.692  21.072  0.00  0.00    +0.000 A 
ATOM      8  C   UNL     1       0.775   8.616  21.169  0.00  0.00    +0.000 A 
ATOM      9  C   UNL     1       1.573   8.244  20.101  0.00  0.00    +0.000 A 
ATOM     10  N   UNL     1       2.360   7.178  20.249  0.00  0.00    +0.000 NA
ENDROOT
BRANCH   1  12
ATOM     11  O   UNL     1       5.070   5.503  19.433  0.00  0.00    +0.000 OA
ATOM     12  C   UNL     1       3.842   5.449  19.371  0.00  0.00    +0.000 C 
ATOM     13  N   UNL     1       3.161   4.233  19.436  0.00  0.00    +0.000 N 
ATOM     14  C   UNL     1       3.851   3.020  19.839  0.00  0.00    +0.000 C 
ATOM     15  C   UNL     1       2.771   2.194  20.517  0.00  0.00    +0.000 C 
ATOM     16  F   UNL     1       2.599   2.632  21.794  0.00  0.00    +0.000 F 
ATOM     17  C   UNL     1       1.519   2.514  19.720  0.00  0.00    +0.000 C 
ATOM     18  CA  UNL     1       1.712   3.980  19.300  0.00  0.00    +0.000 C 
BRANCH  18  19
ATOM     19  C   UNL     1       1.215   4.216  17.860  0.00  0.00    +0.000 C 
BRANCH  19  20
ATOM     20  O   UNL     1       2.022   3.500  16.922  0.00  0.00    +0.000 OA
ATOM     21  H   UNL     1       1.878   3.933  16.061  0.00  0.00    +0.000 HD
ENDBRANCH  19  20
ENDBRANCH  18  19
ENDBRANCH   1  12
BRANCH   6  22
ATOM     22  O   UNL     1      -0.975  11.537  19.745  0.00  0.00    +0.000 OA
BRANCH  22  23
ATOM     23  C   UNL     1      -1.731  11.937  20.841  0.00  0.00    +0.000 A 
ATOM     24  C   UNL     1      -3.029  12.352  20.590  0.00  0.00    +0.000 A 
ATOM     25  C   UNL     1      -3.804  12.775  21.670  0.00  0.00    +0.000 A 
ATOM     26  C   UNL     1      -3.261  12.770  22.959  0.00  0.00    +0.000 A 
ATOM     27  C   UNL     1      -1.955  12.329  23.105  0.00  0.00    +0.000 A 
ATOM     28  N   UNL     1      -1.178  11.934  22.076  0.00  0.00    +0.000 NA
BRANCH  26  29
ATOM     29  C   UNL     1      -4.008  13.241  24.167  0.00  0.00    +0.000 C 
ATOM     30  F   UNL     1      -5.191  13.847  23.872  0.00  0.00    +0.000 F 
ATOM     31  F   UNL     1      -4.310  12.227  25.024  0.00  0.00    +0.000 F 
ATOM     32  F   UNL     1      -3.296  14.145  24.895  0.00  0.00    +0.000 F 
ENDBRANCH  26  29
ENDBRANCH  22  23
ENDBRANCH   6  22
TORSDOF 6
ENDMDL
