MODEL 1
REMARK VINA RESULT:      -6.5      0.000      0.000
REMARK  Name = 
REMARK  15 active torsions:
REMARK  status: ('A' for Active; 'I' for Inactive)
REMARK    1  A    between atoms: C_1  and  C_2
REMARK    2  A    between atoms: C_2  and  C_3
REMARK    3  A    between atoms: C_3  and  C_4
REMARK    4  A    between atoms: C_3  and  C_5
REMARK    5  A    between atoms: C_5  and  N_6
REMARK    6  A    between atoms: C_5  and  C_15
REMARK    7  A    between atoms: C_7  and  C_9
REMARK    8  A    between atoms: C_9  and  N_10
REMARK    9  A    between atoms: C_9  and  C_11
REMARK   10  A    between atoms: C_11  and  C_12
REMARK   11  A    between atoms: C_12  and  O_14
REMARK   12  A    between atoms: C_15  and  O_17
REMARK   13  A    between atoms: O_17  and  C_18
REMARK   14  A    between atoms: C_18  and  C_19
REMARK   15  A    between atoms: C_18  and  C_20
REMARK                            x       y       z     vdW  Elec       q    Type
REMARK                         _______ _______ _______ _____ _____    ______ ____
ROOT
ATOM      1  N   UNL     1       5.202   5.315  18.519  0.00  0.00    +0.000 N 
ATOM      2  C   UNL     1       6.515   5.365  18.909  0.00  0.00    +0.000 C 
ATOM      3  O   UNL     1       6.879   5.295  20.083  0.00  0.00    +0.000 OA
ATOM      4  H   UNL     1       4.965   5.317  17.530  0.00  0.00    +0.000 HD
ENDROOT
BRANCH   1   5
ATOM      5  C   UNL     1       4.109   5.045  19.462  0.00  0.00    +0.000 C 
BRANCH   5   6
ATOM      6  C   UNL     1       2.835   5.843  19.093  0.00  0.00    +0.000 C 
ATOM      7  C   UNL     1       3.170   6.991  18.133  0.00  0.00    +0.000 C 
BRANCH   6   9
ATOM      8  C   UNL     1       1.769   7.837  20.309  0.00  0.00    +0.000 C 
ATOM      9  C   UNL     1       2.066   6.343  20.336  0.00  0.00    +0.000 C 
ENDBRANCH   6   9
ENDBRANCH   5   6
BRANCH   5  10
ATOM     10  C   UNL     1       3.895   3.524  19.503  0.00  0.00    +0.000 C 
ATOM     11  O   UNL     1       4.681   2.742  20.028  0.00  0.00    +0.000 OA
BRANCH  10  12
ATOM     12  O   UNL     1       2.723   3.180  18.897  0.00  0.00    +0.000 OA
BRANCH  12  13
ATOM     13  C   UNL     1       1.865   2.279  19.627  0.00  0.00    +0.000 C 
ATOM     14  C   UNL     1       1.589   2.839  21.019  0.00  0.00    +0.000 C 
ATOM     15  C   UNL     1       0.563   2.151  18.842  0.00  0.00    +0.000 C 
ENDBRANCH  12  13
ENDBRANCH  10  12
ENDBRANCH   5  10
ENDBRANCH   1   5
BRANCH   2  16
ATOM     16  C   UNL     1       7.527   5.534  17.756  0.00  0.00    +0.000 C 
BRANCH  16  17
ATOM     17  N   UNL     1       8.062   4.204  17.394  0.00  0.00    +0.000 NA
ATOM     18  H   UNL     1       8.990   4.312  16.981  0.00  0.00    +0.000 HD
ATOM     19  H   UNL     1       7.482   3.783  16.669  0.00  0.00    +0.000 HD
ENDBRANCH  16  17
BRANCH  16  20
ATOM     20  C   UNL     1       6.834   6.157  16.547  0.00  0.00    +0.000 C 
BRANCH  20  21
ATOM     21  C   UNL     1       6.825   5.181  15.398  0.00  0.00    +0.000 C 
ATOM     22  O   UNL     1       7.592   5.247  14.448  0.00  0.00    +0.000 OA
BRANCH  21  23
ATOM     23  O   UNL     1       5.856   4.244  15.478  0.00  0.00    +0.000 OA
ATOM     24  H   UNL     1       5.942   3.642  16.256  0.00  0.00    +0.000 HD
ENDBRANCH  21  23
ENDBRANCH  20  21
ENDBRANCH  16  20
ENDBRANCH   2  16
TORSDOF 11
ENDMDL
MODEL 2
REMARK VINA RESULT:      -6.3      2.052      5.242
REMARK  Name = 
REMARK  15 active torsions:
REMARK  status: ('A' for Active; 'I' for Inactive)
REMARK    1  A    between atoms: C_1  and  C_2
REMARK    2  A    between atoms: C_2  and  C_3
REMARK    3  A    between atoms: C_3  and  C_4
REMARK    4  A    between atoms: C_3  and  C_5
REMARK    5  A    between atoms: C_5  and  N_6
REMARK    6  A    between atoms: C_5  and  C_15
REMARK    7  A    between atoms: C_7  and  C_9
REMARK    8  A    between atoms: C_9  and  N_10
REMARK    9  A    between atoms: C_9  and  C_11
REMARK   10  A    between atoms: C_11  and  C_12
REMARK   11  A    between atoms: C_12  and  O_14
REMARK   12  A    between atoms: C_15  and  O_17
REMARK   13  A    between atoms: O_17  and  C_18
REMARK   14  A    between atoms: C_18  and  C_19
REMARK   15  A    between atoms: C_18  and  C_20
REMARK                            x       y       z     vdW  Elec       q    Type
REMARK                         _______ _______ _______ _____ _____    ______ ____
ROOT
ATOM      1  N   UNL     1       3.097   4.843  18.570  0.00  0.00    +0.000 N 
ATOM      2  C   UNL     1       2.368   3.762  18.145  0.00  0.00    +0.000 C 
ATOM      3  O   UNL     1       1.754   3.733  17.078  0.00  0.00    +0.000 OA
ATOM      4  H   UNL     1       3.633   4.788  19.432  0.00  0.00    +0.000 HD
ENDROOT
BRANCH   1   5
ATOM      5  C   UNL     1       3.317   6.026  17.727  0.00  0.00    +0.000 C 
BRANCH   5   6
ATOM      6  C   UNL     1       3.026   7.333  18.503  0.00  0.00    +0.000 C 
ATOM      7  C   UNL     1       2.218   7.044  19.774  0.00  0.00    +0.000 C 
BRANCH   6   9
ATOM      8  C   UNL     1       1.396   9.315  18.397  0.00  0.00    +0.000 C 
ATOM      9  C   UNL     1       2.344   8.406  17.625  0.00  0.00    +0.000 C 
ENDBRANCH   6   9
ENDBRANCH   5   6
BRANCH   5  10
ATOM     10  C   UNL     1       4.747   5.942  17.172  0.00  0.00    +0.000 C 
ATOM     11  O   UNL     1       5.009   5.891  15.975  0.00  0.00    +0.000 OA
BRANCH  10  12
ATOM     12  O   UNL     1       5.663   5.947  18.182  0.00  0.00    +0.000 OA
BRANCH  12  13
ATOM     13  C   UNL     1       7.035   6.180  17.801  0.00  0.00    +0.000 C 
ATOM     14  C   UNL     1       7.248   7.660  17.506  0.00  0.00    +0.000 C 
ATOM     15  C   UNL     1       7.914   5.743  18.970  0.00  0.00    +0.000 C 
ENDBRANCH  12  13
ENDBRANCH  10  12
ENDBRANCH   5  10
ENDBRANCH   1   5
BRANCH   2  16
ATOM     16  C   UNL     1       2.356   2.566  19.121  0.00  0.00    +0.000 C 
BRANCH  16  17
ATOM     17  N   UNL     1       2.922   1.386  18.434  0.00  0.00    +0.000 NA
ATOM     18  H   UNL     1       2.736   0.549  18.989  0.00  0.00    +0.000 HD
ATOM     19  H   UNL     1       3.938   1.468  18.384  0.00  0.00    +0.000 HD
ENDBRANCH  16  17
BRANCH  16  20
ATOM     20  C   UNL     1       3.194   2.895  20.353  0.00  0.00    +0.000 C 
BRANCH  20  21
ATOM     21  C   UNL     1       4.608   2.409  20.162  0.00  0.00    +0.000 C 
ATOM     22  O   UNL     1       5.065   1.423  20.721  0.00  0.00    +0.000 OA
BRANCH  21  23
ATOM     23  O   UNL     1       5.353   3.189  19.350  0.00  0.00    +0.000 OA
ATOM     24  H   UNL     1       6.022   2.693  18.819  0.00  0.00    +0.000 HD
ENDBRANCH  21  23
ENDBRANCH  20  21
ENDBRANCH  16  20
ENDBRANCH   2  16
TORSDOF 11
ENDMDL
MODEL 3
REMARK VINA RESULT:      -6.2      0.856      1.102
REMARK  Name = 
REMARK  15 active torsions:
REMARK  status: ('A' for Active; 'I' for Inactive)
REMARK    1  A    between atoms: C_1  and  C_2
REMARK    2  A    between atoms: C_2  and  C_3
REMARK    3  A    between atoms: C_3  and  C_4
REMARK    4  A    between atoms: C_3  and  C_5
REMARK    5  A    between atoms: C_5  and  N_6
REMARK    6  A    between atoms: C_5  and  C_15
REMARK    7  A    between atoms: C_7  and  C_9
REMARK    8  A    between atoms: C_9  and  N_10
REMARK    9  A    between atoms: C_9  and  C_11
REMARK   10  A    between atoms: C_11  and  C_12
REMARK   11  A    between atoms: C_12  and  O_14
REMARK   12  A    between atoms: C_15  and  O_17
REMARK   13  A    between atoms: O_17  and  C_18
REMARK   14  A    between atoms: C_18  and  C_19
REMARK   15  A    between atoms: C_18  and  C_20
REMARK                            x       y       z     vdW  Elec       q    Type
REMARK                         _______ _______ _______ _____ _____    ______ ____
ROOT
ATOM      1  N   UNL     1       4.822   4.918  18.483  0.00  0.00    +0.000 N 
ATOM      2  C   UNL     1       6.173   5.088  18.644  0.00  0.00    +0.000 C 
ATOM      3  O   UNL     1       6.707   5.289  19.735  0.00  0.00    +0.000 OA
ATOM      4  H   UNL     1       4.443   4.695  17.565  0.00  0.00    +0.000 HD
ENDROOT
BRANCH   1   5
ATOM      5  C   UNL     1       3.896   4.833  19.620  0.00  0.00    +0.000 C 
BRANCH   5   6
ATOM      6  C   UNL     1       2.565   5.563  19.320  0.00  0.00    +0.000 C 
ATOM      7  C   UNL     1       2.747   6.587  18.194  0.00  0.00    +0.000 C 
BRANCH   6   9
ATOM      8  C   UNL     1       1.743   7.709  20.465  0.00  0.00    +0.000 C 
ATOM      9  C   UNL     1       1.941   6.203  20.580  0.00  0.00    +0.000 C 
ENDBRANCH   6   9
ENDBRANCH   5   6
BRANCH   5  10
ATOM     10  C   UNL     1       3.722   3.346  19.967  0.00  0.00    +0.000 C 
ATOM     11  O   UNL     1       4.659   2.586  20.189  0.00  0.00    +0.000 OA
BRANCH  10  12
ATOM     12  O   UNL     1       2.402   3.006  20.008  0.00  0.00    +0.000 OA
BRANCH  12  13
ATOM     13  C   UNL     1       1.973   1.990  19.080  0.00  0.00    +0.000 C 
ATOM     14  C   UNL     1       0.491   2.163  18.767  0.00  0.00    +0.000 C 
ATOM     15  C   UNL     1       2.802   2.152  17.809  0.00  0.00    +0.000 C 
ENDBRANCH  12  13
ENDBRANCH  10  12
ENDBRANCH   5  10
ENDBRANCH   1   5
BRANCH   2  16
ATOM     16  C   UNL     1       6.993   5.026  17.339  0.00  0.00    +0.000 C 
BRANCH  16  17
ATOM     17  N   UNL     1       8.148   4.126  17.545  0.00  0.00    +0.000 NA
ATOM     18  H   UNL     1       8.715   4.101  16.695  0.00  0.00    +0.000 HD
ATOM     19  H   UNL     1       7.822   3.171  17.690  0.00  0.00    +0.000 HD
ENDBRANCH  16  17
BRANCH  16  20
ATOM     20  C   UNL     1       6.122   4.493  16.205  0.00  0.00    +0.000 C 
BRANCH  20  21
ATOM     21  C   UNL     1       6.881   4.542  14.903  0.00  0.00    +0.000 C 
ATOM     22  O   UNL     1       7.739   5.375  14.652  0.00  0.00    +0.000 OA
BRANCH  21  23
ATOM     23  O   UNL     1       6.495   3.610  14.005  0.00  0.00    +0.000 OA
ATOM     24  H   UNL     1       7.137   3.475  13.267  0.00  0.00    +0.000 HD
ENDBRANCH  21  23
ENDBRANCH  20  21
ENDBRANCH  16  20
ENDBRANCH   2  16
TORSDOF 11
ENDMDL
MODEL 4
REMARK VINA RESULT:      -6.2      0.956      1.385
REMARK  Name = 
REMARK  15 active torsions:
REMARK  status: ('A' for Active; 'I' for Inactive)
REMARK    1  A    between atoms: C_1  and  C_2
REMARK    2  A    between atoms: C_2  and  C_3
REMARK    3  A    between atoms: C_3  and  C_4
REMARK    4  A    between atoms: C_3  and  C_5
REMARK    5  A    between atoms: C_5  and  N_6
REMARK    6  A    between atoms: C_5  and  C_15
REMARK    7  A    between atoms: C_7  and  C_9
REMARK    8  A    between atoms: C_9  and  N_10
REMARK    9  A    between atoms: C_9  and  C_11
REMARK   10  A    between atoms: C_11  and  C_12
REMARK   11  A    between atoms: C_12  and  O_14
REMARK   12  A    between atoms: C_15  and  O_17
REMARK   13  A    between atoms: O_17  and  C_18
REMARK   14  A    between atoms: C_18  and  C_19
REMARK   15  A    between atoms: C_18  and  C_20
REMARK                            x       y       z     vdW  Elec       q    Type
REMARK                         _______ _______ _______ _____ _____    ______ ____
ROOT
ATOM      1  N   UNL     1       4.719   5.578  17.927  0.00  0.00    +0.000 N 
ATOM      2  C   UNL     1       6.002   5.190  18.217  0.00  0.00    +0.000 C 
ATOM      3  O   UNL     1       6.336   4.700  19.296  0.00  0.00    +0.000 OA
ATOM      4  H   UNL     1       4.490   5.922  16.997  0.00  0.00    +0.000 HD
ENDROOT
BRANCH   1   5
ATOM      5  C   UNL     1       3.594   5.325  18.836  0.00  0.00    +0.000 C 
BRANCH   5   6
ATOM      6  C   UNL     1       2.555   6.471  18.781  0.00  0.00    +0.000 C 
ATOM      7  C   UNL     1       3.081   7.643  17.944  0.00  0.00    +0.000 C 
BRANCH   6   9
ATOM      8  C   UNL     1       1.512   8.335  20.206  0.00  0.00    +0.000 C 
ATOM      9  C   UNL     1       2.100   6.930  20.184  0.00  0.00    +0.000 C 
ENDBRANCH   6   9
ENDBRANCH   5   6
BRANCH   5  10
ATOM     10  C   UNL     1       3.013   3.947  18.485  0.00  0.00    +0.000 C 
ATOM     11  O   UNL     1       2.819   3.564  17.336  0.00  0.00    +0.000 OA
BRANCH  10  12
ATOM     12  O   UNL     1       2.765   3.220  19.612  0.00  0.00    +0.000 OA
BRANCH  12  13
ATOM     13  C   UNL     1       1.412   3.254  20.111  0.00  0.00    +0.000 C 
ATOM     14  C   UNL     1       0.516   2.377  19.242  0.00  0.00    +0.000 C 
ATOM     15  C   UNL     1       1.439   2.725  21.542  0.00  0.00    +0.000 C 
ENDBRANCH  12  13
ENDBRANCH  10  12
ENDBRANCH   5  10
ENDBRANCH   1   5
BRANCH   2  16
ATOM     16  C   UNL     1       7.022   5.430  17.084  0.00  0.00    +0.000 C 
BRANCH  16  17
ATOM     17  N   UNL     1       7.911   4.252  16.988  0.00  0.00    +0.000 NA
ATOM     18  H   UNL     1       8.354   4.235  16.068  0.00  0.00    +0.000 HD
ATOM     19  H   UNL     1       7.360   3.396  17.048  0.00  0.00    +0.000 HD
ENDBRANCH  16  17
BRANCH  16  20
ATOM     20  C   UNL     1       6.289   5.630  15.761  0.00  0.00    +0.000 C 
BRANCH  20  21
ATOM     21  C   UNL     1       7.005   4.895  14.657  0.00  0.00    +0.000 C 
ATOM     22  O   UNL     1       7.932   5.370  14.018  0.00  0.00    +0.000 OA
BRANCH  21  23
ATOM     23  O   UNL     1       6.500   3.670  14.393  0.00  0.00    +0.000 OA
ATOM     24  H   UNL     1       7.156   3.040  14.010  0.00  0.00    +0.000 HD
ENDBRANCH  21  23
ENDBRANCH  20  21
ENDBRANCH  16  20
ENDBRANCH   2  16
TORSDOF 11
ENDMDL
MODEL 5
REMARK VINA RESULT:      -6.2      2.377      6.517
REMARK  Name = 
REMARK  15 active torsions:
REMARK  status: ('A' for Active; 'I' for Inactive)
REMARK    1  A    between atoms: C_1  and  C_2
REMARK    2  A    between atoms: C_2  and  C_3
REMARK    3  A    between atoms: C_3  and  C_4
REMARK    4  A    between atoms: C_3  and  C_5
REMARK    5  A    between atoms: C_5  and  N_6
REMARK    6  A    between atoms: C_5  and  C_15
REMARK    7  A    between atoms: C_7  and  C_9
REMARK    8  A    between atoms: C_9  and  N_10
REMARK    9  A    between atoms: C_9  and  C_11
REMARK   10  A    between atoms: C_11  and  C_12
REMARK   11  A    between atoms: C_12  and  O_14
REMARK   12  A    between atoms: C_15  and  O_17
REMARK   13  A    between atoms: O_17  and  C_18
REMARK   14  A    between atoms: C_18  and  C_19
REMARK   15  A    between atoms: C_18  and  C_20
REMARK                            x       y       z     vdW  Elec       q    Type
REMARK                         _______ _______ _______ _____ _____    ______ ____
ROOT
ATOM      1  N   UNL     1       4.551   4.082  16.012  0.00  0.00    +0.000 N 
ATOM      2  C   UNL     1       4.135   3.732  17.271  0.00  0.00    +0.000 C 
ATOM      3  O   UNL     1       4.896   3.621  18.232  0.00  0.00    +0.000 OA
ATOM      4  H   UNL     1       3.869   4.217  15.270  0.00  0.00    +0.000 HD
ENDROOT
BRANCH   1   5
ATOM      5  C   UNL     1       5.934   4.483  15.722  0.00  0.00    +0.000 C 
BRANCH   5   6
ATOM      6  C   UNL     1       6.389   3.977  14.332  0.00  0.00    +0.000 C 
ATOM      7  C   UNL     1       7.411   4.936  13.710  0.00  0.00    +0.000 C 
BRANCH   6   9
ATOM      8  C   UNL     1       5.617   3.119  12.038  0.00  0.00    +0.000 C 
ATOM      9  C   UNL     1       5.202   3.709  13.380  0.00  0.00    +0.000 C 
ENDBRANCH   6   9
ENDBRANCH   5   6
BRANCH   5  10
ATOM     10  C   UNL     1       6.019   6.009  15.882  0.00  0.00    +0.000 C 
ATOM     11  O   UNL     1       5.116   6.776  15.565  0.00  0.00    +0.000 OA
BRANCH  10  12
ATOM     12  O   UNL     1       7.212   6.377  16.431  0.00  0.00    +0.000 OA
BRANCH  12  13
ATOM     13  C   UNL     1       7.163   6.910  17.770  0.00  0.00    +0.000 C 
ATOM     14  C   UNL     1       7.765   5.908  18.750  0.00  0.00    +0.000 C 
ATOM     15  C   UNL     1       7.971   8.204  17.777  0.00  0.00    +0.000 C 
ENDBRANCH  12  13
ENDBRANCH  10  12
ENDBRANCH   5  10
ENDBRANCH   1   5
BRANCH   2  16
ATOM     16  C   UNL     1       2.621   3.465  17.401  0.00  0.00    +0.000 C 
BRANCH  16  17
ATOM     17  N   UNL     1       2.420   2.060  17.817  0.00  0.00    +0.000 NA
ATOM     18  H   UNL     1       2.975   1.446  17.219  0.00  0.00    +0.000 HD
ATOM     19  H   UNL     1       1.448   1.790  17.668  0.00  0.00    +0.000 HD
ENDBRANCH  16  17
BRANCH  16  20
ATOM     20  C   UNL     1       2.017   4.402  18.442  0.00  0.00    +0.000 C 
BRANCH  20  21
ATOM     21  C   UNL     1       1.755   3.651  19.723  0.00  0.00    +0.000 C 
ATOM     22  O   UNL     1       2.624   3.381  20.538  0.00  0.00    +0.000 OA
BRANCH  21  23
ATOM     23  O   UNL     1       0.473   3.252  19.875  0.00  0.00    +0.000 OA
ATOM     24  H   UNL     1       0.375   2.299  20.113  0.00  0.00    +0.000 HD
ENDBRANCH  21  23
ENDBRANCH  20  21
ENDBRANCH  16  20
ENDBRANCH   2  16
TORSDOF 11
ENDMDL
MODEL 6
REMARK VINA RESULT:      -6.2      2.182      5.060
REMARK  Name = 
REMARK  15 active torsions:
REMARK  status: ('A' for Active; 'I' for Inactive)
REMARK    1  A    between atoms: C_1  and  C_2
REMARK    2  A    between atoms: C_2  and  C_3
REMARK    3  A    between atoms: C_3  and  C_4
REMARK    4  A    between atoms: C_3  and  C_5
REMARK    5  A    between atoms: C_5  and  N_6
REMARK    6  A    between atoms: C_5  and  C_15
REMARK    7  A    between atoms: C_7  and  C_9
REMARK    8  A    between atoms: C_9  and  N_10
REMARK    9  A    between atoms: C_9  and  C_11
REMARK   10  A    between atoms: C_11  and  C_12
REMARK   11  A    between atoms: C_12  and  O_14
REMARK   12  A    between atoms: C_15  and  O_17
REMARK   13  A    between atoms: O_17  and  C_18
REMARK   14  A    between atoms: C_18  and  C_19
REMARK   15  A    between atoms: C_18  and  C_20
REMARK                            x       y       z     vdW  Elec       q    Type
REMARK                         _______ _______ _______ _____ _____    ______ ____
ROOT
ATOM      1  N   UNL     1       2.965   5.018  18.592  0.00  0.00    +0.000 N 
ATOM      2  C   UNL     1       2.127   3.986  18.258  0.00  0.00    +0.000 C 
ATOM      3  O   UNL     1       1.340   4.027  17.312  0.00  0.00    +0.000 OA
ATOM      4  H   UNL     1       3.637   4.905  19.347  0.00  0.00    +0.000 HD
ENDROOT
BRANCH   1   5
ATOM      5  C   UNL     1       3.092   6.228  17.769  0.00  0.00    +0.000 C 
BRANCH   5   6
ATOM      6  C   UNL     1       2.728   7.499  18.574  0.00  0.00    +0.000 C 
ATOM      7  C   UNL     1       2.095   7.128  19.921  0.00  0.00    +0.000 C 
BRANCH   6   9
ATOM      8  C   UNL     1       1.365   9.675  18.585  0.00  0.00    +0.000 C 
ATOM      9  C   UNL     1       1.837   8.475  17.774  0.00  0.00    +0.000 C 
ENDBRANCH   6   9
ENDBRANCH   5   6
BRANCH   5  10
ATOM     10  C   UNL     1       4.515   6.250  17.190  0.00  0.00    +0.000 C 
ATOM     11  O   UNL     1       5.284   7.197  17.313  0.00  0.00    +0.000 OA
BRANCH  10  12
ATOM     12  O   UNL     1       4.797   5.081  16.547  0.00  0.00    +0.000 OA
BRANCH  12  13
ATOM     13  C   UNL     1       5.949   5.090  15.678  0.00  0.00    +0.000 C 
ATOM     14  C   UNL     1       7.142   4.462  16.392  0.00  0.00    +0.000 C 
ATOM     15  C   UNL     1       5.591   4.279  14.436  0.00  0.00    +0.000 C 
ENDBRANCH  12  13
ENDBRANCH  10  12
ENDBRANCH   5  10
ENDBRANCH   1   5
BRANCH   2  16
ATOM     16  C   UNL     1       2.227   2.749  19.177  0.00  0.00    +0.000 C 
BRANCH  16  17
ATOM     17  N   UNL     1       2.709   1.602  18.378  0.00  0.00    +0.000 NA
ATOM     18  H   UNL     1       3.102   1.942  17.498  0.00  0.00    +0.000 HD
ATOM     19  H   UNL     1       1.924   1.005  18.120  0.00  0.00    +0.000 HD
ENDBRANCH  16  17
BRANCH  16  20
ATOM     20  C   UNL     1       3.203   3.029  20.317  0.00  0.00    +0.000 C 
BRANCH  20  21
ATOM     21  C   UNL     1       4.564   2.477  19.979  0.00  0.00    +0.000 C 
ATOM     22  O   UNL     1       5.052   1.498  20.524  0.00  0.00    +0.000 OA
BRANCH  21  23
ATOM     23  O   UNL     1       5.232   3.191  19.047  0.00  0.00    +0.000 OA
ATOM     24  H   UNL     1       4.654   3.567  18.339  0.00  0.00    +0.000 HD
ENDBRANCH  21  23
ENDBRANCH  20  21
ENDBRANCH  16  20
ENDBRANCH   2  16
TORSDOF 11
ENDMDL
MODEL 7
REMARK VINA RESULT:      -6.2      1.978      5.724
REMARK  Name = 
REMARK  15 active torsions:
REMARK  status: ('A' for Active; 'I' for Inactive)
REMARK    1  A    between atoms: C_1  and  C_2
REMARK    2  A    between atoms: C_2  and  C_3
REMARK    3  A    between atoms: C_3  and  C_4
REMARK    4  A    between atoms: C_3  and  C_5
REMARK    5  A    between atoms: C_5  and  N_6
REMARK    6  A    between atoms: C_5  and  C_15
REMARK    7  A    between atoms: C_7  and  C_9
REMARK    8  A    between atoms: C_9  and  N_10
REMARK    9  A    between atoms: C_9  and  C_11
REMARK   10  A    between atoms: C_11  and  C_12
REMARK   11  A    between atoms: C_12  and  O_14
REMARK   12  A    between atoms: C_15  and  O_17
REMARK   13  A    between atoms: O_17  and  C_18
REMARK   14  A    between atoms: C_18  and  C_19
REMARK   15  A    between atoms: C_18  and  C_20
REMARK                            x       y       z     vdW  Elec       q    Type
REMARK                         _______ _______ _______ _____ _____    ______ ____
ROOT
ATOM      1  N   UNL     1       5.035   3.618  17.805  0.00  0.00    +0.000 N 
ATOM      2  C   UNL     1       3.780   3.066  17.801  0.00  0.00    +0.000 C 
ATOM      3  O   UNL     1       2.869   3.455  17.071  0.00  0.00    +0.000 OA
ATOM      4  H   UNL     1       5.766   3.216  18.388  0.00  0.00    +0.000 HD
ENDROOT
BRANCH   1   5
ATOM      5  C   UNL     1       5.447   4.648  16.842  0.00  0.00    +0.000 C 
BRANCH   5   6
ATOM      6  C   UNL     1       5.479   6.051  17.495  0.00  0.00    +0.000 C 
ATOM      7  C   UNL     1       5.645   5.940  19.016  0.00  0.00    +0.000 C 
BRANCH   6   9
ATOM      8  C   UNL     1       3.141   6.883  18.156  0.00  0.00    +0.000 C 
ATOM      9  C   UNL     1       4.253   6.912  17.115  0.00  0.00    +0.000 C 
ENDBRANCH   6   9
ENDBRANCH   5   6
BRANCH   5  10
ATOM     10  C   UNL     1       6.793   4.214  16.244  0.00  0.00    +0.000 C 
ATOM     11  O   UNL     1       7.874   4.409  16.791  0.00  0.00    +0.000 OA
BRANCH  10  12
ATOM     12  O   UNL     1       6.615   3.579  15.051  0.00  0.00    +0.000 OA
BRANCH  12  13
ATOM     13  C   UNL     1       6.318   4.419  13.916  0.00  0.00    +0.000 C 
ATOM     14  C   UNL     1       7.588   5.111  13.436  0.00  0.00    +0.000 C 
ATOM     15  C   UNL     1       5.758   3.521  12.816  0.00  0.00    +0.000 C 
ENDBRANCH  12  13
ENDBRANCH  10  12
ENDBRANCH   5  10
ENDBRANCH   1   5
BRANCH   2  16
ATOM     16  C   UNL     1       3.579   1.911  18.806  0.00  0.00    +0.000 C 
BRANCH  16  17
ATOM     17  N   UNL     1       4.753   1.850  19.701  0.00  0.00    +0.000 NA
ATOM     18  H   UNL     1       4.915   0.881  19.983  0.00  0.00    +0.000 HD
ATOM     19  H   UNL     1       4.560   2.361  20.562  0.00  0.00    +0.000 HD
ENDBRANCH  16  17
BRANCH  16  20
ATOM     20  C   UNL     1       2.316   2.155  19.628  0.00  0.00    +0.000 C 
BRANCH  20  21
ATOM     21  C   UNL     1       2.621   3.079  20.780  0.00  0.00    +0.000 C 
ATOM     22  O   UNL     1       2.758   4.287  20.660  0.00  0.00    +0.000 OA
BRANCH  21  23
ATOM     23  O   UNL     1       2.783   2.448  21.963  0.00  0.00    +0.000 OA
ATOM     24  H   UNL     1       2.047   2.602  22.604  0.00  0.00    +0.000 HD
ENDBRANCH  21  23
ENDBRANCH  20  21
ENDBRANCH  16  20
ENDBRANCH   2  16
TORSDOF 11
ENDMDL
MODEL 8
REMARK VINA RESULT:      -6.1      0.881      1.302
REMARK  Name = 
REMARK  15 active torsions:
REMARK  status: ('A' for Active; 'I' for Inactive)
REMARK    1  A    between atoms: C_1  and  C_2
REMARK    2  A    between atoms: C_2  and  C_3
REMARK    3  A    between atoms: C_3  and  C_4
REMARK    4  A    between atoms: C_3  and  C_5
REMARK    5  A    between atoms: C_5  and  N_6
REMARK    6  A    between atoms: C_5  and  C_15
REMARK    7  A    between atoms: C_7  and  C_9
REMARK    8  A    between atoms: C_9  and  N_10
REMARK    9  A    between atoms: C_9  and  C_11
REMARK   10  A    between atoms: C_11  and  C_12
REMARK   11  A    between atoms: C_12  and  O_14
REMARK   12  A    between atoms: C_15  and  O_17
REMARK   13  A    between atoms: O_17  and  C_18
REMARK   14  A    between atoms: C_18  and  C_19
REMARK   15  A    between atoms: C_18  and  C_20
REMARK                            x       y       z     vdW  Elec       q    Type
REMARK                         _______ _______ _______ _____ _____    ______ ____
ROOT
ATOM      1  N   UNL     1       4.605   5.334  18.082  0.00  0.00    +0.000 N 
ATOM      2  C   UNL     1       5.891   4.935  18.342  0.00  0.00    +0.000 C 
ATOM      3  O   UNL     1       6.217   4.313  19.353  0.00  0.00    +0.000 OA
ATOM      4  H   UNL     1       4.384   5.794  17.201  0.00  0.00    +0.000 HD
ENDROOT
BRANCH   1   5
ATOM      5  C   UNL     1       3.471   4.943  18.929  0.00  0.00    +0.000 C 
BRANCH   5   6
ATOM      6  C   UNL     1       2.371   6.033  18.938  0.00  0.00    +0.000 C 
ATOM      7  C   UNL     1       2.824   7.270  18.154  0.00  0.00    +0.000 C 
BRANCH   6   9
ATOM      8  C   UNL     1       1.649   7.887  20.561  0.00  0.00    +0.000 C 
ATOM      9  C   UNL     1       1.910   6.399  20.366  0.00  0.00    +0.000 C 
ENDBRANCH   6   9
ENDBRANCH   5   6
BRANCH   5  10
ATOM     10  C   UNL     1       2.978   3.572  18.441  0.00  0.00    +0.000 C 
ATOM     11  O   UNL     1       2.547   3.368  17.311  0.00  0.00    +0.000 OA
BRANCH  10  12
ATOM     12  O   UNL     1       3.102   2.632  19.421  0.00  0.00    +0.000 OA
BRANCH  12  13
ATOM     13  C   UNL     1       1.897   2.287  20.134  0.00  0.00    +0.000 C 
ATOM     14  C   UNL     1       1.916   2.915  21.523  0.00  0.00    +0.000 C 
ATOM     15  C   UNL     1       0.718   2.825  19.328  0.00  0.00    +0.000 C 
ENDBRANCH  12  13
ENDBRANCH  10  12
ENDBRANCH   5  10
ENDBRANCH   1   5
BRANCH   2  16
ATOM     16  C   UNL     1       6.924   5.341  17.270  0.00  0.00    +0.000 C 
BRANCH  16  17
ATOM     17  N   UNL     1       7.869   4.222  17.073  0.00  0.00    +0.000 NA
ATOM     18  H   UNL     1       8.723   4.572  16.635  0.00  0.00    +0.000 HD
ATOM     19  H   UNL     1       7.476   3.547  16.417  0.00  0.00    +0.000 HD
ENDBRANCH  16  17
BRANCH  16  20
ATOM     20  C   UNL     1       6.212   5.651  15.956  0.00  0.00    +0.000 C 
BRANCH  20  21
ATOM     21  C   UNL     1       6.836   4.863  14.833  0.00  0.00    +0.000 C 
ATOM     22  O   UNL     1       6.440   3.762  14.477  0.00  0.00    +0.000 OA
BRANCH  21  23
ATOM     23  O   UNL     1       7.913   5.456  14.275  0.00  0.00    +0.000 OA
ATOM     24  H   UNL     1       8.698   5.507  14.873  0.00  0.00    +0.000 HD
ENDBRANCH  21  23
ENDBRANCH  20  21
ENDBRANCH  16  20
ENDBRANCH   2  16
TORSDOF 11
ENDMDL
MODEL 9
REMARK VINA RESULT:      -6.1      2.051      5.043
REMARK  Name = 
REMARK  15 active torsions:
REMARK  status: ('A' for Active; 'I' for Inactive)
REMARK    1  A    between atoms: C_1  and  C_2
REMARK    2  A    between atoms: C_2  and  C_3
REMARK    3  A    between atoms: C_3  and  C_4
REMARK    4  A    between atoms: C_3  and  C_5
REMARK    5  A    between atoms: C_5  and  N_6
REMARK    6  A    between atoms: C_5  and  C_15
REMARK    7  A    between atoms: C_7  and  C_9
REMARK    8  A    between atoms: C_9  and  N_10
REMARK    9  A    between atoms: C_9  and  C_11
REMARK   10  A    between atoms: C_11  and  C_12
REMARK   11  A    between atoms: C_12  and  O_14
REMARK   12  A    between atoms: C_15  and  O_17
REMARK   13  A    between atoms: O_17  and  C_18
REMARK   14  A    between atoms: C_18  and  C_19
REMARK   15  A    between atoms: C_18  and  C_20
REMARK                            x       y       z     vdW  Elec       q    Type
REMARK                         _______ _______ _______ _____ _____    ______ ____
ROOT
ATOM      1  N   UNL     1       3.324   4.479  18.202  0.00  0.00    +0.000 N 
ATOM      2  C   UNL     1       2.371   3.500  18.089  0.00  0.00    +0.000 C 
ATOM      3  O   UNL     1       1.329   3.636  17.447  0.00  0.00    +0.000 OA
ATOM      4  H   UNL     1       4.192   4.289  18.696  0.00  0.00    +0.000 HD
ENDROOT
BRANCH   1   5
ATOM      5  C   UNL     1       3.247   5.744  17.459  0.00  0.00    +0.000 C 
BRANCH   5   6
ATOM      6  C   UNL     1       2.448   6.812  18.243  0.00  0.00    +0.000 C 
ATOM      7  C   UNL     1       2.828   8.224  17.782  0.00  0.00    +0.000 C 
BRANCH   6   9
ATOM      8  C   UNL     1       1.682   7.587  20.568  0.00  0.00    +0.000 C 
ATOM      9  C   UNL     1       2.587   6.654  19.773  0.00  0.00    +0.000 C 
ENDBRANCH   6   9
ENDBRANCH   5   6
BRANCH   5  10
ATOM     10  C   UNL     1       4.684   6.171  17.120  0.00  0.00    +0.000 C 
ATOM     11  O   UNL     1       4.985   6.800  16.111  0.00  0.00    +0.000 OA
BRANCH  10  12
ATOM     12  O   UNL     1       5.553   5.772  18.092  0.00  0.00    +0.000 OA
BRANCH  12  13
ATOM     13  C   UNL     1       6.957   5.861  17.772  0.00  0.00    +0.000 C 
ATOM     14  C   UNL     1       7.771   6.033  19.050  0.00  0.00    +0.000 C 
ATOM     15  C   UNL     1       7.348   4.566  17.067  0.00  0.00    +0.000 C 
ENDBRANCH  12  13
ENDBRANCH  10  12
ENDBRANCH   5  10
ENDBRANCH   1   5
BRANCH   2  16
ATOM     16  C   UNL     1       2.690   2.195  18.849  0.00  0.00    +0.000 C 
BRANCH  16  17
ATOM     17  N   UNL     1       3.744   1.463  18.114  0.00  0.00    +0.000 NA
ATOM     18  H   UNL     1       4.603   2.015  18.113  0.00  0.00    +0.000 HD
ATOM     19  H   UNL     1       3.477   1.362  17.135  0.00  0.00    +0.000 HD
ENDBRANCH  16  17
BRANCH  16  20
ATOM     20  C   UNL     1       3.178   2.523  20.257  0.00  0.00    +0.000 C 
BRANCH  20  21
ATOM     21  C   UNL     1       4.666   2.302  20.353  0.00  0.00    +0.000 C 
ATOM     22  O   UNL     1       5.180   1.454  21.067  0.00  0.00    +0.000 OA
BRANCH  21  23
ATOM     23  O   UNL     1       5.399   3.163  19.613  0.00  0.00    +0.000 OA
ATOM     24  H   UNL     1       6.326   3.278  19.933  0.00  0.00    +0.000 HD
ENDBRANCH  21  23
ENDBRANCH  20  21
ENDBRANCH  16  20
ENDBRANCH   2  16
TORSDOF 11
ENDMDL
