MODEL 1
REMARK VINA RESULT:      -8.4      0.000      0.000
REMARK  Name = 
REMARK  7 active torsions:
REMARK  status: ('A' for Active; 'I' for Inactive)
REMARK    1  A    between atoms: C_1  and  C_2
REMARK    2  A    between atoms: CA_4  and  C_5
REMARK    3  A    between atoms: C_5  and  O_6
REMARK    4  A    between atoms: C_11  and  C_12
REMARK    5  A    between atoms: C_15  and  O_16
REMARK    6  A    between atoms: O_16  and  C_17
REMARK    7  A    between atoms: C_21  and  C_22
REMARK                            x       y       z     vdW  Elec       q    Type
REMARK                         _______ _______ _______ _____ _____    ______ ____
ROOT
ATOM      1  C   UNL     1       3.473   6.309  18.066  0.00  0.00    +0.000 A 
ATOM      2  C   UNL     1       3.143   5.010  17.663  0.00  0.00    +0.000 A 
ATOM      3  C   UNL     1       4.062   4.251  16.932  0.00  0.00    +0.000 A 
ATOM      4  C   UNL     1       5.309   4.781  16.593  0.00  0.00    +0.000 A 
ATOM      5  C   UNL     1       5.647   6.069  17.011  0.00  0.00    +0.000 A 
ATOM      6  C   UNL     1       4.723   6.839  17.721  0.00  0.00    +0.000 A 
ENDROOT
BRANCH   1  15
ATOM      7  C   UNL     1       2.645   5.359  20.730  0.00  0.00    +0.000 C 
ATOM      8  C   UNL     1       2.187   6.673  20.141  0.00  0.00    +0.000 A 
ATOM      9  N   UNL     1       1.366   7.445  20.936  0.00  0.00    +0.000 N 
ATOM     10  CA  UNL     1       0.905   8.701  20.584  0.00  0.00    +0.000 A 
ATOM     11  C   UNL     1       1.200   9.229  19.381  0.00  0.00    +0.000 A 
ATOM     12 CL   UNL     1       0.682  10.789  18.867  0.00  0.00    +0.000 Cl
ATOM     13  C   UNL     1       2.056   8.435  18.439  0.00  0.00    +0.000 A 
ATOM     14  O   UNL     1       2.348   8.861  17.322  0.00  0.00    +0.000 OA
ATOM     15  C   UNL     1       2.562   7.096  18.911  0.00  0.00    +0.000 A 
ATOM     16  H   UNL     1       1.156   7.139  21.887  0.00  0.00    +0.000 HD
BRANCH  10  17
ATOM     17  C   UNL     1       0.064   9.407  21.625  0.00  0.00    +0.000 C 
BRANCH  17  18
ATOM     18  O   UNL     1       0.929  10.091  22.537  0.00  0.00    +0.000 OA
ATOM     19  H   UNL     1       0.355  10.438  23.244  0.00  0.00    +0.000 HD
ENDBRANCH  17  18
ENDBRANCH  10  17
ENDBRANCH   1  15
BRANCH   4  20
ATOM     20  O   UNL     1       6.165   3.928  15.934  0.00  0.00    +0.000 OA
BRANCH  20  21
ATOM     21  C   UNL     1       6.416   4.100  14.592  0.00  0.00    +0.000 A 
ATOM     22  C   UNL     1       7.482   4.842  14.081  0.00  0.00    +0.000 A 
ATOM     23  C   UNL     1       7.642   4.977  12.702  0.00  0.00    +0.000 A 
ATOM     24  C   UNL     1       6.710   4.416  11.830  0.00  0.00    +0.000 A 
ATOM     25  C   UNL     1       5.602   3.714  12.328  0.00  0.00    +0.000 A 
ATOM     26  C   UNL     1       5.470   3.556  13.718  0.00  0.00    +0.000 A 
BRANCH  25  27
ATOM     27  C   UNL     1       4.559   3.143  11.400  0.00  0.00    +0.000 C 
ATOM     28  F   UNL     1       4.330   3.914  10.298  0.00  0.00    +0.000 F 
ATOM     29  F   UNL     1       4.896   1.911  10.927  0.00  0.00    +0.000 F 
ATOM     30  F   UNL     1       3.348   2.994  12.004  0.00  0.00    +0.000 F 
ENDBRANCH  25  27
ENDBRANCH  20  21
ENDBRANCH   4  20
TORSDOF 6
ENDMDL
MODEL 2
REMARK VINA RESULT:      -8.3      5.375      6.978
REMARK  Name = 
REMARK  7 active torsions:
REMARK  status: ('A' for Active; 'I' for Inactive)
REMARK    1  A    between atoms: C_1  and  C_2
REMARK    2  A    between atoms: CA_4  and  C_5
REMARK    3  A    between atoms: C_5  and  O_6
REMARK    4  A    between atoms: C_11  and  C_12
REMARK    5  A    between atoms: C_15  and  O_16
REMARK    6  A    between atoms: O_16  and  C_17
REMARK    7  A    between atoms: C_21  and  C_22
REMARK                            x       y       z     vdW  Elec       q    Type
REMARK                         _______ _______ _______ _____ _____    ______ ____
ROOT
ATOM      1  C   UNL     1       0.820   9.985  19.425  0.00  0.00    +0.000 A 
ATOM      2  C   UNL     1       1.368   9.824  18.147  0.00  0.00    +0.000 A 
ATOM      3  C   UNL     1       2.126   8.687  17.851  0.00  0.00    +0.000 A 
ATOM      4  C   UNL     1       2.348   7.709  18.823  0.00  0.00    +0.000 A 
ATOM      5  C   UNL     1       1.786   7.858  20.092  0.00  0.00    +0.000 A 
ATOM      6  C   UNL     1       1.048   9.003  20.399  0.00  0.00    +0.000 A 
ENDROOT
BRANCH   1  15
ATOM      7  C   UNL     1      -1.883  10.208  18.274  0.00  0.00    +0.000 C 
ATOM      8  C   UNL     1      -1.302  11.229  19.224  0.00  0.00    +0.000 A 
ATOM      9  N   UNL     1      -2.123  12.284  19.562  0.00  0.00    +0.000 N 
ATOM     10  CA  UNL     1      -1.779  13.274  20.466  0.00  0.00    +0.000 A 
ATOM     11  C   UNL     1      -0.561  13.289  21.039  0.00  0.00    +0.000 A 
ATOM     12 CL   UNL     1      -0.055  14.472  22.183  0.00  0.00    +0.000 Cl
ATOM     13  C   UNL     1       0.408  12.197  20.692  0.00  0.00    +0.000 A 
ATOM     14  O   UNL     1       1.540  12.165  21.174  0.00  0.00    +0.000 OA
ATOM     15  C   UNL     1      -0.054  11.125  19.738  0.00  0.00    +0.000 A 
ATOM     16  H   UNL     1      -3.085  12.302  19.220  0.00  0.00    +0.000 HD
BRANCH  10  17
ATOM     17  C   UNL     1      -2.847  14.309  20.743  0.00  0.00    +0.000 C 
BRANCH  17  18
ATOM     18  O   UNL     1      -2.469  15.544  20.127  0.00  0.00    +0.000 OA
ATOM     19  H   UNL     1      -2.291  16.166  20.855  0.00  0.00    +0.000 HD
ENDBRANCH  17  18
ENDBRANCH  10  17
ENDBRANCH   1  15
BRANCH   4  20
ATOM     20  O   UNL     1       3.047   6.598  18.408  0.00  0.00    +0.000 OA
BRANCH  20  21
ATOM     21  C   UNL     1       2.523   5.340  18.594  0.00  0.00    +0.000 A 
ATOM     22  C   UNL     1       1.800   4.639  17.628  0.00  0.00    +0.000 A 
ATOM     23  C   UNL     1       1.288   3.375  17.917  0.00  0.00    +0.000 A 
ATOM     24  C   UNL     1       1.453   2.827  19.190  0.00  0.00    +0.000 A 
ATOM     25  C   UNL     1       2.130   3.541  20.190  0.00  0.00    +0.000 A 
ATOM     26  C   UNL     1       2.668   4.800  19.876  0.00  0.00    +0.000 A 
BRANCH  25  27
ATOM     27  C   UNL     1       2.273   2.984  21.584  0.00  0.00    +0.000 C 
ATOM     28  F   UNL     1       1.177   2.293  22.010  0.00  0.00    +0.000 F 
ATOM     29  F   UNL     1       3.323   2.124  21.700  0.00  0.00    +0.000 F 
ATOM     30  F   UNL     1       2.481   3.955  22.515  0.00  0.00    +0.000 F 
ENDBRANCH  25  27
ENDBRANCH  20  21
ENDBRANCH   4  20
TORSDOF 6
ENDMDL
MODEL 3
REMARK VINA RESULT:      -8.2      5.233      8.819
REMARK  Name = 
REMARK  7 active torsions:
REMARK  status: ('A' for Active; 'I' for Inactive)
REMARK    1  A    between atoms: C_1  and  C_2
REMARK    2  A    between atoms: CA_4  and  C_5
REMARK    3  A    between atoms: C_5  and  O_6
REMARK    4  A    between atoms: C_11  and  C_12
REMARK    5  A    between atoms: C_15  and  O_16
REMARK    6  A    between atoms: O_16  and  C_17
REMARK    7  A    between atoms: C_21  and  C_22
REMARK                            x       y       z     vdW  Elec       q    Type
REMARK                         _______ _______ _______ _____ _____    ______ ____
ROOT
ATOM      1  C   UNL     1       2.183   7.435  19.139  0.00  0.00    +0.000 A 
ATOM      2  C   UNL     1       1.706   8.068  20.292  0.00  0.00    +0.000 A 
ATOM      3  C   UNL     1       1.236   9.383  20.223  0.00  0.00    +0.000 A 
ATOM      4  C   UNL     1       1.243  10.075  19.010  0.00  0.00    +0.000 A 
ATOM      5  C   UNL     1       1.700   9.438  17.855  0.00  0.00    +0.000 A 
ATOM      6  C   UNL     1       2.192   8.133  17.925  0.00  0.00    +0.000 A 
ENDROOT
BRANCH   1  15
ATOM      7  C   UNL     1       4.524   6.496  17.613  0.00  0.00    +0.000 C 
ATOM      8  C   UNL     1       3.681   5.587  18.478  0.00  0.00    +0.000 A 
ATOM      9  N   UNL     1       4.081   4.270  18.549  0.00  0.00    +0.000 N 
ATOM     10  CA  UNL     1       3.467   3.315  19.340  0.00  0.00    +0.000 A 
ATOM     11  C   UNL     1       2.374   3.622  20.064  0.00  0.00    +0.000 A 
ATOM     12 CL   UNL     1       1.557   2.502  21.086  0.00  0.00    +0.000 Cl
ATOM     13  C   UNL     1       1.850   5.027  20.011  0.00  0.00    +0.000 A 
ATOM     14  O   UNL     1       0.848   5.363  20.641  0.00  0.00    +0.000 OA
ATOM     15  C   UNL     1       2.600   6.024  19.166  0.00  0.00    +0.000 A 
ATOM     16  H   UNL     1       4.941   3.980  18.080  0.00  0.00    +0.000 HD
BRANCH  10  17
ATOM     17  C   UNL     1       4.099   1.941  19.320  0.00  0.00    +0.000 C 
BRANCH  17  18
ATOM     18  O   UNL     1       5.202   1.922  20.232  0.00  0.00    +0.000 OA
ATOM     19  H   UNL     1       5.351   0.985  20.455  0.00  0.00    +0.000 HD
ENDBRANCH  17  18
ENDBRANCH  10  17
ENDBRANCH   1  15
BRANCH   4  20
ATOM     20  O   UNL     1       0.695  11.338  19.036  0.00  0.00    +0.000 OA
BRANCH  20  21
ATOM     21  C   UNL     1      -0.668  11.504  18.935  0.00  0.00    +0.000 A 
ATOM     22  C   UNL     1      -1.476  12.004  19.957  0.00  0.00    +0.000 A 
ATOM     23  C   UNL     1      -2.853  12.116  19.768  0.00  0.00    +0.000 A 
ATOM     24  C   UNL     1      -3.434  11.681  18.577  0.00  0.00    +0.000 A 
ATOM     25  C   UNL     1      -2.643  11.125  17.561  0.00  0.00    +0.000 A 
ATOM     26  C   UNL     1      -1.253  11.048  17.750  0.00  0.00    +0.000 A 
BRANCH  25  27
ATOM     27  C   UNL     1      -3.262  10.605  16.287  0.00  0.00    +0.000 C 
ATOM     28  F   UNL     1      -4.581  10.925  16.152  0.00  0.00    +0.000 F 
ATOM     29  F   UNL     1      -2.648  11.086  15.171  0.00  0.00    +0.000 F 
ATOM     30  F   UNL     1      -3.200   9.248  16.193  0.00  0.00    +0.000 F 
ENDBRANCH  25  27
ENDBRANCH  20  21
ENDBRANCH   4  20
TORSDOF 6
ENDMDL
MODEL 4
REMARK VINA RESULT:      -8.1      4.266      6.056
REMARK  Name = 
REMARK  7 active torsions:
REMARK  status: ('A' for Active; 'I' for Inactive)
REMARK    1  A    between atoms: C_1  and  C_2
REMARK    2  A    between atoms: CA_4  and  C_5
REMARK    3  A    between atoms: C_5  and  O_6
REMARK    4  A    between atoms: C_11  and  C_12
REMARK    5  A    between atoms: C_15  and  O_16
REMARK    6  A    between atoms: O_16  and  C_17
REMARK    7  A    between atoms: C_21  and  C_22
REMARK                            x       y       z     vdW  Elec       q    Type
REMARK                         _______ _______ _______ _____ _____    ______ ____
ROOT
ATOM      1  C   UNL     1       0.769   9.539  19.274  0.00  0.00    +0.000 A 
ATOM      2  C   UNL     1       1.125   8.538  20.186  0.00  0.00    +0.000 A 
ATOM      3  C   UNL     1       2.119   7.613  19.854  0.00  0.00    +0.000 A 
ATOM      4  C   UNL     1       2.760   7.674  18.614  0.00  0.00    +0.000 A 
ATOM      5  C   UNL     1       2.420   8.683  17.711  0.00  0.00    +0.000 A 
ATOM      6  C   UNL     1       1.411   9.595  18.030  0.00  0.00    +0.000 A 
ENDROOT
BRANCH   1  15
ATOM      7  C   UNL     1      -1.697   9.929  17.709  0.00  0.00    +0.000 C 
ATOM      8  C   UNL     1      -1.350  10.756  18.926  0.00  0.00    +0.000 A 
ATOM      9  N   UNL     1      -2.274  11.707  19.301  0.00  0.00    +0.000 N 
ATOM     10  CA  UNL     1      -2.150  12.508  20.423  0.00  0.00    +0.000 A 
ATOM     11  C   UNL     1      -1.054  12.434  21.202  0.00  0.00    +0.000 A 
ATOM     12 CL   UNL     1      -0.825  13.380  22.623  0.00  0.00    +0.000 Cl
ATOM     13  C   UNL     1       0.019  11.450  20.839  0.00  0.00    +0.000 A 
ATOM     14  O   UNL     1       1.048  11.348  21.506  0.00  0.00    +0.000 OA
ATOM     15  C   UNL     1      -0.208  10.578  19.631  0.00  0.00    +0.000 A 
ATOM     16  H   UNL     1      -3.160  11.773  18.798  0.00  0.00    +0.000 HD
BRANCH  10  17
ATOM     17  C   UNL     1      -3.306  13.447  20.690  0.00  0.00    +0.000 C 
BRANCH  17  18
ATOM     18  O   UNL     1      -4.499  12.889  20.132  0.00  0.00    +0.000 OA
ATOM     19  H   UNL     1      -5.057  13.645  19.877  0.00  0.00    +0.000 HD
ENDBRANCH  17  18
ENDBRANCH  10  17
ENDBRANCH   1  15
BRANCH   4  20
ATOM     20  O   UNL     1       3.770   6.761  18.415  0.00  0.00    +0.000 OA
BRANCH  20  21
ATOM     21  C   UNL     1       3.471   5.453  18.107  0.00  0.00    +0.000 A 
ATOM     22  C   UNL     1       4.009   4.758  17.023  0.00  0.00    +0.000 A 
ATOM     23  C   UNL     1       3.628   3.439  16.779  0.00  0.00    +0.000 A 
ATOM     24  C   UNL     1       2.670   2.826  17.586  0.00  0.00    +0.000 A 
ATOM     25  C   UNL     1       2.079   3.528  18.647  0.00  0.00    +0.000 A 
ATOM     26  C   UNL     1       2.495   4.846  18.902  0.00  0.00    +0.000 A 
BRANCH  25  27
ATOM     27  C   UNL     1       1.005   2.896  19.498  0.00  0.00    +0.000 C 
ATOM     28  F   UNL     1       0.091   2.183  18.781  0.00  0.00    +0.000 F 
ATOM     29  F   UNL     1       1.510   2.030  20.420  0.00  0.00    +0.000 F 
ATOM     30  F   UNL     1       0.288   3.815  20.201  0.00  0.00    +0.000 F 
ENDBRANCH  25  27
ENDBRANCH  20  21
ENDBRANCH   4  20
TORSDOF 6
ENDMDL
MODEL 5
REMARK VINA RESULT:      -8.0      5.392      8.841
REMARK  Name = 
REMARK  7 active torsions:
REMARK  status: ('A' for Active; 'I' for Inactive)
REMARK    1  A    between atoms: C_1  and  C_2
REMARK    2  A    between atoms: CA_4  and  C_5
REMARK    3  A    between atoms: C_5  and  O_6
REMARK    4  A    between atoms: C_11  and  C_12
REMARK    5  A    between atoms: C_15  and  O_16
REMARK    6  A    between atoms: O_16  and  C_17
REMARK    7  A    between atoms: C_21  and  C_22
REMARK                            x       y       z     vdW  Elec       q    Type
REMARK                         _______ _______ _______ _____ _____    ______ ____
ROOT
ATOM      1  C   UNL     1       2.228   7.027  19.238  0.00  0.00    +0.000 A 
ATOM      2  C   UNL     1       2.256   7.686  18.004  0.00  0.00    +0.000 A 
ATOM      3  C   UNL     1       1.785   8.998  17.902  0.00  0.00    +0.000 A 
ATOM      4  C   UNL     1       1.279   9.659  19.023  0.00  0.00    +0.000 A 
ATOM      5  C   UNL     1       1.268   9.011  20.260  0.00  0.00    +0.000 A 
ATOM      6  C   UNL     1       1.717   7.692  20.360  0.00  0.00    +0.000 A 
ENDROOT
BRANCH   1  15
ATOM      7  C   UNL     1       4.818   6.308  18.028  0.00  0.00    +0.000 C 
ATOM      8  C   UNL     1       3.994   5.346  18.851  0.00  0.00    +0.000 A 
ATOM      9  N   UNL     1       4.533   4.091  19.044  0.00  0.00    +0.000 N 
ATOM     10  CA  UNL     1       3.948   3.107  19.821  0.00  0.00    +0.000 A 
ATOM     11  C   UNL     1       2.752   3.314  20.405  0.00  0.00    +0.000 A 
ATOM     12 CL   UNL     1       1.960   2.152  21.400  0.00  0.00    +0.000 Cl
ATOM     13  C   UNL     1       2.078   4.641  20.212  0.00  0.00    +0.000 A 
ATOM     14  O   UNL     1       0.980   4.882  20.711  0.00  0.00    +0.000 OA
ATOM     15  C   UNL     1       2.799   5.680  19.393  0.00  0.00    +0.000 A 
ATOM     16  H   UNL     1       5.467   3.886  18.687  0.00  0.00    +0.000 HD
BRANCH  10  17
ATOM     17  C   UNL     1       4.732   1.820  19.951  0.00  0.00    +0.000 C 
BRANCH  17  18
ATOM     18  O   UNL     1       5.219   1.705  21.291  0.00  0.00    +0.000 OA
ATOM     19  H   UNL     1       4.472   1.372  21.821  0.00  0.00    +0.000 HD
ENDBRANCH  17  18
ENDBRANCH  10  17
ENDBRANCH   1  15
BRANCH   4  20
ATOM     20  O   UNL     1       0.906  10.970  18.830  0.00  0.00    +0.000 OA
BRANCH  20  21
ATOM     21  C   UNL     1      -0.425  11.318  18.829  0.00  0.00    +0.000 A 
ATOM     22  C   UNL     1      -1.073  11.953  19.889  0.00  0.00    +0.000 A 
ATOM     23  C   UNL     1      -2.434  12.247  19.803  0.00  0.00    +0.000 A 
ATOM     24  C   UNL     1      -3.163  11.861  18.679  0.00  0.00    +0.000 A 
ATOM     25  C   UNL     1      -2.540  11.174  17.627  0.00  0.00    +0.000 A 
ATOM     26  C   UNL     1      -1.162  10.912  17.712  0.00  0.00    +0.000 A 
BRANCH  25  27
ATOM     27  C   UNL     1      -3.325  10.706  16.427  0.00  0.00    +0.000 C 
ATOM     28  F   UNL     1      -3.310   9.353  16.259  0.00  0.00    +0.000 F 
ATOM     29  F   UNL     1      -4.640  11.058  16.492  0.00  0.00    +0.000 F 
ATOM     30  F   UNL     1      -2.856  11.229  15.260  0.00  0.00    +0.000 F 
ENDBRANCH  25  27
ENDBRANCH  20  21
ENDBRANCH   4  20
TORSDOF 6
ENDMDL
MODEL 6
REMARK VINA RESULT:      -8.0      4.043      5.884
REMARK  Name = 
REMARK  7 active torsions:
REMARK  status: ('A' for Active; 'I' for Inactive)
REMARK    1  A    between atoms: C_1  and  C_2
REMARK    2  A    between atoms: CA_4  and  C_5
REMARK    3  A    between atoms: C_5  and  O_6
REMARK    4  A    between atoms: C_11  and  C_12
REMARK    5  A    between atoms: C_15  and  O_16
REMARK    6  A    between atoms: O_16  and  C_17
REMARK    7  A    between atoms: C_21  and  C_22
REMARK                            x       y       z     vdW  Elec       q    Type
REMARK                         _______ _______ _______ _____ _____    ______ ____
ROOT
ATOM      1  C   UNL     1       0.962   9.517  19.755  0.00  0.00    +0.000 A 
ATOM      2  C   UNL     1       0.823   8.662  20.855  0.00  0.00    +0.000 A 
ATOM      3  C   UNL     1       1.445   7.409  20.848  0.00  0.00    +0.000 A 
ATOM      4  C   UNL     1       2.201   6.999  19.748  0.00  0.00    +0.000 A 
ATOM      5  C   UNL     1       2.356   7.858  18.658  0.00  0.00    +0.000 A 
ATOM      6  C   UNL     1       1.718   9.100  18.651  0.00  0.00    +0.000 A 
ENDROOT
BRANCH   1  15
ATOM      7  C   UNL     1      -1.426  10.202  18.169  0.00  0.00    +0.000 C 
ATOM      8  C   UNL     1      -0.710  11.193  19.057  0.00  0.00    +0.000 A 
ATOM      9  N   UNL     1      -1.252  12.459  19.120  0.00  0.00    +0.000 N 
ATOM     10  CA  UNL     1      -0.766  13.472  19.928  0.00  0.00    +0.000 A 
ATOM     11  C   UNL     1       0.334  13.282  20.681  0.00  0.00    +0.000 A 
ATOM     12 CL   UNL     1       0.998  14.479  21.726  0.00  0.00    +0.000 Cl
ATOM     13  C   UNL     1       1.009  11.942  20.639  0.00  0.00    +0.000 A 
ATOM     14  O   UNL     1       2.025  11.714  21.295  0.00  0.00    +0.000 OA
ATOM     15  C   UNL     1       0.394  10.873  19.773  0.00  0.00    +0.000 A 
ATOM     16  H   UNL     1      -2.126  12.656  18.629  0.00  0.00    +0.000 HD
BRANCH  10  17
ATOM     17  C   UNL     1      -1.543  14.770  19.893  0.00  0.00    +0.000 C 
BRANCH  17  18
ATOM     18  O   UNL     1      -0.902  15.672  18.986  0.00  0.00    +0.000 OA
ATOM     19  H   UNL     1       0.056  15.562  19.128  0.00  0.00    +0.000 HD
ENDBRANCH  17  18
ENDBRANCH  10  17
ENDBRANCH   1  15
BRANCH   4  20
ATOM     20  O   UNL     1       2.827   5.779  19.870  0.00  0.00    +0.000 OA
BRANCH  20  21
ATOM     21  C   UNL     1       3.661   5.325  18.874  0.00  0.00    +0.000 A 
ATOM     22  C   UNL     1       3.235   4.587  17.769  0.00  0.00    +0.000 A 
ATOM     23  C   UNL     1       4.159   4.151  16.820  0.00  0.00    +0.000 A 
ATOM     24  C   UNL     1       5.519   4.406  16.999  0.00  0.00    +0.000 A 
ATOM     25  C   UNL     1       5.970   5.099  18.132  0.00  0.00    +0.000 A 
ATOM     26  C   UNL     1       5.026   5.561  19.064  0.00  0.00    +0.000 A 
BRANCH  25  27
ATOM     27  C   UNL     1       7.441   5.340  18.364  0.00  0.00    +0.000 C 
ATOM     28  F   UNL     1       7.771   5.469  19.681  0.00  0.00    +0.000 F 
ATOM     29  F   UNL     1       8.219   4.329  17.885  0.00  0.00    +0.000 F 
ATOM     30  F   UNL     1       7.887   6.474  17.758  0.00  0.00    +0.000 F 
ENDBRANCH  25  27
ENDBRANCH  20  21
ENDBRANCH   4  20
TORSDOF 6
ENDMDL
MODEL 7
REMARK VINA RESULT:      -7.9      4.679      6.323
REMARK  Name = 
REMARK  7 active torsions:
REMARK  status: ('A' for Active; 'I' for Inactive)
REMARK    1  A    between atoms: C_1  and  C_2
REMARK    2  A    between atoms: CA_4  and  C_5
REMARK    3  A    between atoms: C_5  and  O_6
REMARK    4  A    between atoms: C_11  and  C_12
REMARK    5  A    between atoms: C_15  and  O_16
REMARK    6  A    between atoms: O_16  and  C_17
REMARK    7  A    between atoms: C_21  and  C_22
REMARK                            x       y       z     vdW  Elec       q    Type
REMARK                         _______ _______ _______ _____ _____    ______ ____
ROOT
ATOM      1  C   UNL     1       0.908   9.782  19.238  0.00  0.00    +0.000 A 
ATOM      2  C   UNL     1       1.535   9.864  17.989  0.00  0.00    +0.000 A 
ATOM      3  C   UNL     1       2.418   8.858  17.584  0.00  0.00    +0.000 A 
ATOM      4  C   UNL     1       2.685   7.771  18.419  0.00  0.00    +0.000 A 
ATOM      5  C   UNL     1       2.046   7.678  19.656  0.00  0.00    +0.000 A 
ATOM      6  C   UNL     1       1.182   8.692  20.074  0.00  0.00    +0.000 A 
ENDROOT
BRANCH   1  15
ATOM      7  C   UNL     1      -1.639  10.095  17.789  0.00  0.00    +0.000 C 
ATOM      8  C   UNL     1      -1.270  10.920  19.000  0.00  0.00    +0.000 A 
ATOM      9  N   UNL     1      -2.212  11.830  19.429  0.00  0.00    +0.000 N 
ATOM     10  CA  UNL     1      -2.069  12.621  20.555  0.00  0.00    +0.000 A 
ATOM     11  C   UNL     1      -0.937  12.581  21.283  0.00  0.00    +0.000 A 
ATOM     12 CL   UNL     1      -0.680  13.519  22.705  0.00  0.00    +0.000 Cl
ATOM     13  C   UNL     1       0.156  11.645  20.860  0.00  0.00    +0.000 A 
ATOM     14  O   UNL     1       1.217  11.574  21.479  0.00  0.00    +0.000 OA
ATOM     15  C   UNL     1      -0.092  10.778  19.652  0.00  0.00    +0.000 A 
ATOM     16  H   UNL     1      -3.122  11.867  18.966  0.00  0.00    +0.000 HD
BRANCH  10  17
ATOM     17  C   UNL     1      -3.246  13.512  20.886  0.00  0.00    +0.000 C 
BRANCH  17  18
ATOM     18  O   UNL     1      -4.274  13.306  19.911  0.00  0.00    +0.000 OA
ATOM     19  H   UNL     1      -4.645  12.424  20.093  0.00  0.00    +0.000 HD
ENDBRANCH  17  18
ENDBRANCH  10  17
ENDBRANCH   1  15
BRANCH   4  20
ATOM     20  O   UNL     1       3.514   6.803  17.897  0.00  0.00    +0.000 OA
BRANCH  20  21
ATOM     21  C   UNL     1       3.627   5.580  18.518  0.00  0.00    +0.000 A 
ATOM     22  C   UNL     1       4.832   4.905  18.710  0.00  0.00    +0.000 A 
ATOM     23  C   UNL     1       4.844   3.656  19.332  0.00  0.00    +0.000 A 
ATOM     24  C   UNL     1       3.646   3.055  19.718  0.00  0.00    +0.000 A 
ATOM     25  C   UNL     1       2.420   3.696  19.484  0.00  0.00    +0.000 A 
ATOM     26  C   UNL     1       2.425   4.968  18.886  0.00  0.00    +0.000 A 
BRANCH  25  27
ATOM     27  C   UNL     1       1.113   3.038  19.850  0.00  0.00    +0.000 C 
ATOM     28  F   UNL     1       0.533   2.366  18.816  0.00  0.00    +0.000 F 
ATOM     29  F   UNL     1       1.249   2.128  20.855  0.00  0.00    +0.000 F 
ATOM     30  F   UNL     1       0.181   3.932  20.280  0.00  0.00    +0.000 F 
ENDBRANCH  25  27
ENDBRANCH  20  21
ENDBRANCH   4  20
TORSDOF 6
ENDMDL
MODEL 8
REMARK VINA RESULT:      -7.9      4.348      5.869
REMARK  Name = 
REMARK  7 active torsions:
REMARK  status: ('A' for Active; 'I' for Inactive)
REMARK    1  A    between atoms: C_1  and  C_2
REMARK    2  A    between atoms: CA_4  and  C_5
REMARK    3  A    between atoms: C_5  and  O_6
REMARK    4  A    between atoms: C_11  and  C_12
REMARK    5  A    between atoms: C_15  and  O_16
REMARK    6  A    between atoms: O_16  and  C_17
REMARK    7  A    between atoms: C_21  and  C_22
REMARK                            x       y       z     vdW  Elec       q    Type
REMARK                         _______ _______ _______ _____ _____    ______ ____
ROOT
ATOM      1  C   UNL     1       0.786   9.851  19.332  0.00  0.00    +0.000 A 
ATOM      2  C   UNL     1       1.432  10.095  18.115  0.00  0.00    +0.000 A 
ATOM      3  C   UNL     1       2.346   9.164  17.611  0.00  0.00    +0.000 A 
ATOM      4  C   UNL     1       2.626   7.992  18.317  0.00  0.00    +0.000 A 
ATOM      5  C   UNL     1       1.969   7.738  19.522  0.00  0.00    +0.000 A 
ATOM      6  C   UNL     1       1.073   8.676  20.040  0.00  0.00    +0.000 A 
ENDROOT
BRANCH   1  15
ATOM      7  C   UNL     1      -1.807  10.157  17.966  0.00  0.00    +0.000 C 
ATOM      8  C   UNL     1      -1.443  10.905  19.228  0.00  0.00    +0.000 A 
ATOM      9  N   UNL     1      -2.413  11.738  19.744  0.00  0.00    +0.000 N 
ATOM     10  CA  UNL     1      -2.276  12.449  20.923  0.00  0.00    +0.000 A 
ATOM     11  C   UNL     1      -1.126  12.406  21.622  0.00  0.00    +0.000 A 
ATOM     12 CL   UNL     1      -0.875  13.245  23.105  0.00  0.00    +0.000 Cl
ATOM     13  C   UNL     1      -0.004  11.553  21.106  0.00  0.00    +0.000 A 
ATOM     14  O   UNL     1       1.074  11.484  21.696  0.00  0.00    +0.000 OA
ATOM     15  C   UNL     1      -0.245  10.768  19.842  0.00  0.00    +0.000 A 
ATOM     16  H   UNL     1      -3.334  11.769  19.305  0.00  0.00    +0.000 HD
BRANCH  10  17
ATOM     17  C   UNL     1      -3.482  13.259  21.345  0.00  0.00    +0.000 C 
BRANCH  17  18
ATOM     18  O   UNL     1      -4.355  12.428  22.116  0.00  0.00    +0.000 OA
ATOM     19  H   UNL     1      -5.236  12.512  21.708  0.00  0.00    +0.000 HD
ENDBRANCH  17  18
ENDBRANCH  10  17
ENDBRANCH   1  15
BRANCH   4  20
ATOM     20  O   UNL     1       3.487   7.112  17.701  0.00  0.00    +0.000 OA
BRANCH  20  21
ATOM     21  C   UNL     1       3.763   5.894  18.279  0.00  0.00    +0.000 A 
ATOM     22  C   UNL     1       4.950   5.591  18.947  0.00  0.00    +0.000 A 
ATOM     23  C   UNL     1       5.147   4.318  19.482  0.00  0.00    +0.000 A 
ATOM     24  C   UNL     1       4.180   3.328  19.307  0.00  0.00    +0.000 A 
ATOM     25  C   UNL     1       3.005   3.599  18.591  0.00  0.00    +0.000 A 
ATOM     26  C   UNL     1       2.804   4.894  18.085  0.00  0.00    +0.000 A 
BRANCH  25  27
ATOM     27  C   UNL     1       1.972   2.525  18.351  0.00  0.00    +0.000 C 
ATOM     28  F   UNL     1       0.716   3.014  18.146  0.00  0.00    +0.000 F 
ATOM     29  F   UNL     1       2.256   1.761  17.259  0.00  0.00    +0.000 F 
ATOM     30  F   UNL     1       1.867   1.660  19.396  0.00  0.00    +0.000 F 
ENDBRANCH  25  27
ENDBRANCH  20  21
ENDBRANCH   4  20
TORSDOF 6
ENDMDL
MODEL 9
REMARK VINA RESULT:      -7.9      4.380      6.165
REMARK  Name = 
REMARK  7 active torsions:
REMARK  status: ('A' for Active; 'I' for Inactive)
REMARK    1  A    between atoms: C_1  and  C_2
REMARK    2  A    between atoms: CA_4  and  C_5
REMARK    3  A    between atoms: C_5  and  O_6
REMARK    4  A    between atoms: C_11  and  C_12
REMARK    5  A    between atoms: C_15  and  O_16
REMARK    6  A    between atoms: O_16  and  C_17
REMARK    7  A    between atoms: C_21  and  C_22
REMARK                            x       y       z     vdW  Elec       q    Type
REMARK                         _______ _______ _______ _____ _____    ______ ____
ROOT
ATOM      1  C   UNL     1       0.929   9.603  19.312  0.00  0.00    +0.000 A 
ATOM      2  C   UNL     1       1.576   9.738  18.078  0.00  0.00    +0.000 A 
ATOM      3  C   UNL     1       2.526   8.793  17.681  0.00  0.00    +0.000 A 
ATOM      4  C   UNL     1       2.842   7.713  18.509  0.00  0.00    +0.000 A 
ATOM      5  C   UNL     1       2.185   7.566  19.732  0.00  0.00    +0.000 A 
ATOM      6  C   UNL     1       1.252   8.521  20.142  0.00  0.00    +0.000 A 
ENDROOT
BRANCH   1  15
ATOM      7  C   UNL     1      -1.490   9.970  17.669  0.00  0.00    +0.000 C 
ATOM      8  C   UNL     1      -1.258  10.696  18.974  0.00  0.00    +0.000 A 
ATOM      9  N   UNL     1      -2.266  11.539  19.390  0.00  0.00    +0.000 N 
ATOM     10  CA  UNL     1      -2.251  12.233  20.587  0.00  0.00    +0.000 A 
ATOM     11  C   UNL     1      -1.188  12.161  21.410  0.00  0.00    +0.000 A 
ATOM     12 CL   UNL     1      -1.091  12.978  22.923  0.00  0.00    +0.000 Cl
ATOM     13  C   UNL     1      -0.029  11.296  21.010  0.00  0.00    +0.000 A 
ATOM     14  O   UNL     1       0.975  11.201  21.715  0.00  0.00    +0.000 OA
ATOM     15  C   UNL     1      -0.138  10.531  19.716  0.00  0.00    +0.000 A 
ATOM     16  H   UNL     1      -3.132  11.591  18.851  0.00  0.00    +0.000 HD
BRANCH  10  17
ATOM     17  C   UNL     1      -3.484  13.059  20.883  0.00  0.00    +0.000 C 
BRANCH  17  18
ATOM     18  O   UNL     1      -4.280  12.375  21.856  0.00  0.00    +0.000 OA
ATOM     19  H   UNL     1      -4.361  11.457  21.540  0.00  0.00    +0.000 HD
ENDBRANCH  17  18
ENDBRANCH  10  17
ENDBRANCH   1  15
BRANCH   4  20
ATOM     20  O   UNL     1       3.739   6.804  17.995  0.00  0.00    +0.000 OA
BRANCH  20  21
ATOM     21  C   UNL     1       3.411   5.469  17.930  0.00  0.00    +0.000 A 
ATOM     22  C   UNL     1       3.894   4.588  16.962  0.00  0.00    +0.000 A 
ATOM     23  C   UNL     1       3.488   3.254  16.965  0.00  0.00    +0.000 A 
ATOM     24  C   UNL     1       2.557   2.807  17.904  0.00  0.00    +0.000 A 
ATOM     25  C   UNL     1       2.020   3.693  18.850  0.00  0.00    +0.000 A 
ATOM     26  C   UNL     1       2.463   5.027  18.857  0.00  0.00    +0.000 A 
BRANCH  25  27
ATOM     27  C   UNL     1       0.976   3.238  19.840  0.00  0.00    +0.000 C 
ATOM     28  F   UNL     1       1.478   2.461  20.842  0.00  0.00    +0.000 F 
ATOM     29  F   UNL     1       0.350   4.279  20.456  0.00  0.00    +0.000 F 
ATOM     30  F   UNL     1      -0.009   2.501  19.258  0.00  0.00    +0.000 F 
ENDBRANCH  25  27
ENDBRANCH  20  21
ENDBRANCH   4  20
TORSDOF 6
ENDMDL
