MODEL 1
REMARK VINA RESULT:      -8.1      0.000      0.000
REMARK  Name = 
REMARK  3 active torsions:
REMARK  status: ('A' for Active; 'I' for Inactive)
REMARK    1  A    between atoms: C_2  and  C_16
REMARK    2  A    between atoms: C_7  and  C_8
REMARK    3  A    between atoms: C_20  and  O_21
REMARK                            x       y       z     vdW  Elec       q    Type
REMARK                         _______ _______ _______ _____ _____    ______ ____
ROOT
ATOM      1  O   UNL     1       7.548  10.061  17.887  0.00  0.00    +0.000 OA
ATOM      2  C   UNL     1       8.582   9.613  18.371  0.00  0.00    +0.000 C 
ATOM      3  N   UNL     1       8.832   8.297  18.688  0.00  0.00    +0.000 N 
ATOM      4  C   UNL     1       7.916   7.267  18.475  0.00  0.00    +0.000 A 
ATOM      5  C   UNL     1       7.167   7.179  17.313  0.00  0.00    +0.000 A 
ATOM      6  C   UNL     1       6.250   6.137  17.190  0.00  0.00    +0.000 A 
ATOM      7  C   UNL     1       6.050   5.231  18.240  0.00  0.00    +0.000 A 
ATOM      8  C   UNL     1       6.896   5.400  19.341  0.00  0.00    +0.000 A 
ATOM      9  N   UNL     1       7.845   6.365  19.466  0.00  0.00    +0.000 NA
ATOM     10  H   UNL     1       9.471   8.102  19.448  0.00  0.00    +0.000 HD
ENDROOT
BRANCH   7  11
ATOM     11  C   UNL     1       5.025   4.176  18.212  0.00  0.00    +0.000 A 
ATOM     12  C   UNL     1       4.109   4.033  17.169  0.00  0.00    +0.000 A 
ATOM     13  C   UNL     1       3.160   3.013  17.220  0.00  0.00    +0.000 A 
ATOM     14  C   UNL     1       3.137   2.162  18.314  0.00  0.00    +0.000 A 
ATOM     15  C   UNL     1       4.068   2.369  19.316  0.00  0.00    +0.000 A 
ATOM     16  N   UNL     1       4.999   3.347  19.288  0.00  0.00    +0.000 NA
ENDBRANCH   7  11
BRANCH   2  17
ATOM     17  C   UNL     1       9.662  10.548  18.737  0.00  0.00    +0.000 A 
ATOM     18  C   UNL     1       9.822  10.936  20.060  0.00  0.00    +0.000 A 
ATOM     19  N   UNL     1      10.790  11.790  20.478  0.00  0.00    +0.000 NA
ATOM     20  C   UNL     1      11.614  12.287  19.525  0.00  0.00    +0.000 A 
ATOM     21  C   UNL     1      11.510  11.960  18.178  0.00  0.00    +0.000 A 
ATOM     22  C   UNL     1      10.522  11.075  17.774  0.00  0.00    +0.000 A 
BRANCH  21  23
ATOM     23  O   UNL     1      12.333  12.469  17.222  0.00  0.00    +0.000 OA
ATOM     24  H   UNL     1      13.028  11.818  17.023  0.00  0.00    +0.000 HD
ENDBRANCH  21  23
ENDBRANCH   2  17
TORSDOF 3
ENDMDL
MODEL 2
REMARK VINA RESULT:      -7.4      7.654      9.755
REMARK  Name = 
REMARK  3 active torsions:
REMARK  status: ('A' for Active; 'I' for Inactive)
REMARK    1  A    between atoms: C_2  and  C_16
REMARK    2  A    between atoms: C_7  and  C_8
REMARK    3  A    between atoms: C_20  and  O_21
REMARK                            x       y       z     vdW  Elec       q    Type
REMARK                         _______ _______ _______ _____ _____    ______ ____
ROOT
ATOM      1  O   UNL     1       1.535   5.646  20.707  0.00  0.00    +0.000 OA
ATOM      2  C   UNL     1       2.229   6.151  19.831  0.00  0.00    +0.000 C 
ATOM      3  N   UNL     1       2.262   7.482  19.482  0.00  0.00    +0.000 N 
ATOM      4  C   UNL     1       1.497   8.462  20.114  0.00  0.00    +0.000 A 
ATOM      5  C   UNL     1       1.339   8.497  21.490  0.00  0.00    +0.000 A 
ATOM      6  C   UNL     1       0.533   9.491  22.043  0.00  0.00    +0.000 A 
ATOM      7  C   UNL     1      -0.146  10.401  21.222  0.00  0.00    +0.000 A 
ATOM      8  C   UNL     1       0.129  10.289  19.854  0.00  0.00    +0.000 A 
ATOM      9  N   UNL     1       0.960   9.374  19.289  0.00  0.00    +0.000 NA
ATOM     10  H   UNL     1       2.490   7.719  18.525  0.00  0.00    +0.000 HD
ENDROOT
BRANCH   7  11
ATOM     11  C   UNL     1      -1.092  11.403  21.737  0.00  0.00    +0.000 A 
ATOM     12  C   UNL     1      -1.603  11.369  23.035  0.00  0.00    +0.000 A 
ATOM     13  C   UNL     1      -2.504  12.351  23.445  0.00  0.00    +0.000 A 
ATOM     14  C   UNL     1      -2.883  13.341  22.552  0.00  0.00    +0.000 A 
ATOM     15  C   UNL     1      -2.345  13.306  21.279  0.00  0.00    +0.000 A 
ATOM     16  N   UNL     1      -1.468  12.368  20.858  0.00  0.00    +0.000 NA
ENDBRANCH   7  11
BRANCH   2  17
ATOM     17  C   UNL     1       3.069   5.276  18.993  0.00  0.00    +0.000 A 
ATOM     18  C   UNL     1       2.502   4.581  17.933  0.00  0.00    +0.000 A 
ATOM     19  N   UNL     1       3.206   3.759  17.116  0.00  0.00    +0.000 NA
ATOM     20  C   UNL     1       4.525   3.615  17.388  0.00  0.00    +0.000 A 
ATOM     21  C   UNL     1       5.163   4.263  18.439  0.00  0.00    +0.000 A 
ATOM     22  C   UNL     1       4.429   5.110  19.255  0.00  0.00    +0.000 A 
BRANCH  21  23
ATOM     23  O   UNL     1       6.487   4.108  18.715  0.00  0.00    +0.000 OA
ATOM     24  H   UNL     1       6.872   4.978  18.916  0.00  0.00    +0.000 HD
ENDBRANCH  21  23
ENDBRANCH   2  17
TORSDOF 3
ENDMDL
MODEL 3
REMARK VINA RESULT:      -7.3      7.630      8.869
REMARK  Name = 
REMARK  3 active torsions:
REMARK  status: ('A' for Active; 'I' for Inactive)
REMARK    1  A    between atoms: C_2  and  C_16
REMARK    2  A    between atoms: C_7  and  C_8
REMARK    3  A    between atoms: C_20  and  O_21
REMARK                            x       y       z     vdW  Elec       q    Type
REMARK                         _______ _______ _______ _____ _____    ______ ____
ROOT
ATOM      1  O   UNL     1       1.438  10.027  22.410  0.00  0.00    +0.000 OA
ATOM      2  C   UNL     1       0.537  10.392  21.662  0.00  0.00    +0.000 C 
ATOM      3  N   UNL     1       0.314   9.952  20.377  0.00  0.00    +0.000 N 
ATOM      4  C   UNL     1       1.101   8.990  19.746  0.00  0.00    +0.000 A 
ATOM      5  C   UNL     1       1.534   7.850  20.403  0.00  0.00    +0.000 A 
ATOM      6  C   UNL     1       2.345   6.950  19.711  0.00  0.00    +0.000 A 
ATOM      7  C   UNL     1       2.756   7.220  18.400  0.00  0.00    +0.000 A 
ATOM      8  C   UNL     1       2.218   8.380  17.833  0.00  0.00    +0.000 A 
ATOM      9  N   UNL     1       1.374   9.244  18.457  0.00  0.00    +0.000 NA
ATOM     10  H   UNL     1      -0.126  10.588  19.725  0.00  0.00    +0.000 HD
ENDROOT
BRANCH   7  11
ATOM     11  C   UNL     1       3.694   6.365  17.656  0.00  0.00    +0.000 A 
ATOM     12  C   UNL     1       4.723   6.876  16.863  0.00  0.00    +0.000 A 
ATOM     13  C   UNL     1       5.566   5.999  16.180  0.00  0.00    +0.000 A 
ATOM     14  C   UNL     1       5.360   4.633  16.294  0.00  0.00    +0.000 A 
ATOM     15  C   UNL     1       4.314   4.199  17.088  0.00  0.00    +0.000 A 
ATOM     16  N   UNL     1       3.487   5.027  17.763  0.00  0.00    +0.000 NA
ENDBRANCH   7  11
BRANCH   2  17
ATOM     17  C   UNL     1      -0.376  11.459  22.112  0.00  0.00    +0.000 A 
ATOM     18  C   UNL     1      -0.069  12.787  21.852  0.00  0.00    +0.000 A 
ATOM     19  N   UNL     1      -0.855  13.826  22.230  0.00  0.00    +0.000 NA
ATOM     20  C   UNL     1      -1.982  13.516  22.916  0.00  0.00    +0.000 A 
ATOM     21  C   UNL     1      -2.351  12.214  23.230  0.00  0.00    +0.000 A 
ATOM     22  C   UNL     1      -1.540  11.165  22.822  0.00  0.00    +0.000 A 
BRANCH  21  23
ATOM     23  O   UNL     1      -3.478  11.907  23.927  0.00  0.00    +0.000 OA
ATOM     24  H   UNL     1      -3.340  11.069  24.401  0.00  0.00    +0.000 HD
ENDBRANCH  21  23
ENDBRANCH   2  17
TORSDOF 3
ENDMDL
MODEL 4
REMARK VINA RESULT:      -7.2      7.567      8.814
REMARK  Name = 
REMARK  3 active torsions:
REMARK  status: ('A' for Active; 'I' for Inactive)
REMARK    1  A    between atoms: C_2  and  C_16
REMARK    2  A    between atoms: C_7  and  C_8
REMARK    3  A    between atoms: C_20  and  O_21
REMARK                            x       y       z     vdW  Elec       q    Type
REMARK                         _______ _______ _______ _____ _____    ______ ____
ROOT
ATOM      1  O   UNL     1       1.481   9.917  22.404  0.00  0.00    +0.000 OA
ATOM      2  C   UNL     1       0.610  10.307  21.633  0.00  0.00    +0.000 C 
ATOM      3  N   UNL     1       0.416   9.881  20.339  0.00  0.00    +0.000 N 
ATOM      4  C   UNL     1       1.200   8.906  19.724  0.00  0.00    +0.000 A 
ATOM      5  C   UNL     1       1.589   7.753  20.384  0.00  0.00    +0.000 A 
ATOM      6  C   UNL     1       2.400   6.840  19.710  0.00  0.00    +0.000 A 
ATOM      7  C   UNL     1       2.856   7.111  18.413  0.00  0.00    +0.000 A 
ATOM      8  C   UNL     1       2.359   8.286  17.840  0.00  0.00    +0.000 A 
ATOM      9  N   UNL     1       1.515   9.164  18.445  0.00  0.00    +0.000 NA
ATOM     10  H   UNL     1       0.009  10.531  19.679  0.00  0.00    +0.000 HD
ENDROOT
BRANCH   7  11
ATOM     11  C   UNL     1       3.796   6.240  17.690  0.00  0.00    +0.000 A 
ATOM     12  C   UNL     1       3.897   4.869  17.926  0.00  0.00    +0.000 A 
ATOM     13  C   UNL     1       4.822   4.112  17.206  0.00  0.00    +0.000 A 
ATOM     14  C   UNL     1       5.631   4.740  16.272  0.00  0.00    +0.000 A 
ATOM     15  C   UNL     1       5.484   6.104  16.099  0.00  0.00    +0.000 A 
ATOM     16  N   UNL     1       4.594   6.858  16.780  0.00  0.00    +0.000 NA
ENDBRANCH   7  11
BRANCH   2  17
ATOM     17  C   UNL     1      -0.292  11.391  22.065  0.00  0.00    +0.000 A 
ATOM     18  C   UNL     1       0.013  12.709  21.756  0.00  0.00    +0.000 A 
ATOM     19  N   UNL     1      -0.765  13.761  22.115  0.00  0.00    +0.000 NA
ATOM     20  C   UNL     1      -1.880  13.477  22.829  0.00  0.00    +0.000 A 
ATOM     21  C   UNL     1      -2.246  12.186  23.192  0.00  0.00    +0.000 A 
ATOM     22  C   UNL     1      -1.445  11.123  22.803  0.00  0.00    +0.000 A 
BRANCH  21  23
ATOM     23  O   UNL     1      -3.362  11.905  23.918  0.00  0.00    +0.000 OA
ATOM     24  H   UNL     1      -4.074  12.511  23.652  0.00  0.00    +0.000 HD
ENDBRANCH  21  23
ENDBRANCH   2  17
TORSDOF 3
ENDMDL
MODEL 5
REMARK VINA RESULT:      -7.1      7.173      9.173
REMARK  Name = 
REMARK  3 active torsions:
REMARK  status: ('A' for Active; 'I' for Inactive)
REMARK    1  A    between atoms: C_2  and  C_16
REMARK    2  A    between atoms: C_7  and  C_8
REMARK    3  A    between atoms: C_20  and  O_21
REMARK                            x       y       z     vdW  Elec       q    Type
REMARK                         _______ _______ _______ _____ _____    ______ ____
ROOT
ATOM      1  O   UNL     1       1.855   5.453  19.387  0.00  0.00    +0.000 OA
ATOM      2  C   UNL     1       2.635   6.123  18.718  0.00  0.00    +0.000 C 
ATOM      3  N   UNL     1       2.708   7.497  18.682  0.00  0.00    +0.000 N 
ATOM      4  C   UNL     1       1.887   8.331  19.440  0.00  0.00    +0.000 A 
ATOM      5  C   UNL     1       1.590   8.062  20.766  0.00  0.00    +0.000 A 
ATOM      6  C   UNL     1       0.736   8.928  21.446  0.00  0.00    +0.000 A 
ATOM      7  C   UNL     1       0.146  10.016  20.787  0.00  0.00    +0.000 A 
ATOM      8  C   UNL     1       0.558  10.205  19.464  0.00  0.00    +0.000 A 
ATOM      9  N   UNL     1       1.440   9.417  18.792  0.00  0.00    +0.000 NA
ATOM     10  H   UNL     1       3.033   7.935  17.830  0.00  0.00    +0.000 HD
ENDROOT
BRANCH   7  11
ATOM     11  C   UNL     1      -0.843  10.902  21.419  0.00  0.00    +0.000 A 
ATOM     12  C   UNL     1      -1.112  10.889  22.788  0.00  0.00    +0.000 A 
ATOM     13  C   UNL     1      -2.073  11.754  23.310  0.00  0.00    +0.000 A 
ATOM     14  C   UNL     1      -2.752  12.609  22.456  0.00  0.00    +0.000 A 
ATOM     15  C   UNL     1      -2.442  12.560  21.109  0.00  0.00    +0.000 A 
ATOM     16  N   UNL     1      -1.513  11.734  20.579  0.00  0.00    +0.000 NA
ENDBRANCH   7  11
BRANCH   2  17
ATOM     17  C   UNL     1       3.553   5.435  17.792  0.00  0.00    +0.000 A 
ATOM     18  C   UNL     1       3.598   4.048  17.764  0.00  0.00    +0.000 A 
ATOM     19  N   UNL     1       4.413   3.341  16.942  0.00  0.00    +0.000 NA
ATOM     20  C   UNL     1       5.228   4.058  16.131  0.00  0.00    +0.000 A 
ATOM     21  C   UNL     1       5.254   5.448  16.110  0.00  0.00    +0.000 A 
ATOM     22  C   UNL     1       4.403   6.151  16.949  0.00  0.00    +0.000 A 
BRANCH  21  23
ATOM     23  O   UNL     1       6.081   6.165  15.301  0.00  0.00    +0.000 OA
ATOM     24  H   UNL     1       6.997   5.874  15.447  0.00  0.00    +0.000 HD
ENDBRANCH  21  23
ENDBRANCH   2  17
TORSDOF 3
ENDMDL
MODEL 6
REMARK VINA RESULT:      -7.1      7.522      9.782
REMARK  Name = 
REMARK  3 active torsions:
REMARK  status: ('A' for Active; 'I' for Inactive)
REMARK    1  A    between atoms: C_2  and  C_16
REMARK    2  A    between atoms: C_7  and  C_8
REMARK    3  A    between atoms: C_20  and  O_21
REMARK                            x       y       z     vdW  Elec       q    Type
REMARK                         _______ _______ _______ _____ _____    ______ ____
ROOT
ATOM      1  O   UNL     1       1.450   5.662  20.771  0.00  0.00    +0.000 OA
ATOM      2  C   UNL     1       2.152   6.078  19.855  0.00  0.00    +0.000 C 
ATOM      3  N   UNL     1       2.257   7.385  19.437  0.00  0.00    +0.000 N 
ATOM      4  C   UNL     1       1.568   8.441  20.033  0.00  0.00    +0.000 A 
ATOM      5  C   UNL     1       1.446   8.555  21.408  0.00  0.00    +0.000 A 
ATOM      6  C   UNL     1       0.715   9.624  21.925  0.00  0.00    +0.000 A 
ATOM      7  C   UNL     1       0.072  10.531  21.072  0.00  0.00    +0.000 A 
ATOM      8  C   UNL     1       0.307  10.333  19.707  0.00  0.00    +0.000 A 
ATOM      9  N   UNL     1       1.068   9.341  19.173  0.00  0.00    +0.000 NA
ATOM     10  H   UNL     1       2.476   7.559  18.465  0.00  0.00    +0.000 HD
ENDROOT
BRANCH   7  11
ATOM     11  C   UNL     1      -0.799  11.614  21.553  0.00  0.00    +0.000 A 
ATOM     12  C   UNL     1      -1.668  12.319  20.718  0.00  0.00    +0.000 A 
ATOM     13  C   UNL     1      -2.455  13.341  21.249  0.00  0.00    +0.000 A 
ATOM     14  C   UNL     1      -2.354  13.645  22.597  0.00  0.00    +0.000 A 
ATOM     15  C   UNL     1      -1.463  12.913  23.362  0.00  0.00    +0.000 A 
ATOM     16  N   UNL     1      -0.693  11.916  22.873  0.00  0.00    +0.000 NA
ENDBRANCH   7  11
BRANCH   2  17
ATOM     17  C   UNL     1       2.917   5.112  19.047  0.00  0.00    +0.000 A 
ATOM     18  C   UNL     1       2.260   4.303  18.130  0.00  0.00    +0.000 A 
ATOM     19  N   UNL     1       2.891   3.391  17.348  0.00  0.00    +0.000 NA
ATOM     20  C   UNL     1       4.231   3.275  17.511  0.00  0.00    +0.000 A 
ATOM     21  C   UNL     1       4.959   4.035  18.418  0.00  0.00    +0.000 A 
ATOM     22  C   UNL     1       4.297   4.972  19.198  0.00  0.00    +0.000 A 
BRANCH  21  23
ATOM     23  O   UNL     1       6.303   3.909  18.586  0.00  0.00    +0.000 OA
ATOM     24  H   UNL     1       6.688   4.789  18.738  0.00  0.00    +0.000 HD
ENDBRANCH  21  23
ENDBRANCH   2  17
TORSDOF 3
ENDMDL
MODEL 7
REMARK VINA RESULT:      -7.1      7.778      9.859
REMARK  Name = 
REMARK  3 active torsions:
REMARK  status: ('A' for Active; 'I' for Inactive)
REMARK    1  A    between atoms: C_2  and  C_16
REMARK    2  A    between atoms: C_7  and  C_8
REMARK    3  A    between atoms: C_20  and  O_21
REMARK                            x       y       z     vdW  Elec       q    Type
REMARK                         _______ _______ _______ _____ _____    ______ ____
ROOT
ATOM      1  O   UNL     1       1.549   5.638  20.583  0.00  0.00    +0.000 OA
ATOM      2  C   UNL     1       2.270   6.171  19.746  0.00  0.00    +0.000 C 
ATOM      3  N   UNL     1       2.305   7.511  19.433  0.00  0.00    +0.000 N 
ATOM      4  C   UNL     1       1.511   8.469  20.063  0.00  0.00    +0.000 A 
ATOM      5  C   UNL     1       1.304   8.466  21.432  0.00  0.00    +0.000 A 
ATOM      6  C   UNL     1       0.470   9.439  21.981  0.00  0.00    +0.000 A 
ATOM      7  C   UNL     1      -0.186  10.366  21.160  0.00  0.00    +0.000 A 
ATOM      8  C   UNL     1       0.139  10.293  19.802  0.00  0.00    +0.000 A 
ATOM      9  N   UNL     1       0.997   9.398  19.243  0.00  0.00    +0.000 NA
ATOM     10  H   UNL     1       2.566   7.774  18.492  0.00  0.00    +0.000 HD
ENDROOT
BRANCH   7  11
ATOM     11  C   UNL     1      -1.157  11.348  21.667  0.00  0.00    +0.000 A 
ATOM     12  C   UNL     1      -1.530  11.426  23.010  0.00  0.00    +0.000 A 
ATOM     13  C   UNL     1      -2.465  12.379  23.410  0.00  0.00    +0.000 A 
ATOM     14  C   UNL     1      -3.016  13.229  22.464  0.00  0.00    +0.000 A 
ATOM     15  C   UNL     1      -2.608  13.088  21.150  0.00  0.00    +0.000 A 
ATOM     16  N   UNL     1      -1.701  12.176  20.737  0.00  0.00    +0.000 NA
ENDBRANCH   7  11
BRANCH   2  17
ATOM     17  C   UNL     1       3.146   5.324  18.916  0.00  0.00    +0.000 A 
ATOM     18  C   UNL     1       3.832   5.879  17.844  0.00  0.00    +0.000 A 
ATOM     19  N   UNL     1       4.658   5.170  17.034  0.00  0.00    +0.000 NA
ATOM     20  C   UNL     1       4.779   3.847  17.301  0.00  0.00    +0.000 A 
ATOM     21  C   UNL     1       4.115   3.213  18.343  0.00  0.00    +0.000 A 
ATOM     22  C   UNL     1       3.287   3.959  19.168  0.00  0.00    +0.000 A 
BRANCH  21  23
ATOM     23  O   UNL     1       4.233   1.882  18.602  0.00  0.00    +0.000 OA
ATOM     24  H   UNL     1       3.513   1.407  18.151  0.00  0.00    +0.000 HD
ENDBRANCH  21  23
ENDBRANCH   2  17
TORSDOF 3
ENDMDL
MODEL 8
REMARK VINA RESULT:      -7.1      6.957      9.931
REMARK  Name = 
REMARK  3 active torsions:
REMARK  status: ('A' for Active; 'I' for Inactive)
REMARK    1  A    between atoms: C_2  and  C_16
REMARK    2  A    between atoms: C_7  and  C_8
REMARK    3  A    between atoms: C_20  and  O_21
REMARK                            x       y       z     vdW  Elec       q    Type
REMARK                         _______ _______ _______ _____ _____    ______ ____
ROOT
ATOM      1  O   UNL     1       0.950   5.027  20.504  0.00  0.00    +0.000 OA
ATOM      2  C   UNL     1       1.932   5.090  19.771  0.00  0.00    +0.000 C 
ATOM      3  N   UNL     1       2.478   6.234  19.236  0.00  0.00    +0.000 N 
ATOM      4  C   UNL     1       1.979   7.513  19.482  0.00  0.00    +0.000 A 
ATOM      5  C   UNL     1       1.573   7.913  20.744  0.00  0.00    +0.000 A 
ATOM      6  C   UNL     1       1.056   9.198  20.901  0.00  0.00    +0.000 A 
ATOM      7  C   UNL     1       0.899  10.046  19.797  0.00  0.00    +0.000 A 
ATOM      8  C   UNL     1       1.384   9.543  18.585  0.00  0.00    +0.000 A 
ATOM      9  N   UNL     1       1.954   8.321  18.411  0.00  0.00    +0.000 NA
ATOM     10  H   UNL     1       2.957   6.164  18.348  0.00  0.00    +0.000 HD
ENDROOT
BRANCH   7  11
ATOM     11  C   UNL     1       0.263  11.370  19.879  0.00  0.00    +0.000 A 
ATOM     12  C   UNL     1      -0.402  11.824  21.019  0.00  0.00    +0.000 A 
ATOM     13  C   UNL     1      -0.989  13.089  21.016  0.00  0.00    +0.000 A 
ATOM     14  C   UNL     1      -0.907  13.873  19.876  0.00  0.00    +0.000 A 
ATOM     15  C   UNL     1      -0.242  13.354  18.779  0.00  0.00    +0.000 A 
ATOM     16  N   UNL     1       0.337  12.133  18.758  0.00  0.00    +0.000 NA
ENDBRANCH   7  11
BRANCH   2  17
ATOM     17  C   UNL     1       2.577   3.839  19.333  0.00  0.00    +0.000 A 
ATOM     18  C   UNL     1       2.094   3.165  18.220  0.00  0.00    +0.000 A 
ATOM     19  N   UNL     1       2.632   2.010  17.752  0.00  0.00    +0.000 NA
ATOM     20  C   UNL     1       3.681   1.505  18.444  0.00  0.00    +0.000 A 
ATOM     21  C   UNL     1       4.213   2.110  19.576  0.00  0.00    +0.000 A 
ATOM     22  C   UNL     1       3.657   3.298  20.030  0.00  0.00    +0.000 A 
BRANCH  21  23
ATOM     23  O   UNL     1       5.261   1.595  20.274  0.00  0.00    +0.000 OA
ATOM     24  H   UNL     1       5.804   2.326  20.616  0.00  0.00    +0.000 HD
ENDBRANCH  21  23
ENDBRANCH   2  17
TORSDOF 3
ENDMDL
MODEL 9
REMARK VINA RESULT:      -7.1      6.662      7.738
REMARK  Name = 
REMARK  3 active torsions:
REMARK  status: ('A' for Active; 'I' for Inactive)
REMARK    1  A    between atoms: C_2  and  C_16
REMARK    2  A    between atoms: C_7  and  C_8
REMARK    3  A    between atoms: C_20  and  O_21
REMARK                            x       y       z     vdW  Elec       q    Type
REMARK                         _______ _______ _______ _____ _____    ______ ____
ROOT
ATOM      1  O   UNL     1      -0.002  10.034  18.230  0.00  0.00    +0.000 OA
ATOM      2  C   UNL     1       0.378  10.312  19.363  0.00  0.00    +0.000 C 
ATOM      3  N   UNL     1       1.150   9.519  20.181  0.00  0.00    +0.000 N 
ATOM      4  C   UNL     1       1.629   8.264  19.808  0.00  0.00    +0.000 A 
ATOM      5  C   UNL     1       2.149   8.022  18.547  0.00  0.00    +0.000 A 
ATOM      6  C   UNL     1       2.579   6.731  18.241  0.00  0.00    +0.000 A 
ATOM      7  C   UNL     1       2.437   5.691  19.168  0.00  0.00    +0.000 A 
ATOM      8  C   UNL     1       1.939   6.071  20.419  0.00  0.00    +0.000 A 
ATOM      9  N   UNL     1       1.572   7.332  20.772  0.00  0.00    +0.000 NA
ATOM     10  H   UNL     1       1.035   9.613  21.182  0.00  0.00    +0.000 HD
ENDROOT
BRANCH   7  11
ATOM     11  C   UNL     1       2.773   4.290  18.868  0.00  0.00    +0.000 A 
ATOM     12  C   UNL     1       2.166   3.566  17.842  0.00  0.00    +0.000 A 
ATOM     13  C   UNL     1       2.532   2.238  17.626  0.00  0.00    +0.000 A 
ATOM     14  C   UNL     1       3.489   1.657  18.442  0.00  0.00    +0.000 A 
ATOM     15  C   UNL     1       4.041   2.431  19.447  0.00  0.00    +0.000 A 
ATOM     16  N   UNL     1       3.707   3.720  19.674  0.00  0.00    +0.000 NA
ENDBRANCH   7  11
BRANCH   2  17
ATOM     17  C   UNL     1      -0.074  11.573  19.978  0.00  0.00    +0.000 A 
ATOM     18  C   UNL     1      -1.331  12.079  19.677  0.00  0.00    +0.000 A 
ATOM     19  N   UNL     1      -1.820  13.231  20.201  0.00  0.00    +0.000 NA
ATOM     20  C   UNL     1      -1.004  13.909  21.043  0.00  0.00    +0.000 A 
ATOM     21  C   UNL     1       0.273  13.478  21.382  0.00  0.00    +0.000 A 
ATOM     22  C   UNL     1       0.749  12.291  20.846  0.00  0.00    +0.000 A 
BRANCH  21  23
ATOM     23  O   UNL     1       1.093  14.167  22.221  0.00  0.00    +0.000 OA
ATOM     24  H   UNL     1       0.851  15.109  22.198  0.00  0.00    +0.000 HD
ENDBRANCH  21  23
ENDBRANCH   2  17
TORSDOF 3
ENDMDL
