MODEL 1
REMARK VINA RESULT:      -7.1      0.000      0.000
REMARK  Name = 
REMARK  6 active torsions:
REMARK  status: ('A' for Active; 'I' for Inactive)
REMARK    1  A    between atoms: S_2  and  N_4
REMARK    2  A    between atoms: S_2  and  N_12
REMARK    3  A    between atoms: N_4  and  C_5
REMARK    4  A    between atoms: C_5  and  C_6
REMARK    5  A    between atoms: N_12  and  C_13
REMARK    6  A    between atoms: C_16  and  N_17
REMARK                            x       y       z     vdW  Elec       q    Type
REMARK                         _______ _______ _______ _____ _____    ______ ____
ROOT
ATOM      1  N   UNL     1       4.758   4.985  18.119  0.00  0.00    +0.000 N 
ATOM      2  H   UNL     1       5.698   5.320  17.908  0.00  0.00    +0.000 HD
ENDROOT
BRANCH   1   3
ATOM      3  C   UNL     1       3.854   6.047  18.422  0.00  0.00    +0.000 A 
ATOM      4  C   UNL     1       3.073   5.976  19.573  0.00  0.00    +0.000 A 
ATOM      5  C   UNL     1       2.183   7.011  19.886  0.00  0.00    +0.000 A 
ATOM      6  C   UNL     1       2.060   8.121  19.036  0.00  0.00    +0.000 A 
ATOM      7  C   UNL     1       2.847   8.177  17.874  0.00  0.00    +0.000 A 
ATOM      8  C   UNL     1       3.734   7.140  17.566  0.00  0.00    +0.000 A 
BRANCH   6   9
ATOM      9  N   UNL     1       1.141   9.170  19.334  0.00  0.00    +0.000 N 
ATOM     10  C   UNL     1       0.747  10.205  18.512  0.00  0.00    +0.000 A 
ATOM     11  C   UNL     1      -0.130  10.967  19.247  0.00  0.00    +0.000 A 
ATOM     12  N   UNL     1      -0.305  10.440  20.492  0.00  0.00    +0.000 NA
ATOM     13  C   UNL     1       0.462   9.372  20.518  0.00  0.00    +0.000 A 
ENDBRANCH   6   9
ENDBRANCH   1   3
BRANCH   1  15
ATOM     14  O   UNL     1       5.340   4.028  15.873  0.00  0.00    +0.000 OA
ATOM     15  S   UNL     1       4.334   3.907  16.899  0.00  0.00    +0.000 S 
ATOM     16  O   UNL     1       2.928   4.055  16.604  0.00  0.00    +0.000 OA
BRANCH  15  17
ATOM     17  N   UNL     1       4.516   2.450  17.687  0.00  0.00    +0.000 NA
ATOM     18  H   UNL     1       5.048   2.610  18.543  0.00  0.00    +0.000 HD
BRANCH  17  19
ATOM     19  C   UNL     1       3.269   1.715  17.960  0.00  0.00    +0.000 C 
BRANCH  19  20
ATOM     20  C   UNL     1       2.607   2.247  19.212  0.00  0.00    +0.000 A 
ATOM     21  C   UNL     1       3.323   2.360  20.412  0.00  0.00    +0.000 A 
ATOM     22  C   UNL     1       2.693   2.823  21.570  0.00  0.00    +0.000 A 
ATOM     23  C   UNL     1       1.347   3.182  21.539  0.00  0.00    +0.000 A 
ATOM     24  C   UNL     1       0.629   3.089  20.349  0.00  0.00    +0.000 A 
ATOM     25  C   UNL     1       1.255   2.625  19.190  0.00  0.00    +0.000 A 
ENDBRANCH  19  20
ENDBRANCH  17  19
ENDBRANCH  15  17
ENDBRANCH   1  15
TORSDOF 6
ENDMDL
MODEL 2
REMARK VINA RESULT:      -7.0      3.167      6.439
REMARK  Name = 
REMARK  6 active torsions:
REMARK  status: ('A' for Active; 'I' for Inactive)
REMARK    1  A    between atoms: S_2  and  N_4
REMARK    2  A    between atoms: S_2  and  N_12
REMARK    3  A    between atoms: N_4  and  C_5
REMARK    4  A    between atoms: C_5  and  C_6
REMARK    5  A    between atoms: N_12  and  C_13
REMARK    6  A    between atoms: C_16  and  N_17
REMARK                            x       y       z     vdW  Elec       q    Type
REMARK                         _______ _______ _______ _____ _____    ______ ____
ROOT
ATOM      1  N   UNL     1       3.353   2.728  20.486  0.00  0.00    +0.000 N 
ATOM      2  H   UNL     1       3.108   1.739  20.449  0.00  0.00    +0.000 HD
ENDROOT
BRANCH   1   3
ATOM      3  C   UNL     1       4.030   3.168  19.310  0.00  0.00    +0.000 A 
ATOM      4  C   UNL     1       3.539   2.807  18.058  0.00  0.00    +0.000 A 
ATOM      5  C   UNL     1       4.190   3.233  16.894  0.00  0.00    +0.000 A 
ATOM      6  C   UNL     1       5.352   4.016  16.979  0.00  0.00    +0.000 A 
ATOM      7  C   UNL     1       5.842   4.367  18.247  0.00  0.00    +0.000 A 
ATOM      8  C   UNL     1       5.188   3.938  19.406  0.00  0.00    +0.000 A 
BRANCH   6   9
ATOM      9  N   UNL     1       6.036   4.436  15.800  0.00  0.00    +0.000 N 
ATOM     10  C   UNL     1       5.800   4.037  14.500  0.00  0.00    +0.000 A 
ATOM     11  C   UNL     1       6.723   4.695  13.723  0.00  0.00    +0.000 A 
ATOM     12  N   UNL     1       7.517   5.497  14.487  0.00  0.00    +0.000 NA
ATOM     13  C   UNL     1       7.088   5.324  15.718  0.00  0.00    +0.000 A 
ENDBRANCH   6   9
ENDBRANCH   1   3
BRANCH   1  15
ATOM     14  O   UNL     1       1.614   3.057  22.266  0.00  0.00    +0.000 OA
ATOM     15  S   UNL     1       1.970   3.561  20.963  0.00  0.00    +0.000 S 
ATOM     16  O   UNL     1       1.025   3.574  19.870  0.00  0.00    +0.000 OA
BRANCH  15  17
ATOM     17  N   UNL     1       2.568   5.109  21.110  0.00  0.00    +0.000 NA
ATOM     18  H   UNL     1       3.337   5.223  20.448  0.00  0.00    +0.000 HD
BRANCH  17  19
ATOM     19  C   UNL     1       1.575   6.189  20.970  0.00  0.00    +0.000 C 
BRANCH  19  20
ATOM     20  C   UNL     1       1.941   7.095  19.814  0.00  0.00    +0.000 A 
ATOM     21  C   UNL     1       1.433   8.399  19.733  0.00  0.00    +0.000 A 
ATOM     22  C   UNL     1       1.752   9.215  18.645  0.00  0.00    +0.000 A 
ATOM     23  C   UNL     1       2.586   8.741  17.635  0.00  0.00    +0.000 A 
ATOM     24  C   UNL     1       3.109   7.452  17.712  0.00  0.00    +0.000 A 
ATOM     25  C   UNL     1       2.790   6.633  18.797  0.00  0.00    +0.000 A 
ENDBRANCH  19  20
ENDBRANCH  17  19
ENDBRANCH  15  17
ENDBRANCH   1  15
TORSDOF 6
ENDMDL
MODEL 3
REMARK VINA RESULT:      -7.0      1.273      2.031
REMARK  Name = 
REMARK  6 active torsions:
REMARK  status: ('A' for Active; 'I' for Inactive)
REMARK    1  A    between atoms: S_2  and  N_4
REMARK    2  A    between atoms: S_2  and  N_12
REMARK    3  A    between atoms: N_4  and  C_5
REMARK    4  A    between atoms: C_5  and  C_6
REMARK    5  A    between atoms: N_12  and  C_13
REMARK    6  A    between atoms: C_16  and  N_17
REMARK                            x       y       z     vdW  Elec       q    Type
REMARK                         _______ _______ _______ _____ _____    ______ ____
ROOT
ATOM      1  N   UNL     1       3.983   5.338  17.263  0.00  0.00    +0.000 N 
ATOM      2  H   UNL     1       3.483   4.454  17.163  0.00  0.00    +0.000 HD
ENDROOT
BRANCH   1   3
ATOM      3  C   UNL     1       3.272   6.282  18.062  0.00  0.00    +0.000 A 
ATOM      4  C   UNL     1       2.988   7.544  17.545  0.00  0.00    +0.000 A 
ATOM      5  C   UNL     1       2.288   8.481  18.315  0.00  0.00    +0.000 A 
ATOM      6  C   UNL     1       1.879   8.162  19.619  0.00  0.00    +0.000 A 
ATOM      7  C   UNL     1       2.179   6.889  20.132  0.00  0.00    +0.000 A 
ATOM      8  C   UNL     1       2.879   5.958  19.358  0.00  0.00    +0.000 A 
BRANCH   6   9
ATOM      9  N   UNL     1       1.186   9.117  20.420  0.00  0.00    +0.000 N 
ATOM     10  C   UNL     1       0.324  10.106  19.995  0.00  0.00    +0.000 A 
ATOM     11  C   UNL     1      -0.073  10.782  21.126  0.00  0.00    +0.000 A 
ATOM     12  N   UNL     1       0.501  10.243  22.238  0.00  0.00    +0.000 NA
ATOM     13  C   UNL     1       1.245   9.255  21.791  0.00  0.00    +0.000 A 
ENDBRANCH   6   9
ENDBRANCH   1   3
BRANCH   1  15
ATOM     14  O   UNL     1       6.026   6.035  18.545  0.00  0.00    +0.000 OA
ATOM     15  S   UNL     1       5.565   4.963  17.698  0.00  0.00    +0.000 S 
ATOM     16  O   UNL     1       6.297   4.561  16.519  0.00  0.00    +0.000 OA
BRANCH  15  17
ATOM     17  N   UNL     1       5.325   3.593  18.615  0.00  0.00    +0.000 NA
ATOM     18  H   UNL     1       5.213   3.873  19.590  0.00  0.00    +0.000 HD
BRANCH  17  19
ATOM     19  C   UNL     1       4.222   2.721  18.177  0.00  0.00    +0.000 C 
BRANCH  19  20
ATOM     20  C   UNL     1       3.112   2.716  19.205  0.00  0.00    +0.000 A 
ATOM     21  C   UNL     1       1.767   2.740  18.813  0.00  0.00    +0.000 A 
ATOM     22  C   UNL     1       0.752   2.767  19.772  0.00  0.00    +0.000 A 
ATOM     23  C   UNL     1       1.069   2.764  21.129  0.00  0.00    +0.000 A 
ATOM     24  C   UNL     1       2.403   2.725  21.531  0.00  0.00    +0.000 A 
ATOM     25  C   UNL     1       3.420   2.700  20.575  0.00  0.00    +0.000 A 
ENDBRANCH  19  20
ENDBRANCH  17  19
ENDBRANCH  15  17
ENDBRANCH   1  15
TORSDOF 6
ENDMDL
MODEL 4
REMARK VINA RESULT:      -7.0      1.301      1.778
REMARK  Name = 
REMARK  6 active torsions:
REMARK  status: ('A' for Active; 'I' for Inactive)
REMARK    1  A    between atoms: S_2  and  N_4
REMARK    2  A    between atoms: S_2  and  N_12
REMARK    3  A    between atoms: N_4  and  C_5
REMARK    4  A    between atoms: C_5  and  C_6
REMARK    5  A    between atoms: N_12  and  C_13
REMARK    6  A    between atoms: C_16  and  N_17
REMARK                            x       y       z     vdW  Elec       q    Type
REMARK                         _______ _______ _______ _____ _____    ______ ____
ROOT
ATOM      1  N   UNL     1       4.345   5.384  17.536  0.00  0.00    +0.000 N 
ATOM      2  H   UNL     1       3.828   4.528  17.336  0.00  0.00    +0.000 HD
ENDROOT
BRANCH   1   3
ATOM      3  C   UNL     1       3.522   6.401  18.104  0.00  0.00    +0.000 A 
ATOM      4  C   UNL     1       2.924   6.187  19.344  0.00  0.00    +0.000 A 
ATOM      5  C   UNL     1       2.115   7.176  19.917  0.00  0.00    +0.000 A 
ATOM      6  C   UNL     1       1.889   8.385  19.241  0.00  0.00    +0.000 A 
ATOM      7  C   UNL     1       2.491   8.586  17.988  0.00  0.00    +0.000 A 
ATOM      8  C   UNL     1       3.297   7.594  17.421  0.00  0.00    +0.000 A 
BRANCH   6   9
ATOM      9  N   UNL     1       1.049   9.390  19.806  0.00  0.00    +0.000 N 
ATOM     10  C   UNL     1       0.615  10.558  19.213  0.00  0.00    +0.000 A 
ATOM     11  C   UNL     1      -0.149  11.206  20.154  0.00  0.00    +0.000 A 
ATOM     12  N   UNL     1      -0.216  10.482  21.307  0.00  0.00    +0.000 NA
ATOM     13  C   UNL     1       0.505   9.407  21.073  0.00  0.00    +0.000 A 
ENDBRANCH   6   9
ENDBRANCH   1   3
BRANCH   1  15
ATOM     14  O   UNL     1       5.746   5.687  19.596  0.00  0.00    +0.000 OA
ATOM     15  S   UNL     1       5.738   4.935  18.366  0.00  0.00    +0.000 S 
ATOM     16  O   UNL     1       6.860   4.958  17.456  0.00  0.00    +0.000 OA
BRANCH  15  17
ATOM     17  N   UNL     1       5.409   3.334  18.694  0.00  0.00    +0.000 NA
ATOM     18  H   UNL     1       5.453   3.197  19.705  0.00  0.00    +0.000 HD
BRANCH  17  19
ATOM     19  C   UNL     1       4.147   2.818  18.137  0.00  0.00    +0.000 C 
BRANCH  19  20
ATOM     20  C   UNL     1       3.066   2.814  19.194  0.00  0.00    +0.000 A 
ATOM     21  C   UNL     1       1.713   2.918  18.842  0.00  0.00    +0.000 A 
ATOM     22  C   UNL     1       0.725   2.945  19.829  0.00  0.00    +0.000 A 
ATOM     23  C   UNL     1       1.077   2.861  21.174  0.00  0.00    +0.000 A 
ATOM     24  C   UNL     1       2.417   2.741  21.537  0.00  0.00    +0.000 A 
ATOM     25  C   UNL     1       3.406   2.716  20.553  0.00  0.00    +0.000 A 
ENDBRANCH  19  20
ENDBRANCH  17  19
ENDBRANCH  15  17
ENDBRANCH   1  15
TORSDOF 6
ENDMDL
MODEL 5
REMARK VINA RESULT:      -7.0      3.156      6.402
REMARK  Name = 
REMARK  6 active torsions:
REMARK  status: ('A' for Active; 'I' for Inactive)
REMARK    1  A    between atoms: S_2  and  N_4
REMARK    2  A    between atoms: S_2  and  N_12
REMARK    3  A    between atoms: N_4  and  C_5
REMARK    4  A    between atoms: C_5  and  C_6
REMARK    5  A    between atoms: N_12  and  C_13
REMARK    6  A    between atoms: C_16  and  N_17
REMARK                            x       y       z     vdW  Elec       q    Type
REMARK                         _______ _______ _______ _____ _____    ______ ____
ROOT
ATOM      1  N   UNL     1       3.366   2.660  20.583  0.00  0.00    +0.000 N 
ATOM      2  H   UNL     1       3.152   1.663  20.568  0.00  0.00    +0.000 HD
ENDROOT
BRANCH   1   3
ATOM      3  C   UNL     1       4.045   3.092  19.404  0.00  0.00    +0.000 A 
ATOM      4  C   UNL     1       5.210   3.846  19.521  0.00  0.00    +0.000 A 
ATOM      5  C   UNL     1       5.890   4.275  18.374  0.00  0.00    +0.000 A 
ATOM      6  C   UNL     1       5.396   3.961  17.098  0.00  0.00    +0.000 A 
ATOM      7  C   UNL     1       4.215   3.207  16.995  0.00  0.00    +0.000 A 
ATOM      8  C   UNL     1       3.540   2.782  18.144  0.00  0.00    +0.000 A 
BRANCH   6   9
ATOM      9  N   UNL     1       6.068   4.412  15.924  0.00  0.00    +0.000 N 
ATOM     10  C   UNL     1       5.802   4.068  14.615  0.00  0.00    +0.000 A 
ATOM     11  C   UNL     1       6.725   4.737  13.847  0.00  0.00    +0.000 A 
ATOM     12  N   UNL     1       7.549   5.491  14.627  0.00  0.00    +0.000 NA
ATOM     13  C   UNL     1       7.138   5.280  15.857  0.00  0.00    +0.000 A 
ENDBRANCH   6   9
ENDBRANCH   1   3
BRANCH   1  15
ATOM     14  O   UNL     1       1.543   2.911  22.290  0.00  0.00    +0.000 OA
ATOM     15  S   UNL     1       1.953   3.461  21.023  0.00  0.00    +0.000 S 
ATOM     16  O   UNL     1       1.059   3.501  19.888  0.00  0.00    +0.000 OA
BRANCH  15  17
ATOM     17  N   UNL     1       2.524   5.011  21.248  0.00  0.00    +0.000 NA
ATOM     18  H   UNL     1       3.343   5.142  20.653  0.00  0.00    +0.000 HD
BRANCH  17  19
ATOM     19  C   UNL     1       1.538   6.086  21.048  0.00  0.00    +0.000 C 
BRANCH  19  20
ATOM     20  C   UNL     1       1.943   6.965  19.885  0.00  0.00    +0.000 A 
ATOM     21  C   UNL     1       1.442   8.268  19.758  0.00  0.00    +0.000 A 
ATOM     22  C   UNL     1       1.799   9.058  18.663  0.00  0.00    +0.000 A 
ATOM     23  C   UNL     1       2.663   8.559  17.691  0.00  0.00    +0.000 A 
ATOM     24  C   UNL     1       3.180   7.271  17.814  0.00  0.00    +0.000 A 
ATOM     25  C   UNL     1       2.823   6.478  18.906  0.00  0.00    +0.000 A 
ENDBRANCH  19  20
ENDBRANCH  17  19
ENDBRANCH  15  17
ENDBRANCH   1  15
TORSDOF 6
ENDMDL
MODEL 6
REMARK VINA RESULT:      -6.9      0.596      1.392
REMARK  Name = 
REMARK  6 active torsions:
REMARK  status: ('A' for Active; 'I' for Inactive)
REMARK    1  A    between atoms: S_2  and  N_4
REMARK    2  A    between atoms: S_2  and  N_12
REMARK    3  A    between atoms: N_4  and  C_5
REMARK    4  A    between atoms: C_5  and  C_6
REMARK    5  A    between atoms: N_12  and  C_13
REMARK    6  A    between atoms: C_16  and  N_17
REMARK                            x       y       z     vdW  Elec       q    Type
REMARK                         _______ _______ _______ _____ _____    ______ ____
ROOT
ATOM      1  N   UNL     1       5.176   5.330  17.415  0.00  0.00    +0.000 N 
ATOM      2  H   UNL     1       5.769   5.835  16.756  0.00  0.00    +0.000 HD
ENDROOT
BRANCH   1   3
ATOM      3  C   UNL     1       4.194   6.169  18.021  0.00  0.00    +0.000 A 
ATOM      4  C   UNL     1       3.631   5.798  19.240  0.00  0.00    +0.000 A 
ATOM      5  C   UNL     1       2.668   6.612  19.849  0.00  0.00    +0.000 A 
ATOM      6  C   UNL     1       2.251   7.801  19.230  0.00  0.00    +0.000 A 
ATOM      7  C   UNL     1       2.821   8.160  17.998  0.00  0.00    +0.000 A 
ATOM      8  C   UNL     1       3.782   7.343  17.394  0.00  0.00    +0.000 A 
BRANCH   6   9
ATOM      9  N   UNL     1       1.255   8.626  19.831  0.00  0.00    +0.000 N 
ATOM     10  C   UNL     1       0.734   8.526  21.105  0.00  0.00    +0.000 A 
ATOM     11  C   UNL     1      -0.208   9.522  21.213  0.00  0.00    +0.000 A 
ATOM     12  N   UNL     1      -0.285  10.244  20.060  0.00  0.00    +0.000 NA
ATOM     13  C   UNL     1       0.595   9.690  19.255  0.00  0.00    +0.000 A 
ENDBRANCH   6   9
ENDBRANCH   1   3
BRANCH   1  15
ATOM     14  O   UNL     1       5.642   3.624  15.635  0.00  0.00    +0.000 OA
ATOM     15  S   UNL     1       4.655   3.932  16.639  0.00  0.00    +0.000 S 
ATOM     16  O   UNL     1       3.255   4.068  16.308  0.00  0.00    +0.000 OA
BRANCH  15  17
ATOM     17  N   UNL     1       4.757   2.823  17.879  0.00  0.00    +0.000 NA
ATOM     18  H   UNL     1       4.956   3.326  18.745  0.00  0.00    +0.000 HD
BRANCH  17  19
ATOM     19  C   UNL     1       3.595   1.931  18.030  0.00  0.00    +0.000 C 
BRANCH  19  20
ATOM     20  C   UNL     1       2.760   2.349  19.220  0.00  0.00    +0.000 A 
ATOM     21  C   UNL     1       1.421   2.734  19.061  0.00  0.00    +0.000 A 
ATOM     22  C   UNL     1       0.669   3.148  20.162  0.00  0.00    +0.000 A 
ATOM     23  C   UNL     1       1.242   3.176  21.431  0.00  0.00    +0.000 A 
ATOM     24  C   UNL     1       2.567   2.781  21.605  0.00  0.00    +0.000 A 
ATOM     25  C   UNL     1       3.322   2.368  20.506  0.00  0.00    +0.000 A 
ENDBRANCH  19  20
ENDBRANCH  17  19
ENDBRANCH  15  17
ENDBRANCH   1  15
TORSDOF 6
ENDMDL
MODEL 7
REMARK VINA RESULT:      -6.9      1.349      1.822
REMARK  Name = 
REMARK  6 active torsions:
REMARK  status: ('A' for Active; 'I' for Inactive)
REMARK    1  A    between atoms: S_2  and  N_4
REMARK    2  A    between atoms: S_2  and  N_12
REMARK    3  A    between atoms: N_4  and  C_5
REMARK    4  A    between atoms: C_5  and  C_6
REMARK    5  A    between atoms: N_12  and  C_13
REMARK    6  A    between atoms: C_16  and  N_17
REMARK                            x       y       z     vdW  Elec       q    Type
REMARK                         _______ _______ _______ _____ _____    ______ ____
ROOT
ATOM      1  N   UNL     1       4.002   5.427  17.528  0.00  0.00    +0.000 N 
ATOM      2  H   UNL     1       3.490   4.554  17.397  0.00  0.00    +0.000 HD
ENDROOT
BRANCH   1   3
ATOM      3  C   UNL     1       3.246   6.404  18.243  0.00  0.00    +0.000 A 
ATOM      4  C   UNL     1       2.985   7.637  17.652  0.00  0.00    +0.000 A 
ATOM      5  C   UNL     1       2.242   8.605  18.338  0.00  0.00    +0.000 A 
ATOM      6  C   UNL     1       1.765   8.346  19.632  0.00  0.00    +0.000 A 
ATOM      7  C   UNL     1       2.041   7.101  20.221  0.00  0.00    +0.000 A 
ATOM      8  C   UNL     1       2.785   6.138  19.530  0.00  0.00    +0.000 A 
BRANCH   6   9
ATOM      9  N   UNL     1       1.027   9.334  20.349  0.00  0.00    +0.000 N 
ATOM     10  C   UNL     1       0.084  10.209  19.850  0.00  0.00    +0.000 A 
ATOM     11  C   UNL     1      -0.329  10.976  20.914  0.00  0.00    +0.000 A 
ATOM     12  N   UNL     1       0.312  10.604  22.057  0.00  0.00    +0.000 NA
ATOM     13  C   UNL     1       1.112   9.626  21.694  0.00  0.00    +0.000 A 
ENDBRANCH   6   9
ENDBRANCH   1   3
BRANCH   1  15
ATOM     14  O   UNL     1       5.694   5.730  19.357  0.00  0.00    +0.000 OA
ATOM     15  S   UNL     1       5.526   5.020  18.114  0.00  0.00    +0.000 S 
ATOM     16  O   UNL     1       6.489   5.129  17.043  0.00  0.00    +0.000 OA
BRANCH  15  17
ATOM     17  N   UNL     1       5.323   3.395  18.424  0.00  0.00    +0.000 NA
ATOM     18  H   UNL     1       5.480   3.235  19.420  0.00  0.00    +0.000 HD
BRANCH  17  19
ATOM     19  C   UNL     1       4.040   2.820  17.984  0.00  0.00    +0.000 C 
BRANCH  19  20
ATOM     20  C   UNL     1       3.040   2.830  19.119  0.00  0.00    +0.000 A 
ATOM     21  C   UNL     1       3.460   2.712  20.451  0.00  0.00    +0.000 A 
ATOM     22  C   UNL     1       2.525   2.691  21.488  0.00  0.00    +0.000 A 
ATOM     23  C   UNL     1       1.165   2.795  21.206  0.00  0.00    +0.000 A 
ATOM     24  C   UNL     1       0.735   2.929  19.888  0.00  0.00    +0.000 A 
ATOM     25  C   UNL     1       1.667   2.949  18.849  0.00  0.00    +0.000 A 
ENDBRANCH  19  20
ENDBRANCH  17  19
ENDBRANCH  15  17
ENDBRANCH   1  15
TORSDOF 6
ENDMDL
MODEL 8
REMARK VINA RESULT:      -6.8      1.470      1.820
REMARK  Name = 
REMARK  6 active torsions:
REMARK  status: ('A' for Active; 'I' for Inactive)
REMARK    1  A    between atoms: S_2  and  N_4
REMARK    2  A    between atoms: S_2  and  N_12
REMARK    3  A    between atoms: N_4  and  C_5
REMARK    4  A    between atoms: C_5  and  C_6
REMARK    5  A    between atoms: N_12  and  C_13
REMARK    6  A    between atoms: C_16  and  N_17
REMARK                            x       y       z     vdW  Elec       q    Type
REMARK                         _______ _______ _______ _____ _____    ______ ____
ROOT
ATOM      1  N   UNL     1       3.265   5.564  17.668  0.00  0.00    +0.000 N 
ATOM      2  H   UNL     1       2.786   4.666  17.730  0.00  0.00    +0.000 HD
ENDROOT
BRANCH   1   3
ATOM      3  C   UNL     1       2.663   6.564  18.489  0.00  0.00    +0.000 A 
ATOM      4  C   UNL     1       2.274   6.243  19.787  0.00  0.00    +0.000 A 
ATOM      5  C   UNL     1       1.684   7.214  20.606  0.00  0.00    +0.000 A 
ATOM      6  C   UNL     1       1.468   8.513  20.122  0.00  0.00    +0.000 A 
ATOM      7  C   UNL     1       1.858   8.822  18.809  0.00  0.00    +0.000 A 
ATOM      8  C   UNL     1       2.446   7.848  17.995  0.00  0.00    +0.000 A 
BRANCH   6   9
ATOM      9  N   UNL     1       0.848   9.503  20.941  0.00  0.00    +0.000 N 
ATOM     10  C   UNL     1      -0.010   9.303  22.003  0.00  0.00    +0.000 A 
ATOM     11  C   UNL     1      -0.357  10.553  22.457  0.00  0.00    +0.000 A 
ATOM     12  N   UNL     1       0.259  11.523  21.725  0.00  0.00    +0.000 NA
ATOM     13  C   UNL     1       0.970  10.872  20.831  0.00  0.00    +0.000 A 
ENDBRANCH   6   9
ENDBRANCH   1   3
BRANCH   1  15
ATOM     14  O   UNL     1       5.270   5.768  19.164  0.00  0.00    +0.000 OA
ATOM     15  S   UNL     1       4.909   5.260  17.865  0.00  0.00    +0.000 S 
ATOM     16  O   UNL     1       5.611   5.666  16.669  0.00  0.00    +0.000 OA
BRANCH  15  17
ATOM     17  N   UNL     1       4.921   3.594  17.896  0.00  0.00    +0.000 NA
ATOM     18  H   UNL     1       5.341   3.291  18.776  0.00  0.00    +0.000 HD
BRANCH  17  19
ATOM     19  C   UNL     1       3.618   2.945  17.672  0.00  0.00    +0.000 C 
BRANCH  19  20
ATOM     20  C   UNL     1       2.834   2.877  18.964  0.00  0.00    +0.000 A 
ATOM     21  C   UNL     1       3.488   2.764  20.199  0.00  0.00    +0.000 A 
ATOM     22  C   UNL     1       2.753   2.670  21.383  0.00  0.00    +0.000 A 
ATOM     23  C   UNL     1       1.360   2.695  21.346  0.00  0.00    +0.000 A 
ATOM     24  C   UNL     1       0.698   2.823  20.127  0.00  0.00    +0.000 A 
ATOM     25  C   UNL     1       1.431   2.915  18.942  0.00  0.00    +0.000 A 
ENDBRANCH  19  20
ENDBRANCH  17  19
ENDBRANCH  15  17
ENDBRANCH   1  15
TORSDOF 6
ENDMDL
MODEL 9
REMARK VINA RESULT:      -6.8      2.230      3.922
REMARK  Name = 
REMARK  6 active torsions:
REMARK  status: ('A' for Active; 'I' for Inactive)
REMARK    1  A    between atoms: S_2  and  N_4
REMARK    2  A    between atoms: S_2  and  N_12
REMARK    3  A    between atoms: N_4  and  C_5
REMARK    4  A    between atoms: C_5  and  C_6
REMARK    5  A    between atoms: N_12  and  C_13
REMARK    6  A    between atoms: C_16  and  N_17
REMARK                            x       y       z     vdW  Elec       q    Type
REMARK                         _______ _______ _______ _____ _____    ______ ____
ROOT
ATOM      1  N   UNL     1       3.372   3.938  19.113  0.00  0.00    +0.000 N 
ATOM      2  H   UNL     1       4.392   3.953  19.107  0.00  0.00    +0.000 HD
ENDROOT
BRANCH   1   3
ATOM      3  C   UNL     1       2.808   5.192  19.495  0.00  0.00    +0.000 A 
ATOM      4  C   UNL     1       3.096   6.331  18.747  0.00  0.00    +0.000 A 
ATOM      5  C   UNL     1       2.549   7.568  19.107  0.00  0.00    +0.000 A 
ATOM      6  C   UNL     1       1.718   7.675  20.232  0.00  0.00    +0.000 A 
ATOM      7  C   UNL     1       1.442   6.521  20.984  0.00  0.00    +0.000 A 
ATOM      8  C   UNL     1       1.991   5.288  20.620  0.00  0.00    +0.000 A 
BRANCH   6   9
ATOM      9  N   UNL     1       1.174   8.935  20.621  0.00  0.00    +0.000 N 
ATOM     10  C   UNL     1       0.717   9.945  19.800  0.00  0.00    +0.000 A 
ATOM     11  C   UNL     1       0.312  10.963  20.631  0.00  0.00    +0.000 A 
ATOM     12  N   UNL     1       0.489  10.620  21.938  0.00  0.00    +0.000 NA
ATOM     13  C   UNL     1       1.003   9.410  21.904  0.00  0.00    +0.000 A 
ENDBRANCH   6   9
ENDBRANCH   1   3
BRANCH   1  15
ATOM     14  O   UNL     1       1.499   3.630  17.470  0.00  0.00    +0.000 OA
ATOM     15  S   UNL     1       2.880   3.260  17.654  0.00  0.00    +0.000 S 
ATOM     16  O   UNL     1       3.308   1.880  17.605  0.00  0.00    +0.000 OA
BRANCH  15  17
ATOM     17  N   UNL     1       3.831   4.104  16.576  0.00  0.00    +0.000 NA
ATOM     18  H   UNL     1       3.710   5.102  16.753  0.00  0.00    +0.000 HD
BRANCH  17  19
ATOM     19  C   UNL     1       5.255   3.730  16.558  0.00  0.00    +0.000 C 
BRANCH  19  20
ATOM     20  C   UNL     1       6.104   4.858  17.104  0.00  0.00    +0.000 A 
ATOM     21  C   UNL     1       7.009   4.636  18.151  0.00  0.00    +0.000 A 
ATOM     22  C   UNL     1       7.764   5.692  18.668  0.00  0.00    +0.000 A 
ATOM     23  C   UNL     1       7.628   6.974  18.140  0.00  0.00    +0.000 A 
ATOM     24  C   UNL     1       6.743   7.204  17.088  0.00  0.00    +0.000 A 
ATOM     25  C   UNL     1       5.986   6.151  16.571  0.00  0.00    +0.000 A 
ENDBRANCH  19  20
ENDBRANCH  17  19
ENDBRANCH  15  17
ENDBRANCH   1  15
TORSDOF 6
ENDMDL
