MODEL 1
REMARK VINA RESULT:      -7.5      0.000      0.000
REMARK  Name = 
REMARK  7 active torsions:
REMARK  status: ('A' for Active; 'I' for Inactive)
REMARK    1  A    between atoms: C_1  and  N_2
REMARK    2  A    between atoms: N_2  and  C_3
REMARK    3  A    between atoms: N_2  and  C_4
REMARK    4  A    between atoms: C_4  and  C_5
REMARK    5  A    between atoms: C_10  and  O_11
REMARK    6  A    between atoms: C_10  and  C_12
REMARK    7  A    between atoms: C_16  and  C_17
REMARK                            x       y       z     vdW  Elec       q    Type
REMARK                         _______ _______ _______ _____ _____    ______ ____
ROOT
ATOM      1  C   UNL     1       2.736   4.981  19.349  0.00  0.00    +0.000 C 
ATOM      2  C   UNL     1       1.491   4.746  20.227  0.00  0.00    +0.000 C 
ATOM      3  C   UNL     1       1.765   3.749  21.352  0.00  0.00    +0.000 C 
ATOM      4  C   UNL     1       2.311   2.428  20.823  0.00  0.00    +0.000 C 
ATOM      5  C   UNL     1       3.583   2.644  20.006  0.00  0.00    +0.000 C 
ATOM      6  C   UNL     1       3.371   3.638  18.841  0.00  0.00    +0.000 C 
ENDROOT
BRANCH   6   7
ATOM      7  C   UNL     1       4.708   3.925  18.140  0.00  0.00    +0.000 A 
ATOM      8  C   UNL     1       4.886   3.703  16.766  0.00  0.00    +0.000 A 
ATOM      9  C   UNL     1       6.022   4.175  16.102  0.00  0.00    +0.000 A 
ATOM     10  C   UNL     1       7.005   4.881  16.800  0.00  0.00    +0.000 A 
ATOM     11  C   UNL     1       6.869   5.079  18.178  0.00  0.00    +0.000 A 
ATOM     12  C   UNL     1       5.746   4.569  18.840  0.00  0.00    +0.000 A 
BRANCH  11  13
ATOM     13  C   UNL     1       7.813   5.909  18.975  0.00  0.00    +0.000 C 
ATOM     14  N   UNL     1       8.288   5.387  20.143  0.00  0.00    +0.000 N 
ATOM     15  O   UNL     1       8.157   7.024  18.607  0.00  0.00    +0.000 OA
ATOM     16  H   UNL     1       7.893   4.577  20.595  0.00  0.00    +0.000 HD
ATOM     17  H   UNL     1       8.879   5.998  20.697  0.00  0.00    +0.000 HD
ENDBRANCH  11  13
ENDBRANCH   6   7
BRANCH   6  18
ATOM     18  O   UNL     1       2.488   3.011  17.899  0.00  0.00    +0.000 OA
ATOM     19  H   UNL     1       1.580   3.073  18.232  0.00  0.00    +0.000 HD
ENDBRANCH   6  18
BRANCH   1  20
ATOM     20  C   UNL     1       2.432   5.943  18.162  0.00  0.00    +0.000 C 
BRANCH  20  22
ATOM     21  C   UNL     1       4.142   7.384  17.185  0.00  0.00    +0.000 C 
ATOM     22  N   UNL     1       3.096   7.263  18.209  0.00  0.00    +0.000 NA
ATOM     23  C   UNL     1       2.092   8.311  17.968  0.00  0.00    +0.000 C 
ENDBRANCH  20  22
ENDBRANCH   1  20
TORSDOF 5
ENDMDL
MODEL 2
REMARK VINA RESULT:      -7.5      1.108      1.202
REMARK  Name = 
REMARK  7 active torsions:
REMARK  status: ('A' for Active; 'I' for Inactive)
REMARK    1  A    between atoms: C_1  and  N_2
REMARK    2  A    between atoms: N_2  and  C_3
REMARK    3  A    between atoms: N_2  and  C_4
REMARK    4  A    between atoms: C_4  and  C_5
REMARK    5  A    between atoms: C_10  and  O_11
REMARK    6  A    between atoms: C_10  and  C_12
REMARK    7  A    between atoms: C_16  and  C_17
REMARK                            x       y       z     vdW  Elec       q    Type
REMARK                         _______ _______ _______ _____ _____    ______ ____
ROOT
ATOM      1  C   UNL     1       2.492   4.696  18.980  0.00  0.00    +0.000 C 
ATOM      2  C   UNL     1       1.196   4.221  19.667  0.00  0.00    +0.000 C 
ATOM      3  C   UNL     1       1.404   2.918  20.440  0.00  0.00    +0.000 C 
ATOM      4  C   UNL     1       1.983   1.818  19.558  0.00  0.00    +0.000 C 
ATOM      5  C   UNL     1       3.302   2.256  18.923  0.00  0.00    +0.000 C 
ATOM      6  C   UNL     1       3.158   3.567  18.116  0.00  0.00    +0.000 C 
ENDROOT
BRANCH   6   7
ATOM      7  C   UNL     1       4.535   4.035  17.619  0.00  0.00    +0.000 A 
ATOM      8  C   UNL     1       4.818   4.177  16.252  0.00  0.00    +0.000 A 
ATOM      9  C   UNL     1       5.987   4.812  15.821  0.00  0.00    +0.000 A 
ATOM     10  C   UNL     1       6.897   5.321  16.752  0.00  0.00    +0.000 A 
ATOM     11  C   UNL     1       6.656   5.154  18.118  0.00  0.00    +0.000 A 
ATOM     12  C   UNL     1       5.501   4.483  18.539  0.00  0.00    +0.000 A 
BRANCH  11  13
ATOM     13  C   UNL     1       7.517   5.757  19.173  0.00  0.00    +0.000 C 
ATOM     14  N   UNL     1       8.239   6.867  18.846  0.00  0.00    +0.000 N 
ATOM     15  O   UNL     1       7.582   5.282  20.298  0.00  0.00    +0.000 OA
ATOM     16  H   UNL     1       8.384   7.181  17.899  0.00  0.00    +0.000 HD
ATOM     17  H   UNL     1       8.864   7.220  19.563  0.00  0.00    +0.000 HD
ENDBRANCH  11  13
ENDBRANCH   6   7
BRANCH   6  18
ATOM     18  O   UNL     1       2.335   3.279  16.977  0.00  0.00    +0.000 OA
ATOM     19  H   UNL     1       2.871   3.368  16.173  0.00  0.00    +0.000 HD
ENDBRANCH   6  18
BRANCH   1  20
ATOM     20  C   UNL     1       2.259   5.984  18.137  0.00  0.00    +0.000 C 
BRANCH  20  22
ATOM     21  C   UNL     1       2.515   8.394  17.843  0.00  0.00    +0.000 C 
ATOM     22  N   UNL     1       2.755   7.246  18.728  0.00  0.00    +0.000 NA
ATOM     23  C   UNL     1       2.051   7.488  19.997  0.00  0.00    +0.000 C 
ENDBRANCH  20  22
ENDBRANCH   1  20
TORSDOF 5
ENDMDL
MODEL 3
REMARK VINA RESULT:      -7.4      2.140      2.666
REMARK  Name = 
REMARK  7 active torsions:
REMARK  status: ('A' for Active; 'I' for Inactive)
REMARK    1  A    between atoms: C_1  and  N_2
REMARK    2  A    between atoms: N_2  and  C_3
REMARK    3  A    between atoms: N_2  and  C_4
REMARK    4  A    between atoms: C_4  and  C_5
REMARK    5  A    between atoms: C_10  and  O_11
REMARK    6  A    between atoms: C_10  and  C_12
REMARK    7  A    between atoms: C_16  and  C_17
REMARK                            x       y       z     vdW  Elec       q    Type
REMARK                         _______ _______ _______ _____ _____    ______ ____
ROOT
ATOM      1  C   UNL     1       2.425   4.641  18.957  0.00  0.00    +0.000 C 
ATOM      2  C   UNL     1       1.128   4.032  19.525  0.00  0.00    +0.000 C 
ATOM      3  C   UNL     1       1.382   2.698  20.228  0.00  0.00    +0.000 C 
ATOM      4  C   UNL     1       2.094   1.702  19.320  0.00  0.00    +0.000 C 
ATOM      5  C   UNL     1       3.414   2.272  18.803  0.00  0.00    +0.000 C 
ATOM      6  C   UNL     1       3.225   3.621  18.072  0.00  0.00    +0.000 C 
ENDROOT
BRANCH   6   7
ATOM      7  C   UNL     1       4.592   4.215  17.697  0.00  0.00    +0.000 A 
ATOM      8  C   UNL     1       5.559   4.515  18.668  0.00  0.00    +0.000 A 
ATOM      9  C   UNL     1       6.869   4.840  18.303  0.00  0.00    +0.000 A 
ATOM     10  C   UNL     1       7.238   4.872  16.956  0.00  0.00    +0.000 A 
ATOM     11  C   UNL     1       6.281   4.617  15.970  0.00  0.00    +0.000 A 
ATOM     12  C   UNL     1       4.963   4.329  16.344  0.00  0.00    +0.000 A 
BRANCH  11  13
ATOM     13  C   UNL     1       6.614   4.525  14.521  0.00  0.00    +0.000 C 
ATOM     14  N   UNL     1       7.606   5.331  14.044  0.00  0.00    +0.000 N 
ATOM     15  O   UNL     1       6.025   3.756  13.774  0.00  0.00    +0.000 OA
ATOM     16  H   UNL     1       7.982   6.116  14.553  0.00  0.00    +0.000 HD
ATOM     17  H   UNL     1       7.769   5.294  13.044  0.00  0.00    +0.000 HD
ENDBRANCH  11  13
ENDBRANCH   6   7
BRANCH   6  18
ATOM     18  O   UNL     1       2.498   3.353  16.864  0.00  0.00    +0.000 OA
ATOM     19  H   UNL     1       2.942   3.798  16.125  0.00  0.00    +0.000 HD
ENDBRANCH   6  18
BRANCH   1  20
ATOM     20  C   UNL     1       2.151   5.963  18.181  0.00  0.00    +0.000 C 
BRANCH  20  22
ATOM     21  C   UNL     1       2.613   8.336  17.851  0.00  0.00    +0.000 C 
ATOM     22  N   UNL     1       2.741   7.190  18.760  0.00  0.00    +0.000 NA
ATOM     23  C   UNL     1       2.036   7.514  20.011  0.00  0.00    +0.000 C 
ENDBRANCH  20  22
ENDBRANCH   1  20
TORSDOF 5
ENDMDL
MODEL 4
REMARK VINA RESULT:      -7.3      1.882      2.393
REMARK  Name = 
REMARK  7 active torsions:
REMARK  status: ('A' for Active; 'I' for Inactive)
REMARK    1  A    between atoms: C_1  and  N_2
REMARK    2  A    between atoms: N_2  and  C_3
REMARK    3  A    between atoms: N_2  and  C_4
REMARK    4  A    between atoms: C_4  and  C_5
REMARK    5  A    between atoms: C_10  and  O_11
REMARK    6  A    between atoms: C_10  and  C_12
REMARK    7  A    between atoms: C_16  and  C_17
REMARK                            x       y       z     vdW  Elec       q    Type
REMARK                         _______ _______ _______ _____ _____    ______ ____
ROOT
ATOM      1  C   UNL     1       2.508   5.058  19.394  0.00  0.00    +0.000 C 
ATOM      2  C   UNL     1       1.238   4.430  20.003  0.00  0.00    +0.000 C 
ATOM      3  C   UNL     1       1.566   3.243  20.909  0.00  0.00    +0.000 C 
ATOM      4  C   UNL     1       2.399   2.189  20.190  0.00  0.00    +0.000 C 
ATOM      5  C   UNL     1       3.692   2.788  19.639  0.00  0.00    +0.000 C 
ATOM      6  C   UNL     1       3.429   3.991  18.703  0.00  0.00    +0.000 C 
ENDROOT
BRANCH   6   7
ATOM      7  C   UNL     1       4.760   4.640  18.290  0.00  0.00    +0.000 A 
ATOM      8  C   UNL     1       5.656   5.157  19.238  0.00  0.00    +0.000 A 
ATOM      9  C   UNL     1       6.950   5.538  18.872  0.00  0.00    +0.000 A 
ATOM     10  C   UNL     1       7.376   5.407  17.547  0.00  0.00    +0.000 A 
ATOM     11  C   UNL     1       6.487   4.932  16.578  0.00  0.00    +0.000 A 
ATOM     12  C   UNL     1       5.181   4.590  16.948  0.00  0.00    +0.000 A 
BRANCH  11  13
ATOM     13  C   UNL     1       6.890   4.661  15.171  0.00  0.00    +0.000 C 
ATOM     14  N   UNL     1       6.301   3.609  14.532  0.00  0.00    +0.000 N 
ATOM     15  O   UNL     1       7.721   5.351  14.596  0.00  0.00    +0.000 OA
ATOM     16  H   UNL     1       5.772   2.893  15.005  0.00  0.00    +0.000 HD
ATOM     17  H   UNL     1       6.639   3.409  13.597  0.00  0.00    +0.000 HD
ENDBRANCH  11  13
ENDBRANCH   6   7
BRANCH   6  18
ATOM     18  O   UNL     1       2.785   3.483  17.526  0.00  0.00    +0.000 OA
ATOM     19  H   UNL     1       3.374   2.843  17.097  0.00  0.00    +0.000 HD
ENDBRANCH   6  18
BRANCH   1  20
ATOM     20  C   UNL     1       2.164   6.220  18.416  0.00  0.00    +0.000 C 
BRANCH  20  22
ATOM     21  C   UNL     1       2.313   8.579  17.807  0.00  0.00    +0.000 C 
ATOM     22  N   UNL     1       2.582   7.573  18.843  0.00  0.00    +0.000 NA
ATOM     23  C   UNL     1       1.830   7.945  20.052  0.00  0.00    +0.000 C 
ENDBRANCH  20  22
ENDBRANCH   1  20
TORSDOF 5
ENDMDL
MODEL 5
REMARK VINA RESULT:      -7.3      0.995      1.269
REMARK  Name = 
REMARK  7 active torsions:
REMARK  status: ('A' for Active; 'I' for Inactive)
REMARK    1  A    between atoms: C_1  and  N_2
REMARK    2  A    between atoms: N_2  and  C_3
REMARK    3  A    between atoms: N_2  and  C_4
REMARK    4  A    between atoms: C_4  and  C_5
REMARK    5  A    between atoms: C_10  and  O_11
REMARK    6  A    between atoms: C_10  and  C_12
REMARK    7  A    between atoms: C_16  and  C_17
REMARK                            x       y       z     vdW  Elec       q    Type
REMARK                         _______ _______ _______ _____ _____    ______ ____
ROOT
ATOM      1  C   UNL     1       3.084   4.643  19.820  0.00  0.00    +0.000 C 
ATOM      2  C   UNL     1       1.747   4.355  20.533  0.00  0.00    +0.000 C 
ATOM      3  C   UNL     1       1.473   2.856  20.648  0.00  0.00    +0.000 C 
ATOM      4  C   UNL     1       1.524   2.160  19.293  0.00  0.00    +0.000 C 
ATOM      5  C   UNL     1       2.870   2.386  18.607  0.00  0.00    +0.000 C 
ATOM      6  C   UNL     1       3.205   3.887  18.450  0.00  0.00    +0.000 C 
ENDROOT
BRANCH   6   7
ATOM      7  C   UNL     1       4.624   4.057  17.885  0.00  0.00    +0.000 A 
ATOM      8  C   UNL     1       4.924   3.775  16.543  0.00  0.00    +0.000 A 
ATOM      9  C   UNL     1       6.153   4.143  15.988  0.00  0.00    +0.000 A 
ATOM     10  C   UNL     1       7.108   4.803  16.765  0.00  0.00    +0.000 A 
ATOM     11  C   UNL     1       6.847   5.058  18.115  0.00  0.00    +0.000 A 
ATOM     12  C   UNL     1       5.628   4.651  18.671  0.00  0.00    +0.000 A 
BRANCH  11  13
ATOM     13  C   UNL     1       7.763   5.849  18.983  0.00  0.00    +0.000 C 
ATOM     14  N   UNL     1       8.166   5.287  20.159  0.00  0.00    +0.000 N 
ATOM     15  O   UNL     1       8.146   6.965  18.664  0.00  0.00    +0.000 OA
ATOM     16  H   UNL     1       7.733   4.473  20.568  0.00  0.00    +0.000 HD
ATOM     17  H   UNL     1       8.738   5.871  20.760  0.00  0.00    +0.000 HD
ENDBRANCH  11  13
ENDBRANCH   6   7
BRANCH   6  18
ATOM     18  O   UNL     1       2.271   4.436  17.509  0.00  0.00    +0.000 OA
ATOM     19  H   UNL     1       1.421   3.979  17.607  0.00  0.00    +0.000 HD
ENDBRANCH   6  18
BRANCH   1  20
ATOM     20  C   UNL     1       3.324   6.172  19.641  0.00  0.00    +0.000 C 
BRANCH  20  22
ATOM     21  C   UNL     1       1.719   7.864  20.360  0.00  0.00    +0.000 C 
ATOM     22  N   UNL     1       2.141   6.976  19.268  0.00  0.00    +0.000 NA
ATOM     23  C   UNL     1       2.478   7.808  18.102  0.00  0.00    +0.000 C 
ENDBRANCH  20  22
ENDBRANCH   1  20
TORSDOF 5
ENDMDL
MODEL 6
REMARK VINA RESULT:      -7.0      2.325      4.962
REMARK  Name = 
REMARK  7 active torsions:
REMARK  status: ('A' for Active; 'I' for Inactive)
REMARK    1  A    between atoms: C_1  and  N_2
REMARK    2  A    between atoms: N_2  and  C_3
REMARK    3  A    between atoms: N_2  and  C_4
REMARK    4  A    between atoms: C_4  and  C_5
REMARK    5  A    between atoms: C_10  and  O_11
REMARK    6  A    between atoms: C_10  and  C_12
REMARK    7  A    between atoms: C_16  and  C_17
REMARK                            x       y       z     vdW  Elec       q    Type
REMARK                         _______ _______ _______ _____ _____    ______ ____
ROOT
ATOM      1  C   UNL     1       4.249   6.054  16.997  0.00  0.00    +0.000 C 
ATOM      2  C   UNL     1       5.446   6.483  16.124  0.00  0.00    +0.000 C 
ATOM      3  C   UNL     1       5.803   5.422  15.083  0.00  0.00    +0.000 C 
ATOM      4  C   UNL     1       6.058   4.061  15.719  0.00  0.00    +0.000 C 
ATOM      5  C   UNL     1       4.851   3.597  16.533  0.00  0.00    +0.000 C 
ATOM      6  C   UNL     1       4.443   4.624  17.615  0.00  0.00    +0.000 C 
ENDROOT
BRANCH   6   7
ATOM      7  C   UNL     1       3.146   4.176  18.307  0.00  0.00    +0.000 A 
ATOM      8  C   UNL     1       1.948   4.009  17.597  0.00  0.00    +0.000 A 
ATOM      9  C   UNL     1       0.842   3.391  18.187  0.00  0.00    +0.000 A 
ATOM     10  C   UNL     1       0.913   2.924  19.502  0.00  0.00    +0.000 A 
ATOM     11  C   UNL     1       2.083   3.116  20.243  0.00  0.00    +0.000 A 
ATOM     12  C   UNL     1       3.172   3.770  19.655  0.00  0.00    +0.000 A 
BRANCH  11  13
ATOM     13  C   UNL     1       2.280   2.556  21.608  0.00  0.00    +0.000 C 
ATOM     14  N   UNL     1       1.205   2.538  22.449  0.00  0.00    +0.000 N 
ATOM     15  O   UNL     1       3.363   2.125  21.976  0.00  0.00    +0.000 OA
ATOM     16  H   UNL     1       0.355   3.055  22.281  0.00  0.00    +0.000 HD
ATOM     17  H   UNL     1       1.381   2.211  23.392  0.00  0.00    +0.000 HD
ENDBRANCH  11  13
ENDBRANCH   6   7
BRANCH   6  18
ATOM     18  O   UNL     1       5.494   4.656  18.591  0.00  0.00    +0.000 OA
ATOM     19  H   UNL     1       5.747   3.746  18.810  0.00  0.00    +0.000 HD
ENDBRANCH   6  18
BRANCH   1  20
ATOM     20  C   UNL     1       3.935   7.106  18.101  0.00  0.00    +0.000 C 
BRANCH  20  22
ATOM     21  C   UNL     1       2.127   7.456  19.702  0.00  0.00    +0.000 C 
ATOM     22  N   UNL     1       2.508   7.449  18.284  0.00  0.00    +0.000 NA
ATOM     23  C   UNL     1       2.267   8.793  17.735  0.00  0.00    +0.000 C 
ENDBRANCH  20  22
ENDBRANCH   1  20
TORSDOF 5
ENDMDL
MODEL 7
REMARK VINA RESULT:      -7.0      2.163      2.742
REMARK  Name = 
REMARK  7 active torsions:
REMARK  status: ('A' for Active; 'I' for Inactive)
REMARK    1  A    between atoms: C_1  and  N_2
REMARK    2  A    between atoms: N_2  and  C_3
REMARK    3  A    between atoms: N_2  and  C_4
REMARK    4  A    between atoms: C_4  and  C_5
REMARK    5  A    between atoms: C_10  and  O_11
REMARK    6  A    between atoms: C_10  and  C_12
REMARK    7  A    between atoms: C_16  and  C_17
REMARK                            x       y       z     vdW  Elec       q    Type
REMARK                         _______ _______ _______ _____ _____    ______ ____
ROOT
ATOM      1  C   UNL     1       2.899   4.934  19.827  0.00  0.00    +0.000 C 
ATOM      2  C   UNL     1       1.501   4.503  20.315  0.00  0.00    +0.000 C 
ATOM      3  C   UNL     1       1.299   2.992  20.208  0.00  0.00    +0.000 C 
ATOM      4  C   UNL     1       1.561   2.480  18.796  0.00  0.00    +0.000 C 
ATOM      5  C   UNL     1       2.969   2.846  18.328  0.00  0.00    +0.000 C 
ATOM      6  C   UNL     1       3.235   4.367  18.403  0.00  0.00    +0.000 C 
ENDROOT
BRANCH   6   7
ATOM      7  C   UNL     1       4.703   4.664  18.056  0.00  0.00    +0.000 A 
ATOM      8  C   UNL     1       5.694   4.745  19.046  0.00  0.00    +0.000 A 
ATOM      9  C   UNL     1       7.049   4.792  18.704  0.00  0.00    +0.000 A 
ATOM     10  C   UNL     1       7.440   4.757  17.363  0.00  0.00    +0.000 A 
ATOM     11  C   UNL     1       6.468   4.718  16.359  0.00  0.00    +0.000 A 
ATOM     12  C   UNL     1       5.113   4.710  16.711  0.00  0.00    +0.000 A 
BRANCH  11  13
ATOM     13  C   UNL     1       6.799   4.571  14.915  0.00  0.00    +0.000 C 
ATOM     14  N   UNL     1       6.229   3.534  14.235  0.00  0.00    +0.000 N 
ATOM     15  O   UNL     1       7.555   5.346  14.346  0.00  0.00    +0.000 OA
ATOM     16  H   UNL     1       5.770   2.756  14.684  0.00  0.00    +0.000 HD
ATOM     17  H   UNL     1       6.520   3.419  13.270  0.00  0.00    +0.000 HD
ENDBRANCH  11  13
ENDBRANCH   6   7
BRANCH   6  18
ATOM     18  O   UNL     1       2.398   4.995  17.421  0.00  0.00    +0.000 OA
ATOM     19  H   UNL     1       1.716   5.513  17.876  0.00  0.00    +0.000 HD
ENDBRANCH   6  18
BRANCH   1  20
ATOM     20  C   UNL     1       3.074   6.481  19.871  0.00  0.00    +0.000 C 
BRANCH  20  22
ATOM     21  C   UNL     1       1.443   8.105  20.683  0.00  0.00    +0.000 C 
ATOM     22  N   UNL     1       1.872   7.280  19.547  0.00  0.00    +0.000 NA
ATOM     23  C   UNL     1       2.184   8.174  18.420  0.00  0.00    +0.000 C 
ENDBRANCH  20  22
ENDBRANCH   1  20
TORSDOF 5
ENDMDL
MODEL 8
REMARK VINA RESULT:      -6.9      2.637      5.032
REMARK  Name = 
REMARK  7 active torsions:
REMARK  status: ('A' for Active; 'I' for Inactive)
REMARK    1  A    between atoms: C_1  and  N_2
REMARK    2  A    between atoms: N_2  and  C_3
REMARK    3  A    between atoms: N_2  and  C_4
REMARK    4  A    between atoms: C_4  and  C_5
REMARK    5  A    between atoms: C_10  and  O_11
REMARK    6  A    between atoms: C_10  and  C_12
REMARK    7  A    between atoms: C_16  and  C_17
REMARK                            x       y       z     vdW  Elec       q    Type
REMARK                         _______ _______ _______ _____ _____    ______ ____
ROOT
ATOM      1  C   UNL     1       3.847   3.960  18.652  0.00  0.00    +0.000 C 
ATOM      2  C   UNL     1       3.906   2.427  18.496  0.00  0.00    +0.000 C 
ATOM      3  C   UNL     1       2.645   1.871  17.834  0.00  0.00    +0.000 C 
ATOM      4  C   UNL     1       1.380   2.291  18.573  0.00  0.00    +0.000 C 
ATOM      5  C   UNL     1       1.280   3.812  18.675  0.00  0.00    +0.000 C 
ATOM      6  C   UNL     1       2.524   4.439  19.346  0.00  0.00    +0.000 C 
ENDROOT
BRANCH   6   7
ATOM      7  C   UNL     1       2.435   5.972  19.297  0.00  0.00    +0.000 A 
ATOM      8  C   UNL     1       2.694   6.691  18.120  0.00  0.00    +0.000 A 
ATOM      9  C   UNL     1       2.394   8.053  18.028  0.00  0.00    +0.000 A 
ATOM     10  C   UNL     1       1.827   8.726  19.114  0.00  0.00    +0.000 A 
ATOM     11  C   UNL     1       1.599   8.040  20.310  0.00  0.00    +0.000 A 
ATOM     12  C   UNL     1       1.938   6.685  20.405  0.00  0.00    +0.000 A 
BRANCH  11  13
ATOM     13  C   UNL     1       0.902   8.651  21.476  0.00  0.00    +0.000 C 
ATOM     14  N   UNL     1       1.672   9.147  22.488  0.00  0.00    +0.000 N 
ATOM     15  O   UNL     1      -0.318   8.712  21.535  0.00  0.00    +0.000 OA
ATOM     16  H   UNL     1       2.655   8.947  22.592  0.00  0.00    +0.000 HD
ATOM     17  H   UNL     1       1.172   9.500  23.297  0.00  0.00    +0.000 HD
ENDBRANCH  11  13
ENDBRANCH   6   7
BRANCH   6  18
ATOM     18  O   UNL     1       2.521   4.026  20.720  0.00  0.00    +0.000 OA
ATOM     19  H   UNL     1       3.338   3.537  20.903  0.00  0.00    +0.000 HD
ENDBRANCH   6  18
BRANCH   1  20
ATOM     20  C   UNL     1       5.102   4.513  19.390  0.00  0.00    +0.000 C 
BRANCH  20  22
ATOM     21  C   UNL     1       6.040   5.046  17.201  0.00  0.00    +0.000 C 
ATOM     22  N   UNL     1       6.333   4.631  18.579  0.00  0.00    +0.000 NA
ATOM     23  C   UNL     1       7.210   5.644  19.188  0.00  0.00    +0.000 C 
ENDBRANCH  20  22
ENDBRANCH   1  20
TORSDOF 5
ENDMDL
MODEL 9
REMARK VINA RESULT:      -6.8      2.810      5.140
REMARK  Name = 
REMARK  7 active torsions:
REMARK  status: ('A' for Active; 'I' for Inactive)
REMARK    1  A    between atoms: C_1  and  N_2
REMARK    2  A    between atoms: N_2  and  C_3
REMARK    3  A    between atoms: N_2  and  C_4
REMARK    4  A    between atoms: C_4  and  C_5
REMARK    5  A    between atoms: C_10  and  O_11
REMARK    6  A    between atoms: C_10  and  C_12
REMARK    7  A    between atoms: C_16  and  C_17
REMARK                            x       y       z     vdW  Elec       q    Type
REMARK                         _______ _______ _______ _____ _____    ______ ____
ROOT
ATOM      1  C   UNL     1       3.973   4.624  18.404  0.00  0.00    +0.000 C 
ATOM      2  C   UNL     1       4.172   3.111  18.183  0.00  0.00    +0.000 C 
ATOM      3  C   UNL     1       2.947   2.462  17.539  0.00  0.00    +0.000 C 
ATOM      4  C   UNL     1       1.674   2.729  18.335  0.00  0.00    +0.000 C 
ATOM      5  C   UNL     1       1.434   4.229  18.503  0.00  0.00    +0.000 C 
ATOM      6  C   UNL     1       2.635   4.946  19.160  0.00  0.00    +0.000 C 
ENDROOT
BRANCH   6   7
ATOM      7  C   UNL     1       2.400   6.465  19.178  0.00  0.00    +0.000 A 
ATOM      8  C   UNL     1       2.439   7.233  18.004  0.00  0.00    +0.000 A 
ATOM      9  C   UNL     1       2.005   8.562  17.999  0.00  0.00    +0.000 A 
ATOM     10  C   UNL     1       1.521   9.150  19.171  0.00  0.00    +0.000 A 
ATOM     11  C   UNL     1       1.511   8.417  20.361  0.00  0.00    +0.000 A 
ATOM     12  C   UNL     1       1.983   7.098  20.363  0.00  0.00    +0.000 A 
BRANCH  11  13
ATOM     13  C   UNL     1       0.914   8.929  21.625  0.00  0.00    +0.000 C 
ATOM     14  N   UNL     1      -0.419   8.718  21.830  0.00  0.00    +0.000 N 
ATOM     15  O   UNL     1       1.585   9.522  22.458  0.00  0.00    +0.000 OA
ATOM     16  H   UNL     1      -1.056   8.424  21.106  0.00  0.00    +0.000 HD
ATOM     17  H   UNL     1      -0.812   9.132  22.668  0.00  0.00    +0.000 HD
ENDBRANCH  11  13
ENDBRANCH   6   7
BRANCH   6  18
ATOM     18  O   UNL     1       2.721   4.482  20.515  0.00  0.00    +0.000 OA
ATOM     19  H   UNL     1       2.606   5.237  21.113  0.00  0.00    +0.000 HD
ENDBRANCH   6  18
BRANCH   1  20
ATOM     20  C   UNL     1       5.194   5.267  19.125  0.00  0.00    +0.000 C 
BRANCH  20  22
ATOM     21  C   UNL     1       7.349   4.941  18.025  0.00  0.00    +0.000 C 
ATOM     22  N   UNL     1       6.227   5.862  18.248  0.00  0.00    +0.000 NA
ATOM     23  C   UNL     1       5.622   6.175  16.944  0.00  0.00    +0.000 C 
ENDBRANCH  20  22
ENDBRANCH   1  20
TORSDOF 5
ENDMDL
