MODEL 1
REMARK VINA RESULT:      -8.2      0.000      0.000
REMARK  Name = 
REMARK  4 active torsions:
REMARK  status: ('A' for Active; 'I' for Inactive)
REMARK    1  A    between atoms: C_6  and  C_7
REMARK    2  A    between atoms: C_14  and  N_15
REMARK    3  A    between atoms: N_15  and  C_16
REMARK    4  A    between atoms: C_19  and  O_20
REMARK                            x       y       z     vdW  Elec       q    Type
REMARK                         _______ _______ _______ _____ _____    ______ ____
ROOT
ATOM      1  O   UNL     1       4.129   0.739  18.596  0.00  0.00    +0.000 OA
ATOM      2  C   UNL     1       3.294   1.620  18.678  0.00  0.00    +0.000 C 
ATOM      3  N   UNL     1       1.956   1.485  18.713  0.00  0.00    +0.000 N 
ATOM      4  C   UNL     1       1.355   2.669  18.941  0.00  0.00    +0.000 C 
ATOM      5  O   UNL     1       0.164   2.840  19.114  0.00  0.00    +0.000 OA
ATOM      6  C   UNL     1       2.422   3.713  18.983  0.00  0.00    +0.000 C 
ATOM      7  C   UNL     1       3.592   3.076  18.795  0.00  0.00    +0.000 C 
ATOM      8  H   UNL     1       1.472   0.603  18.682  0.00  0.00    +0.000 HD
ENDROOT
BRANCH   6   9
ATOM      9  C   UNL     1       2.213   5.148  19.214  0.00  0.00    +0.000 A 
ATOM     10  C   UNL     1       1.794   5.630  20.462  0.00  0.00    +0.000 A 
ATOM     11  C   UNL     1       1.572   6.998  20.671  0.00  0.00    +0.000 A 
ATOM     12  C   UNL     1       1.768   7.902  19.630  0.00  0.00    +0.000 A 
ATOM     13 CL   UNL     1       1.478   9.578  19.880  0.00  0.00    +0.000 Cl
ATOM     14  C   UNL     1       2.199   7.451  18.388  0.00  0.00    +0.000 A 
ATOM     15  C   UNL     1       2.429   6.083  18.187  0.00  0.00    +0.000 A 
ENDBRANCH   6   9
BRANCH   7  16
ATOM     16  N   UNL     1       4.891   3.528  18.775  0.00  0.00    +0.000 N 
ATOM     17  H   UNL     1       5.518   2.818  19.168  0.00  0.00    +0.000 HD
BRANCH  16  18
ATOM     18  C   UNL     1       5.529   4.024  17.602  0.00  0.00    +0.000 A 
ATOM     19  C   UNL     1       4.962   3.977  16.322  0.00  0.00    +0.000 A 
ATOM     20  C   UNL     1       5.663   4.461  15.209  0.00  0.00    +0.000 A 
ATOM     21  C   UNL     1       6.924   5.021  15.381  0.00  0.00    +0.000 A 
ATOM     22  C   UNL     1       7.486   5.123  16.645  0.00  0.00    +0.000 A 
ATOM     23  C   UNL     1       6.790   4.627  17.750  0.00  0.00    +0.000 A 
BRANCH  21  24
ATOM     24  O   UNL     1       7.647   5.489  14.326  0.00  0.00    +0.000 OA
ATOM     25  H   UNL     1       8.558   5.655  14.621  0.00  0.00    +0.000 HD
ENDBRANCH  21  24
ENDBRANCH  16  18
ENDBRANCH   7  16
TORSDOF 4
ENDMDL
MODEL 2
REMARK VINA RESULT:      -8.2      1.005      1.176
REMARK  Name = 
REMARK  4 active torsions:
REMARK  status: ('A' for Active; 'I' for Inactive)
REMARK    1  A    between atoms: C_6  and  C_7
REMARK    2  A    between atoms: C_14  and  N_15
REMARK    3  A    between atoms: N_15  and  C_16
REMARK    4  A    between atoms: C_19  and  O_20
REMARK                            x       y       z     vdW  Elec       q    Type
REMARK                         _______ _______ _______ _____ _____    ______ ____
ROOT
ATOM      1  O   UNL     1       4.343   0.702  18.751  0.00  0.00    +0.000 OA
ATOM      2  C   UNL     1       3.522   1.597  18.676  0.00  0.00    +0.000 C 
ATOM      3  N   UNL     1       2.216   1.492  18.370  0.00  0.00    +0.000 N 
ATOM      4  C   UNL     1       1.587   2.674  18.513  0.00  0.00    +0.000 C 
ATOM      5  O   UNL     1       0.393   2.864  18.396  0.00  0.00    +0.000 OA
ATOM      6  C   UNL     1       2.620   3.689  18.882  0.00  0.00    +0.000 C 
ATOM      7  C   UNL     1       3.794   3.036  18.952  0.00  0.00    +0.000 C 
ATOM      8  H   UNL     1       1.747   0.624  18.168  0.00  0.00    +0.000 HD
ENDROOT
BRANCH   6   9
ATOM      9  C   UNL     1       2.373   5.114  19.140  0.00  0.00    +0.000 A 
ATOM     10  C   UNL     1       1.951   5.562  20.400  0.00  0.00    +0.000 A 
ATOM     11  C   UNL     1       1.692   6.919  20.635  0.00  0.00    +0.000 A 
ATOM     12  C   UNL     1       1.855   7.847  19.609  0.00  0.00    +0.000 A 
ATOM     13 CL   UNL     1       1.521   9.509  19.890  0.00  0.00    +0.000 Cl
ATOM     14  C   UNL     1       2.289   7.430  18.356  0.00  0.00    +0.000 A 
ATOM     15  C   UNL     1       2.555   6.072  18.129  0.00  0.00    +0.000 A 
ENDBRANCH   6   9
BRANCH   7  16
ATOM     16  N   UNL     1       5.062   3.458  19.281  0.00  0.00    +0.000 N 
ATOM     17  H   UNL     1       5.688   2.652  19.378  0.00  0.00    +0.000 HD
BRANCH  16  18
ATOM     18  C   UNL     1       5.778   4.439  18.538  0.00  0.00    +0.000 A 
ATOM     19  C   UNL     1       5.754   4.536  17.140  0.00  0.00    +0.000 A 
ATOM     20  C   UNL     1       6.508   5.512  16.476  0.00  0.00    +0.000 A 
ATOM     21  C   UNL     1       7.269   6.413  17.212  0.00  0.00    +0.000 A 
ATOM     22  C   UNL     1       7.271   6.367  18.599  0.00  0.00    +0.000 A 
ATOM     23  C   UNL     1       6.528   5.385  19.257  0.00  0.00    +0.000 A 
BRANCH  21  24
ATOM     24  O   UNL     1       8.030   7.367  16.609  0.00  0.00    +0.000 OA
ATOM     25  H   UNL     1       8.888   6.978  16.370  0.00  0.00    +0.000 HD
ENDBRANCH  21  24
ENDBRANCH  16  18
ENDBRANCH   7  16
TORSDOF 4
ENDMDL
MODEL 3
REMARK VINA RESULT:      -8.2      1.138      1.181
REMARK  Name = 
REMARK  4 active torsions:
REMARK  status: ('A' for Active; 'I' for Inactive)
REMARK    1  A    between atoms: C_6  and  C_7
REMARK    2  A    between atoms: C_14  and  N_15
REMARK    3  A    between atoms: N_15  and  C_16
REMARK    4  A    between atoms: C_19  and  O_20
REMARK                            x       y       z     vdW  Elec       q    Type
REMARK                         _______ _______ _______ _____ _____    ______ ____
ROOT
ATOM      1  O   UNL     1       4.824   1.791  20.180  0.00  0.00    +0.000 OA
ATOM      2  C   UNL     1       3.907   2.576  20.027  0.00  0.00    +0.000 C 
ATOM      3  N   UNL     1       2.593   2.353  20.204  0.00  0.00    +0.000 N 
ATOM      4  C   UNL     1       1.884   3.490  20.071  0.00  0.00    +0.000 C 
ATOM      5  O   UNL     1       0.691   3.612  20.266  0.00  0.00    +0.000 OA
ATOM      6  C   UNL     1       2.841   4.571  19.685  0.00  0.00    +0.000 C 
ATOM      7  C   UNL     1       4.061   4.006  19.632  0.00  0.00    +0.000 C 
ATOM      8  H   UNL     1       2.201   1.475  20.505  0.00  0.00    +0.000 HD
ENDROOT
BRANCH   6   9
ATOM      9  C   UNL     1       2.496   5.978  19.441  0.00  0.00    +0.000 A 
ATOM     10  C   UNL     1       1.999   6.793  20.468  0.00  0.00    +0.000 A 
ATOM     11  C   UNL     1       1.648   8.128  20.225  0.00  0.00    +0.000 A 
ATOM     12  C   UNL     1       1.793   8.665  18.948  0.00  0.00    +0.000 A 
ATOM     13 CL   UNL     1       1.346  10.297  18.645  0.00  0.00    +0.000 Cl
ATOM     14  C   UNL     1       2.301   7.883  17.918  0.00  0.00    +0.000 A 
ATOM     15  C   UNL     1       2.658   6.550  18.168  0.00  0.00    +0.000 A 
ENDBRANCH   6   9
BRANCH   7  16
ATOM     16  N   UNL     1       5.305   4.529  19.366  0.00  0.00    +0.000 N 
ATOM     17  H   UNL     1       6.022   4.015  19.888  0.00  0.00    +0.000 HD
BRANCH  16  18
ATOM     18  C   UNL     1       5.813   4.706  18.048  0.00  0.00    +0.000 A 
ATOM     19  C   UNL     1       5.362   3.991  16.930  0.00  0.00    +0.000 A 
ATOM     20  C   UNL     1       5.932   4.201  15.667  0.00  0.00    +0.000 A 
ATOM     21  C   UNL     1       6.937   5.148  15.515  0.00  0.00    +0.000 A 
ATOM     22  C   UNL     1       7.367   5.903  16.597  0.00  0.00    +0.000 A 
ATOM     23  C   UNL     1       6.807   5.682  17.857  0.00  0.00    +0.000 A 
BRANCH  21  24
ATOM     24  O   UNL     1       7.530   5.373  14.310  0.00  0.00    +0.000 OA
ATOM     25  H   UNL     1       8.474   5.554  14.454  0.00  0.00    +0.000 HD
ENDBRANCH  21  24
ENDBRANCH  16  18
ENDBRANCH   7  16
TORSDOF 4
ENDMDL
MODEL 4
REMARK VINA RESULT:      -8.2      0.068      1.029
REMARK  Name = 
REMARK  4 active torsions:
REMARK  status: ('A' for Active; 'I' for Inactive)
REMARK    1  A    between atoms: C_6  and  C_7
REMARK    2  A    between atoms: C_14  and  N_15
REMARK    3  A    between atoms: N_15  and  C_16
REMARK    4  A    between atoms: C_19  and  O_20
REMARK                            x       y       z     vdW  Elec       q    Type
REMARK                         _______ _______ _______ _____ _____    ______ ____
ROOT
ATOM      1  O   UNL     1       4.118   0.775  18.529  0.00  0.00    +0.000 OA
ATOM      2  C   UNL     1       3.274   1.646  18.622  0.00  0.00    +0.000 C 
ATOM      3  N   UNL     1       1.937   1.498  18.654  0.00  0.00    +0.000 N 
ATOM      4  C   UNL     1       1.324   2.672  18.899  0.00  0.00    +0.000 C 
ATOM      5  O   UNL     1       0.132   2.829  19.073  0.00  0.00    +0.000 OA
ATOM      6  C   UNL     1       2.381   3.726  18.958  0.00  0.00    +0.000 C 
ATOM      7  C   UNL     1       3.558   3.103  18.762  0.00  0.00    +0.000 C 
ATOM      8  H   UNL     1       1.462   0.611  18.610  0.00  0.00    +0.000 HD
ENDROOT
BRANCH   6   9
ATOM      9  C   UNL     1       2.158   5.156  19.210  0.00  0.00    +0.000 A 
ATOM     10  C   UNL     1       2.381   6.113  18.209  0.00  0.00    +0.000 A 
ATOM     11  C   UNL     1       2.190   7.479  18.461  0.00  0.00    +0.000 A 
ATOM     12  C   UNL     1       1.772   7.903  19.720  0.00  0.00    +0.000 A 
ATOM     13 CL   UNL     1       1.555   9.579  20.035  0.00  0.00    +0.000 Cl
ATOM     14  C   UNL     1       1.528   6.972  20.723  0.00  0.00    +0.000 A 
ATOM     15  C   UNL     1       1.712   5.607  20.463  0.00  0.00    +0.000 A 
ENDBRANCH   6   9
BRANCH   7  16
ATOM     16  N   UNL     1       4.853   3.569  18.749  0.00  0.00    +0.000 N 
ATOM     17  H   UNL     1       5.481   2.873  19.163  0.00  0.00    +0.000 HD
BRANCH  16  18
ATOM     18  C   UNL     1       5.500   4.050  17.576  0.00  0.00    +0.000 A 
ATOM     19  C   UNL     1       4.934   4.008  16.295  0.00  0.00    +0.000 A 
ATOM     20  C   UNL     1       5.644   4.476  15.181  0.00  0.00    +0.000 A 
ATOM     21  C   UNL     1       6.915   5.014  15.352  0.00  0.00    +0.000 A 
ATOM     22  C   UNL     1       7.477   5.111  16.617  0.00  0.00    +0.000 A 
ATOM     23  C   UNL     1       6.771   4.631  17.723  0.00  0.00    +0.000 A 
BRANCH  21  24
ATOM     24  O   UNL     1       7.647   5.466  14.297  0.00  0.00    +0.000 OA
ATOM     25  H   UNL     1       7.379   4.981  13.499  0.00  0.00    +0.000 HD
ENDBRANCH  21  24
ENDBRANCH  16  18
ENDBRANCH   7  16
TORSDOF 4
ENDMDL
MODEL 5
REMARK VINA RESULT:      -8.2      1.161      1.572
REMARK  Name = 
REMARK  4 active torsions:
REMARK  status: ('A' for Active; 'I' for Inactive)
REMARK    1  A    between atoms: C_6  and  C_7
REMARK    2  A    between atoms: C_14  and  N_15
REMARK    3  A    between atoms: N_15  and  C_16
REMARK    4  A    between atoms: C_19  and  O_20
REMARK                            x       y       z     vdW  Elec       q    Type
REMARK                         _______ _______ _______ _____ _____    ______ ____
ROOT
ATOM      1  O   UNL     1       4.855   1.782  20.302  0.00  0.00    +0.000 OA
ATOM      2  C   UNL     1       3.939   2.557  20.104  0.00  0.00    +0.000 C 
ATOM      3  N   UNL     1       2.622   2.337  20.274  0.00  0.00    +0.000 N 
ATOM      4  C   UNL     1       1.913   3.466  20.084  0.00  0.00    +0.000 C 
ATOM      5  O   UNL     1       0.717   3.593  20.257  0.00  0.00    +0.000 OA
ATOM      6  C   UNL     1       2.872   4.533  19.665  0.00  0.00    +0.000 C 
ATOM      7  C   UNL     1       4.094   3.969  19.652  0.00  0.00    +0.000 C 
ATOM      8  H   UNL     1       2.229   1.472  20.605  0.00  0.00    +0.000 HD
ENDROOT
BRANCH   6   9
ATOM      9  C   UNL     1       2.528   5.927  19.358  0.00  0.00    +0.000 A 
ATOM     10  C   UNL     1       2.699   6.451  18.069  0.00  0.00    +0.000 A 
ATOM     11  C   UNL     1       2.392   7.789  17.786  0.00  0.00    +0.000 A 
ATOM     12  C   UNL     1       1.908   8.620  18.793  0.00  0.00    +0.000 A 
ATOM     13 CL   UNL     1       1.549  10.266  18.452  0.00  0.00    +0.000 Cl
ATOM     14  C   UNL     1       1.714   8.120  20.075  0.00  0.00    +0.000 A 
ATOM     15  C   UNL     1       2.013   6.779  20.351  0.00  0.00    +0.000 A 
ENDBRANCH   6   9
BRANCH   7  16
ATOM     16  N   UNL     1       5.340   4.485  19.381  0.00  0.00    +0.000 N 
ATOM     17  H   UNL     1       6.059   3.948  19.877  0.00  0.00    +0.000 HD
BRANCH  16  18
ATOM     18  C   UNL     1       5.830   4.692  18.060  0.00  0.00    +0.000 A 
ATOM     19  C   UNL     1       5.397   3.970  16.940  0.00  0.00    +0.000 A 
ATOM     20  C   UNL     1       5.947   4.212  15.674  0.00  0.00    +0.000 A 
ATOM     21  C   UNL     1       6.915   5.199  15.522  0.00  0.00    +0.000 A 
ATOM     22  C   UNL     1       7.325   5.960  16.607  0.00  0.00    +0.000 A 
ATOM     23  C   UNL     1       6.784   5.707  17.869  0.00  0.00    +0.000 A 
BRANCH  21  24
ATOM     24  O   UNL     1       7.488   5.457  14.314  0.00  0.00    +0.000 OA
ATOM     25  H   UNL     1       6.847   5.931  13.758  0.00  0.00    +0.000 HD
ENDBRANCH  21  24
ENDBRANCH  16  18
ENDBRANCH   7  16
TORSDOF 4
ENDMDL
MODEL 6
REMARK VINA RESULT:      -8.1      1.053      1.873
REMARK  Name = 
REMARK  4 active torsions:
REMARK  status: ('A' for Active; 'I' for Inactive)
REMARK    1  A    between atoms: C_6  and  C_7
REMARK    2  A    between atoms: C_14  and  N_15
REMARK    3  A    between atoms: N_15  and  C_16
REMARK    4  A    between atoms: C_19  and  O_20
REMARK                            x       y       z     vdW  Elec       q    Type
REMARK                         _______ _______ _______ _____ _____    ______ ____
ROOT
ATOM      1  O   UNL     1       4.341   0.770  18.471  0.00  0.00    +0.000 OA
ATOM      2  C   UNL     1       3.512   1.660  18.459  0.00  0.00    +0.000 C 
ATOM      3  N   UNL     1       2.226   1.582  18.072  0.00  0.00    +0.000 N 
ATOM      4  C   UNL     1       1.574   2.734  18.321  0.00  0.00    +0.000 C 
ATOM      5  O   UNL     1       0.384   2.927  18.162  0.00  0.00    +0.000 OA
ATOM      6  C   UNL     1       2.570   3.705  18.864  0.00  0.00    +0.000 C 
ATOM      7  C   UNL     1       3.749   3.058  18.920  0.00  0.00    +0.000 C 
ATOM      8  H   UNL     1       1.781   0.741  17.742  0.00  0.00    +0.000 HD
ENDROOT
BRANCH   6   9
ATOM      9  C   UNL     1       2.289   5.087  19.277  0.00  0.00    +0.000 A 
ATOM     10  C   UNL     1       2.574   6.170  18.433  0.00  0.00    +0.000 A 
ATOM     11  C   UNL     1       2.328   7.488  18.840  0.00  0.00    +0.000 A 
ATOM     12  C   UNL     1       1.790   7.738  20.100  0.00  0.00    +0.000 A 
ATOM     13 CL   UNL     1       1.503   9.355  20.608  0.00  0.00    +0.000 Cl
ATOM     14  C   UNL     1       1.482   6.681  20.948  0.00  0.00    +0.000 A 
ATOM     15  C   UNL     1       1.722   5.363  20.533  0.00  0.00    +0.000 A 
ENDBRANCH   6   9
BRANCH   7  16
ATOM     16  N   UNL     1       4.990   3.448  19.365  0.00  0.00    +0.000 N 
ATOM     17  H   UNL     1       5.593   2.628  19.490  0.00  0.00    +0.000 HD
BRANCH  16  18
ATOM     18  C   UNL     1       5.782   4.435  18.713  0.00  0.00    +0.000 A 
ATOM     19  C   UNL     1       6.718   5.247  19.366  0.00  0.00    +0.000 A 
ATOM     20  C   UNL     1       7.441   6.219  18.661  0.00  0.00    +0.000 A 
ATOM     21  C   UNL     1       7.248   6.360  17.291  0.00  0.00    +0.000 A 
ATOM     22  C   UNL     1       6.362   5.535  16.614  0.00  0.00    +0.000 A 
ATOM     23  C   UNL     1       5.634   4.577  17.322  0.00  0.00    +0.000 A 
BRANCH  21  24
ATOM     24  O   UNL     1       7.917   7.301  16.569  0.00  0.00    +0.000 OA
ATOM     25  H   UNL     1       8.405   7.876  17.181  0.00  0.00    +0.000 HD
ENDBRANCH  21  24
ENDBRANCH  16  18
ENDBRANCH   7  16
TORSDOF 4
ENDMDL
MODEL 7
REMARK VINA RESULT:      -8.1      1.202      1.892
REMARK  Name = 
REMARK  4 active torsions:
REMARK  status: ('A' for Active; 'I' for Inactive)
REMARK    1  A    between atoms: C_6  and  C_7
REMARK    2  A    between atoms: C_14  and  N_15
REMARK    3  A    between atoms: N_15  and  C_16
REMARK    4  A    between atoms: C_19  and  O_20
REMARK                            x       y       z     vdW  Elec       q    Type
REMARK                         _______ _______ _______ _____ _____    ______ ____
ROOT
ATOM      1  O   UNL     1       4.837   2.037  20.172  0.00  0.00    +0.000 OA
ATOM      2  C   UNL     1       3.899   2.794  20.010  0.00  0.00    +0.000 C 
ATOM      3  N   UNL     1       2.590   2.530  20.171  0.00  0.00    +0.000 N 
ATOM      4  C   UNL     1       1.849   3.647  20.033  0.00  0.00    +0.000 C 
ATOM      5  O   UNL     1       0.650   3.731  20.214  0.00  0.00    +0.000 OA
ATOM      6  C   UNL     1       2.777   4.758  19.663  0.00  0.00    +0.000 C 
ATOM      7  C   UNL     1       4.014   4.230  19.624  0.00  0.00    +0.000 C 
ATOM      8  H   UNL     1       2.221   1.640  20.463  0.00  0.00    +0.000 HD
ENDROOT
BRANCH   6   9
ATOM      9  C   UNL     1       2.393   6.155  19.421  0.00  0.00    +0.000 A 
ATOM     10  C   UNL     1       2.516   6.732  18.149  0.00  0.00    +0.000 A 
ATOM     11  C   UNL     1       2.172   8.072  17.927  0.00  0.00    +0.000 A 
ATOM     12  C   UNL     1       1.698   8.852  18.979  0.00  0.00    +0.000 A 
ATOM     13 CL   UNL     1       1.293  10.501  18.713  0.00  0.00    +0.000 Cl
ATOM     14  C   UNL     1       1.551   8.299  20.246  0.00  0.00    +0.000 A 
ATOM     15  C   UNL     1       1.888   6.955  20.460  0.00  0.00    +0.000 A 
ENDBRANCH   6   9
BRANCH   7  16
ATOM     16  N   UNL     1       5.245   4.792  19.375  0.00  0.00    +0.000 N 
ATOM     17  H   UNL     1       5.966   4.321  19.931  0.00  0.00    +0.000 HD
BRANCH  16  18
ATOM     18  C   UNL     1       5.783   4.949  18.066  0.00  0.00    +0.000 A 
ATOM     19  C   UNL     1       6.833   5.821  17.749  0.00  0.00    +0.000 A 
ATOM     20  C   UNL     1       7.291   5.942  16.431  0.00  0.00    +0.000 A 
ATOM     21  C   UNL     1       6.716   5.169  15.428  0.00  0.00    +0.000 A 
ATOM     22  C   UNL     1       5.708   4.264  15.726  0.00  0.00    +0.000 A 
ATOM     23  C   UNL     1       5.245   4.155  17.039  0.00  0.00    +0.000 A 
BRANCH  21  24
ATOM     24  O   UNL     1       7.119   5.266  14.132  0.00  0.00    +0.000 OA
ATOM     25  H   UNL     1       7.770   4.567  13.952  0.00  0.00    +0.000 HD
ENDBRANCH  21  24
ENDBRANCH  16  18
ENDBRANCH   7  16
TORSDOF 4
ENDMDL
MODEL 8
REMARK VINA RESULT:      -8.0      0.242      1.458
REMARK  Name = 
REMARK  4 active torsions:
REMARK  status: ('A' for Active; 'I' for Inactive)
REMARK    1  A    between atoms: C_6  and  C_7
REMARK    2  A    between atoms: C_14  and  N_15
REMARK    3  A    between atoms: N_15  and  C_16
REMARK    4  A    between atoms: C_19  and  O_20
REMARK                            x       y       z     vdW  Elec       q    Type
REMARK                         _______ _______ _______ _____ _____    ______ ____
ROOT
ATOM      1  O   UNL     1       4.260   0.704  18.708  0.00  0.00    +0.000 OA
ATOM      2  C   UNL     1       3.408   1.572  18.729  0.00  0.00    +0.000 C 
ATOM      3  N   UNL     1       2.073   1.418  18.651  0.00  0.00    +0.000 N 
ATOM      4  C   UNL     1       1.438   2.590  18.840  0.00  0.00    +0.000 C 
ATOM      5  O   UNL     1       0.234   2.742  18.915  0.00  0.00    +0.000 OA
ATOM      6  C   UNL     1       2.482   3.649  18.983  0.00  0.00    +0.000 C 
ATOM      7  C   UNL     1       3.673   3.030  18.887  0.00  0.00    +0.000 C 
ATOM      8  H   UNL     1       1.608   0.529  18.570  0.00  0.00    +0.000 HD
ENDROOT
BRANCH   6   9
ATOM      9  C   UNL     1       2.232   5.078  19.211  0.00  0.00    +0.000 A 
ATOM     10  C   UNL     1       2.448   6.024  18.199  0.00  0.00    +0.000 A 
ATOM     11  C   UNL     1       2.233   7.389  18.428  0.00  0.00    +0.000 A 
ATOM     12  C   UNL     1       1.796   7.825  19.676  0.00  0.00    +0.000 A 
ATOM     13 CL   UNL     1       1.548   9.502  19.964  0.00  0.00    +0.000 Cl
ATOM     14  C   UNL     1       1.558   6.906  20.691  0.00  0.00    +0.000 A 
ATOM     15  C   UNL     1       1.766   5.540  20.454  0.00  0.00    +0.000 A 
ENDBRANCH   6   9
BRANCH   7  16
ATOM     16  N   UNL     1       4.962   3.501  18.980  0.00  0.00    +0.000 N 
ATOM     17  H   UNL     1       5.571   2.784  19.386  0.00  0.00    +0.000 HD
BRANCH  16  18
ATOM     18  C   UNL     1       5.673   4.059  17.880  0.00  0.00    +0.000 A 
ATOM     19  C   UNL     1       6.759   4.934  18.010  0.00  0.00    +0.000 A 
ATOM     20  C   UNL     1       7.392   5.465  16.878  0.00  0.00    +0.000 A 
ATOM     21  C   UNL     1       6.956   5.097  15.610  0.00  0.00    +0.000 A 
ATOM     22  C   UNL     1       5.914   4.194  15.456  0.00  0.00    +0.000 A 
ATOM     23  C   UNL     1       5.277   3.677  16.586  0.00  0.00    +0.000 A 
BRANCH  21  24
ATOM     24  O   UNL     1       7.531   5.600  14.483  0.00  0.00    +0.000 OA
ATOM     25  H   UNL     1       7.961   4.874  14.000  0.00  0.00    +0.000 HD
ENDBRANCH  21  24
ENDBRANCH  16  18
ENDBRANCH   7  16
TORSDOF 4
ENDMDL
MODEL 9
REMARK VINA RESULT:      -8.0      1.452      1.867
REMARK  Name = 
REMARK  4 active torsions:
REMARK  status: ('A' for Active; 'I' for Inactive)
REMARK    1  A    between atoms: C_6  and  C_7
REMARK    2  A    between atoms: C_14  and  N_15
REMARK    3  A    between atoms: N_15  and  C_16
REMARK    4  A    between atoms: C_19  and  O_20
REMARK                            x       y       z     vdW  Elec       q    Type
REMARK                         _______ _______ _______ _____ _____    ______ ____
ROOT
ATOM      1  O   UNL     1       4.910   2.686  19.772  0.00  0.00    +0.000 OA
ATOM      2  C   UNL     1       3.934   3.412  19.747  0.00  0.00    +0.000 C 
ATOM      3  N   UNL     1       2.664   3.095  20.058  0.00  0.00    +0.000 N 
ATOM      4  C   UNL     1       1.874   4.185  20.041  0.00  0.00    +0.000 C 
ATOM      5  O   UNL     1       0.704   4.220  20.369  0.00  0.00    +0.000 OA
ATOM      6  C   UNL     1       2.710   5.338  19.591  0.00  0.00    +0.000 C 
ATOM      7  C   UNL     1       3.950   4.858  19.387  0.00  0.00    +0.000 C 
ATOM      8  H   UNL     1       2.365   2.185  20.369  0.00  0.00    +0.000 HD
ENDROOT
BRANCH   6   9
ATOM      9  C   UNL     1       2.251   6.725  19.435  0.00  0.00    +0.000 A 
ATOM     10  C   UNL     1       1.724   7.442  20.518  0.00  0.00    +0.000 A 
ATOM     11  C   UNL     1       1.264   8.757  20.359  0.00  0.00    +0.000 A 
ATOM     12  C   UNL     1       1.328   9.370  19.111  0.00  0.00    +0.000 A 
ATOM     13 CL   UNL     1       0.747  10.976  18.910  0.00  0.00    +0.000 Cl
ATOM     14  C   UNL     1       1.861   8.686  18.025  0.00  0.00    +0.000 A 
ATOM     15  C   UNL     1       2.328   7.374  18.191  0.00  0.00    +0.000 A 
ENDBRANCH   6   9
BRANCH   7  16
ATOM     16  N   UNL     1       5.121   5.472  19.005  0.00  0.00    +0.000 N 
ATOM     17  H   UNL     1       5.865   5.261  19.678  0.00  0.00    +0.000 HD
BRANCH  16  18
ATOM     18  C   UNL     1       5.694   5.327  17.710  0.00  0.00    +0.000 A 
ATOM     19  C   UNL     1       6.916   4.689  17.460  0.00  0.00    +0.000 A 
ATOM     20  C   UNL     1       7.431   4.610  16.159  0.00  0.00    +0.000 A 
ATOM     21  C   UNL     1       6.708   5.145  15.099  0.00  0.00    +0.000 A 
ATOM     22  C   UNL     1       5.473   5.739  15.316  0.00  0.00    +0.000 A 
ATOM     23  C   UNL     1       4.969   5.828  16.615  0.00  0.00    +0.000 A 
BRANCH  21  24
ATOM     24  O   UNL     1       7.177   5.105  13.822  0.00  0.00    +0.000 OA
ATOM     25  H   UNL     1       7.932   4.493  13.784  0.00  0.00    +0.000 HD
ENDBRANCH  21  24
ENDBRANCH  16  18
ENDBRANCH   7  16
TORSDOF 4
ENDMDL
