MODEL 1
REMARK VINA RESULT:      -7.4      0.000      0.000
REMARK  Name = 
REMARK  6 active torsions:
REMARK  status: ('A' for Active; 'I' for Inactive)
REMARK    1  A    between atoms: C_2  and  C_16
REMARK    2  A    between atoms: N_3  and  C_4
REMARK    3  A    between atoms: C_4  and  C_5
REMARK    4  A    between atoms: C_5  and  O_6
REMARK    5  A    between atoms: C_5  and  C_7
REMARK    6  A    between atoms: C_7  and  C_8
REMARK                            x       y       z     vdW  Elec       q    Type
REMARK                         _______ _______ _______ _____ _____    ______ ____
ROOT
ATOM      1  C   UNL     1       5.539   5.625  18.357  0.00  0.00    +0.000 C 
ENDROOT
BRANCH   1   2
ATOM      2  O   UNL     1       6.166   5.608  19.649  0.00  0.00    +0.000 OA
ATOM      3  H   UNL     1       7.035   6.042  19.569  0.00  0.00    +0.000 HD
ENDBRANCH   1   2
BRANCH   1   4
ATOM      4  C   UNL     1       6.383   6.513  17.431  0.00  0.00    +0.000 C 
BRANCH   4   7
ATOM      5  O   UNL     1       7.878   4.387  16.415  0.00  0.00    +0.000 OA
ATOM      6  C   UNL     1       7.089   4.956  15.666  0.00  0.00    +0.000 C 
ATOM      7  N   UNL     1       6.339   6.038  16.062  0.00  0.00    +0.000 N 
ATOM      8  H   UNL     1       5.529   6.300  15.515  0.00  0.00    +0.000 HD
BRANCH   6   9
ATOM      9  C   UNL     1       6.865   4.528  14.295  0.00  0.00    +0.000 A 
ATOM     10  C   UNL     1       5.868   3.677  13.730  0.00  0.00    +0.000 A 
ATOM     11  C   UNL     1       6.113   3.628  12.378  0.00  0.00    +0.000 A 
ATOM     12  O   UNL     1       7.191   4.389  12.065  0.00  0.00    +0.000 OA
ATOM     13  C   UNL     1       7.638   4.933  13.223  0.00  0.00    +0.000 A 
ENDBRANCH   6   9
ENDBRANCH   4   7
ENDBRANCH   1   4
BRANCH   1  14
ATOM     14  C   UNL     1       4.099   6.153  18.431  0.00  0.00    +0.000 C 
BRANCH  14  15
ATOM     15  C   UNL     1       3.064   5.063  18.570  0.00  0.00    +0.000 A 
ATOM     16  C   UNL     1       2.219   5.001  19.687  0.00  0.00    +0.000 A 
ATOM     17  C   UNL     1       1.279   3.974  19.796  0.00  0.00    +0.000 A 
ATOM     18  C   UNL     1       1.181   3.015  18.792  0.00  0.00    +0.000 A 
ATOM     19  F   UNL     1       0.282   2.029  18.910  0.00  0.00    +0.000 F 
ATOM     20  C   UNL     1       2.000   3.062  17.675  0.00  0.00    +0.000 A 
ATOM     21  C   UNL     1       2.932   4.087  17.571  0.00  0.00    +0.000 A 
ATOM     22  F   UNL     1       3.727   4.133  16.492  0.00  0.00    +0.000 F 
ENDBRANCH  14  15
ENDBRANCH   1  14
TORSDOF 6
ENDMDL
MODEL 2
REMARK VINA RESULT:      -7.3      1.625      1.792
REMARK  Name = 
REMARK  6 active torsions:
REMARK  status: ('A' for Active; 'I' for Inactive)
REMARK    1  A    between atoms: C_2  and  C_16
REMARK    2  A    between atoms: N_3  and  C_4
REMARK    3  A    between atoms: C_4  and  C_5
REMARK    4  A    between atoms: C_5  and  O_6
REMARK    5  A    between atoms: C_5  and  C_7
REMARK    6  A    between atoms: C_7  and  C_8
REMARK                            x       y       z     vdW  Elec       q    Type
REMARK                         _______ _______ _______ _____ _____    ______ ____
ROOT
ATOM      1  C   UNL     1       4.300   6.357  17.895  0.00  0.00    +0.000 C 
ENDROOT
BRANCH   1   2
ATOM      2  O   UNL     1       3.424   7.395  17.431  0.00  0.00    +0.000 OA
ATOM      3  H   UNL     1       2.726   6.984  16.889  0.00  0.00    +0.000 HD
ENDBRANCH   1   2
BRANCH   1   4
ATOM      4  C   UNL     1       5.674   6.569  17.244  0.00  0.00    +0.000 C 
BRANCH   4   7
ATOM      5  O   UNL     1       7.703   4.907  16.288  0.00  0.00    +0.000 OA
ATOM      6  C   UNL     1       6.751   5.147  15.552  0.00  0.00    +0.000 C 
ATOM      7  N   UNL     1       5.724   5.986  15.918  0.00  0.00    +0.000 N 
ATOM      8  H   UNL     1       4.852   5.945  15.406  0.00  0.00    +0.000 HD
BRANCH   6   9
ATOM      9  C   UNL     1       6.613   4.554  14.233  0.00  0.00    +0.000 A 
ATOM     10  C   UNL     1       5.620   3.683  13.695  0.00  0.00    +0.000 A 
ATOM     11  C   UNL     1       5.970   3.447  12.386  0.00  0.00    +0.000 A 
ATOM     12  O   UNL     1       7.109   4.111  12.074  0.00  0.00    +0.000 OA
ATOM     13  C   UNL     1       7.491   4.781  13.189  0.00  0.00    +0.000 A 
ENDBRANCH   6   9
ENDBRANCH   4   7
ENDBRANCH   1   4
BRANCH   1  14
ATOM     14  C   UNL     1       3.759   4.961  17.551  0.00  0.00    +0.000 C 
BRANCH  14  15
ATOM     15  C   UNL     1       3.013   4.307  18.688  0.00  0.00    +0.000 A 
ATOM     16  C   UNL     1       1.632   4.484  18.849  0.00  0.00    +0.000 A 
ATOM     17  C   UNL     1       0.968   3.878  19.918  0.00  0.00    +0.000 A 
ATOM     18  C   UNL     1       1.682   3.094  20.821  0.00  0.00    +0.000 A 
ATOM     19  F   UNL     1       1.039   2.523  21.848  0.00  0.00    +0.000 F 
ATOM     20  C   UNL     1       3.046   2.898  20.676  0.00  0.00    +0.000 A 
ATOM     21  C   UNL     1       3.700   3.503  19.610  0.00  0.00    +0.000 A 
ATOM     22  F   UNL     1       5.021   3.316  19.469  0.00  0.00    +0.000 F 
ENDBRANCH  14  15
ENDBRANCH   1  14
TORSDOF 6
ENDMDL
MODEL 3
REMARK VINA RESULT:      -7.2      1.352      1.751
REMARK  Name = 
REMARK  6 active torsions:
REMARK  status: ('A' for Active; 'I' for Inactive)
REMARK    1  A    between atoms: C_2  and  C_16
REMARK    2  A    between atoms: N_3  and  C_4
REMARK    3  A    between atoms: C_4  and  C_5
REMARK    4  A    between atoms: C_5  and  O_6
REMARK    5  A    between atoms: C_5  and  C_7
REMARK    6  A    between atoms: C_7  and  C_8
REMARK                            x       y       z     vdW  Elec       q    Type
REMARK                         _______ _______ _______ _____ _____    ______ ____
ROOT
ATOM      1  C   UNL     1       5.023   6.285  18.022  0.00  0.00    +0.000 C 
ENDROOT
BRANCH   1   2
ATOM      2  O   UNL     1       3.921   6.384  17.106  0.00  0.00    +0.000 OA
ATOM      3  H   UNL     1       4.279   6.587  16.222  0.00  0.00    +0.000 HD
ENDBRANCH   1   2
BRANCH   1   4
ATOM      4  C   UNL     1       6.306   6.648  17.261  0.00  0.00    +0.000 C 
BRANCH   4   7
ATOM      5  O   UNL     1       7.859   4.518  16.342  0.00  0.00    +0.000 OA
ATOM      6  C   UNL     1       7.064   5.038  15.564  0.00  0.00    +0.000 C 
ATOM      7  N   UNL     1       6.286   6.118  15.911  0.00  0.00    +0.000 N 
ATOM      8  H   UNL     1       5.475   6.339  15.348  0.00  0.00    +0.000 HD
BRANCH   6   9
ATOM      9  C   UNL     1       6.861   4.551  14.210  0.00  0.00    +0.000 A 
ATOM     10  C   UNL     1       5.894   3.651  13.673  0.00  0.00    +0.000 A 
ATOM     11  C   UNL     1       6.149   3.557  12.325  0.00  0.00    +0.000 A 
ATOM     12  O   UNL     1       7.207   4.335  11.989  0.00  0.00    +0.000 OA
ATOM     13  C   UNL     1       7.630   4.936  13.127  0.00  0.00    +0.000 A 
ENDBRANCH   6   9
ENDBRANCH   4   7
ENDBRANCH   1   4
BRANCH   1  14
ATOM     14  C   UNL     1       5.140   4.875  18.619  0.00  0.00    +0.000 C 
BRANCH  14  15
ATOM     15  C   UNL     1       3.843   4.105  18.604  0.00  0.00    +0.000 A 
ATOM     16  C   UNL     1       3.611   3.090  17.664  0.00  0.00    +0.000 A 
ATOM     17  C   UNL     1       2.396   2.401  17.664  0.00  0.00    +0.000 A 
ATOM     18  C   UNL     1       1.418   2.723  18.602  0.00  0.00    +0.000 A 
ATOM     19  F   UNL     1       0.253   2.063  18.588  0.00  0.00    +0.000 F 
ATOM     20  C   UNL     1       1.630   3.715  19.545  0.00  0.00    +0.000 A 
ATOM     21  C   UNL     1       2.841   4.395  19.541  0.00  0.00    +0.000 A 
ATOM     22  F   UNL     1       3.047   5.358  20.452  0.00  0.00    +0.000 F 
ENDBRANCH  14  15
ENDBRANCH   1  14
TORSDOF 6
ENDMDL
MODEL 4
REMARK VINA RESULT:      -7.2      1.723      2.207
REMARK  Name = 
REMARK  6 active torsions:
REMARK  status: ('A' for Active; 'I' for Inactive)
REMARK    1  A    between atoms: C_2  and  C_16
REMARK    2  A    between atoms: N_3  and  C_4
REMARK    3  A    between atoms: C_4  and  C_5
REMARK    4  A    between atoms: C_5  and  O_6
REMARK    5  A    between atoms: C_5  and  C_7
REMARK    6  A    between atoms: C_7  and  C_8
REMARK                            x       y       z     vdW  Elec       q    Type
REMARK                         _______ _______ _______ _____ _____    ______ ____
ROOT
ATOM      1  C   UNL     1       6.135   4.298  17.454  0.00  0.00    +0.000 C 
ENDROOT
BRANCH   1   2
ATOM      2  O   UNL     1       7.498   4.283  17.907  0.00  0.00    +0.000 OA
ATOM      3  H   UNL     1       7.497   4.099  18.864  0.00  0.00    +0.000 HD
ENDBRANCH   1   2
BRANCH   1   4
ATOM      4  C   UNL     1       6.055   5.208  16.220  0.00  0.00    +0.000 C 
BRANCH   4   7
ATOM      5  O   UNL     1       7.460   5.226  13.807  0.00  0.00    +0.000 OA
ATOM      6  C   UNL     1       6.472   4.503  13.902  0.00  0.00    +0.000 C 
ATOM      7  N   UNL     1       5.692   4.457  15.034  0.00  0.00    +0.000 N 
ATOM      8  H   UNL     1       5.066   3.673  15.166  0.00  0.00    +0.000 HD
BRANCH   6   9
ATOM      9  C   UNL     1       6.045   3.619  12.831  0.00  0.00    +0.000 A 
ATOM     10  C   UNL     1       6.775   2.681  12.042  0.00  0.00    +0.000 A 
ATOM     11  C   UNL     1       5.871   2.098  11.185  0.00  0.00    +0.000 A 
ATOM     12  O   UNL     1       4.632   2.609  11.387  0.00  0.00    +0.000 OA
ATOM     13  C   UNL     1       4.740   3.522  12.383  0.00  0.00    +0.000 A 
ENDBRANCH   6   9
ENDBRANCH   4   7
ENDBRANCH   1   4
BRANCH   1  14
ATOM     14  C   UNL     1       5.179   4.799  18.546  0.00  0.00    +0.000 C 
BRANCH  14  15
ATOM     15  C   UNL     1       3.841   4.102  18.541  0.00  0.00    +0.000 A 
ATOM     16  C   UNL     1       2.740   4.646  17.863  0.00  0.00    +0.000 A 
ATOM     17  C   UNL     1       1.509   3.987  17.886  0.00  0.00    +0.000 A 
ATOM     18  C   UNL     1       1.379   2.786  18.579  0.00  0.00    +0.000 A 
ATOM     19  F   UNL     1       0.192   2.166  18.603  0.00  0.00    +0.000 F 
ATOM     20  C   UNL     1       2.456   2.226  19.248  0.00  0.00    +0.000 A 
ATOM     21  C   UNL     1       3.678   2.886  19.220  0.00  0.00    +0.000 A 
ATOM     22  F   UNL     1       4.721   2.346  19.869  0.00  0.00    +0.000 F 
ENDBRANCH  14  15
ENDBRANCH   1  14
TORSDOF 6
ENDMDL
MODEL 5
REMARK VINA RESULT:      -7.1      3.325      4.727
REMARK  Name = 
REMARK  6 active torsions:
REMARK  status: ('A' for Active; 'I' for Inactive)
REMARK    1  A    between atoms: C_2  and  C_16
REMARK    2  A    between atoms: N_3  and  C_4
REMARK    3  A    between atoms: C_4  and  C_5
REMARK    4  A    between atoms: C_5  and  O_6
REMARK    5  A    between atoms: C_5  and  C_7
REMARK    6  A    between atoms: C_7  and  C_8
REMARK                            x       y       z     vdW  Elec       q    Type
REMARK                         _______ _______ _______ _____ _____    ______ ____
ROOT
ATOM      1  C   UNL     1       1.726   4.419  19.515  0.00  0.00    +0.000 C 
ENDROOT
BRANCH   1   2
ATOM      2  O   UNL     1       0.707   3.815  20.327  0.00  0.00    +0.000 OA
ATOM      3  H   UNL     1       1.070   2.995  20.709  0.00  0.00    +0.000 HD
ENDBRANCH   1   2
BRANCH   1   4
ATOM      4  C   UNL     1       2.750   3.334  19.154  0.00  0.00    +0.000 C 
BRANCH   4   7
ATOM      5  O   UNL     1       5.483   3.864  19.372  0.00  0.00    +0.000 OA
ATOM      6  C   UNL     1       4.955   3.962  18.268  0.00  0.00    +0.000 C 
ATOM      7  N   UNL     1       3.609   3.762  18.067  0.00  0.00    +0.000 N 
ATOM      8  H   UNL     1       3.273   3.593  17.128  0.00  0.00    +0.000 HD
BRANCH   6   9
ATOM      9  C   UNL     1       5.709   4.285  17.068  0.00  0.00    +0.000 A 
ATOM     10  C   UNL     1       5.297   4.407  15.707  0.00  0.00    +0.000 A 
ATOM     11  C   UNL     1       6.417   4.751  14.986  0.00  0.00    +0.000 A 
ATOM     12  O   UNL     1       7.493   4.851  15.804  0.00  0.00    +0.000 OA
ATOM     13  C   UNL     1       7.061   4.574  17.058  0.00  0.00    +0.000 A 
ENDBRANCH   6   9
ENDBRANCH   4   7
ENDBRANCH   1   4
BRANCH   1  14
ATOM     14  C   UNL     1       2.417   5.581  20.243  0.00  0.00    +0.000 C 
BRANCH  14  15
ATOM     15  C   UNL     1       2.174   6.924  19.602  0.00  0.00    +0.000 A 
ATOM     16  C   UNL     1       2.566   7.180  18.280  0.00  0.00    +0.000 A 
ATOM     17  C   UNL     1       2.341   8.438  17.715  0.00  0.00    +0.000 A 
ATOM     18  C   UNL     1       1.723   9.434  18.466  0.00  0.00    +0.000 A 
ATOM     19  F   UNL     1       1.519  10.639  17.918  0.00  0.00    +0.000 F 
ATOM     20  C   UNL     1       1.319   9.200  19.771  0.00  0.00    +0.000 A 
ATOM     21  C   UNL     1       1.545   7.947  20.327  0.00  0.00    +0.000 A 
ATOM     22  F   UNL     1       1.156   7.719  21.590  0.00  0.00    +0.000 F 
ENDBRANCH  14  15
ENDBRANCH   1  14
TORSDOF 6
ENDMDL
MODEL 6
REMARK VINA RESULT:      -7.1      1.708      2.192
REMARK  Name = 
REMARK  6 active torsions:
REMARK  status: ('A' for Active; 'I' for Inactive)
REMARK    1  A    between atoms: C_2  and  C_16
REMARK    2  A    between atoms: N_3  and  C_4
REMARK    3  A    between atoms: C_4  and  C_5
REMARK    4  A    between atoms: C_5  and  O_6
REMARK    5  A    between atoms: C_5  and  C_7
REMARK    6  A    between atoms: C_7  and  C_8
REMARK                            x       y       z     vdW  Elec       q    Type
REMARK                         _______ _______ _______ _____ _____    ______ ____
ROOT
ATOM      1  C   UNL     1       4.753   5.732  18.052  0.00  0.00    +0.000 C 
ENDROOT
BRANCH   1   2
ATOM      2  O   UNL     1       5.009   6.959  17.352  0.00  0.00    +0.000 OA
ATOM      3  H   UNL     1       4.465   6.966  16.543  0.00  0.00    +0.000 HD
ENDBRANCH   1   2
BRANCH   1   4
ATOM      4  C   UNL     1       5.883   4.748  17.716  0.00  0.00    +0.000 C 
BRANCH   4   7
ATOM      5  O   UNL     1       7.555   6.018  15.876  0.00  0.00    +0.000 OA
ATOM      6  C   UNL     1       6.818   5.123  15.473  0.00  0.00    +0.000 C 
ATOM      7  N   UNL     1       5.930   4.467  16.294  0.00  0.00    +0.000 N 
ATOM      8  H   UNL     1       5.547   3.580  15.993  0.00  0.00    +0.000 HD
BRANCH   6   9
ATOM      9  C   UNL     1       6.826   4.663  14.095  0.00  0.00    +0.000 A 
ATOM     10  C   UNL     1       7.647   5.034  12.988  0.00  0.00    +0.000 A 
ATOM     11  C   UNL     1       7.236   4.271  11.920  0.00  0.00    +0.000 A 
ATOM     12  O   UNL     1       6.219   3.453  12.287  0.00  0.00    +0.000 OA
ATOM     13  C   UNL     1       5.979   3.689  13.600  0.00  0.00    +0.000 A 
ENDBRANCH   6   9
ENDBRANCH   4   7
ENDBRANCH   1   4
BRANCH   1  14
ATOM     14  C   UNL     1       3.393   5.131  17.667  0.00  0.00    +0.000 C 
BRANCH  14  15
ATOM     15  C   UNL     1       2.717   4.396  18.798  0.00  0.00    +0.000 A 
ATOM     16  C   UNL     1       2.510   3.011  18.744  0.00  0.00    +0.000 A 
ATOM     17  C   UNL     1       1.869   2.358  19.799  0.00  0.00    +0.000 A 
ATOM     18  C   UNL     1       1.439   3.086  20.905  0.00  0.00    +0.000 A 
ATOM     19  F   UNL     1       0.818   2.453  21.909  0.00  0.00    +0.000 F 
ATOM     20  C   UNL     1       1.641   4.455  20.983  0.00  0.00    +0.000 A 
ATOM     21  C   UNL     1       2.281   5.098  19.931  0.00  0.00    +0.000 A 
ATOM     22  F   UNL     1       2.475   6.423  20.004  0.00  0.00    +0.000 F 
ENDBRANCH  14  15
ENDBRANCH   1  14
TORSDOF 6
ENDMDL
MODEL 7
REMARK VINA RESULT:      -7.1      1.473      1.958
REMARK  Name = 
REMARK  6 active torsions:
REMARK  status: ('A' for Active; 'I' for Inactive)
REMARK    1  A    between atoms: C_2  and  C_16
REMARK    2  A    between atoms: N_3  and  C_4
REMARK    3  A    between atoms: C_4  and  C_5
REMARK    4  A    between atoms: C_5  and  O_6
REMARK    5  A    between atoms: C_5  and  C_7
REMARK    6  A    between atoms: C_7  and  C_8
REMARK                            x       y       z     vdW  Elec       q    Type
REMARK                         _______ _______ _______ _____ _____    ______ ____
ROOT
ATOM      1  C   UNL     1       6.176   5.051  18.602  0.00  0.00    +0.000 C 
ENDROOT
BRANCH   1   2
ATOM      2  O   UNL     1       6.808   5.121  19.890  0.00  0.00    +0.000 OA
ATOM      3  H   UNL     1       7.773   5.088  19.756  0.00  0.00    +0.000 HD
ENDBRANCH   1   2
BRANCH   1   4
ATOM      4  C   UNL     1       7.074   5.779  17.592  0.00  0.00    +0.000 C 
BRANCH   4   7
ATOM      5  O   UNL     1       5.478   6.407  15.390  0.00  0.00    +0.000 OA
ATOM      6  C   UNL     1       6.297   5.500  15.277  0.00  0.00    +0.000 C 
ATOM      7  N   UNL     1       7.099   5.090  16.317  0.00  0.00    +0.000 N 
ATOM      8  H   UNL     1       7.923   4.540  16.113  0.00  0.00    +0.000 HD
BRANCH   6   9
ATOM      9  C   UNL     1       6.506   4.785  14.029  0.00  0.00    +0.000 A 
ATOM     10  C   UNL     1       7.468   4.969  12.993  0.00  0.00    +0.000 A 
ATOM     11  C   UNL     1       7.222   3.999  12.049  0.00  0.00    +0.000 A 
ATOM     12  O   UNL     1       6.175   3.226  12.428  0.00  0.00    +0.000 OA
ATOM     13  C   UNL     1       5.749   3.701  13.624  0.00  0.00    +0.000 A 
ENDBRANCH   6   9
ENDBRANCH   4   7
ENDBRANCH   1   4
BRANCH   1  14
ATOM     14  C   UNL     1       4.777   5.684  18.621  0.00  0.00    +0.000 C 
BRANCH  14  15
ATOM     15  C   UNL     1       3.658   4.673  18.571  0.00  0.00    +0.000 A 
ATOM     16  C   UNL     1       3.533   3.780  17.498  0.00  0.00    +0.000 A 
ATOM     17  C   UNL     1       2.479   2.863  17.470  0.00  0.00    +0.000 A 
ATOM     18  C   UNL     1       1.556   2.837  18.512  0.00  0.00    +0.000 A 
ATOM     19  F   UNL     1       0.544   1.960  18.472  0.00  0.00    +0.000 F 
ATOM     20  C   UNL     1       1.666   3.705  19.587  0.00  0.00    +0.000 A 
ATOM     21  C   UNL     1       2.717   4.613  19.610  0.00  0.00    +0.000 A 
ATOM     22  F   UNL     1       2.824   5.455  20.649  0.00  0.00    +0.000 F 
ENDBRANCH  14  15
ENDBRANCH   1  14
TORSDOF 6
ENDMDL
MODEL 8
REMARK VINA RESULT:      -7.0      3.379      5.170
REMARK  Name = 
REMARK  6 active torsions:
REMARK  status: ('A' for Active; 'I' for Inactive)
REMARK    1  A    between atoms: C_2  and  C_16
REMARK    2  A    between atoms: N_3  and  C_4
REMARK    3  A    between atoms: C_4  and  C_5
REMARK    4  A    between atoms: C_5  and  O_6
REMARK    5  A    between atoms: C_5  and  C_7
REMARK    6  A    between atoms: C_7  and  C_8
REMARK                            x       y       z     vdW  Elec       q    Type
REMARK                         _______ _______ _______ _____ _____    ______ ____
ROOT
ATOM      1  C   UNL     1       1.700   4.097  19.888  0.00  0.00    +0.000 C 
ENDROOT
BRANCH   1   2
ATOM      2  O   UNL     1       0.531   3.480  20.449  0.00  0.00    +0.000 OA
ATOM      3  H   UNL     1      -0.146   4.171  20.571  0.00  0.00    +0.000 HD
ENDBRANCH   1   2
BRANCH   1   4
ATOM      4  C   UNL     1       2.843   3.071  19.928  0.00  0.00    +0.000 C 
BRANCH   4   7
ATOM      5  O   UNL     1       4.014   3.305  17.405  0.00  0.00    +0.000 OA
ATOM      6  C   UNL     1       4.598   3.796  18.366  0.00  0.00    +0.000 C 
ATOM      7  N   UNL     1       4.121   3.696  19.653  0.00  0.00    +0.000 N 
ATOM      8  H   UNL     1       4.481   4.326  20.359  0.00  0.00    +0.000 HD
BRANCH   6   9
ATOM      9  C   UNL     1       5.839   4.540  18.232  0.00  0.00    +0.000 A 
ATOM     10  C   UNL     1       6.516   5.405  19.141  0.00  0.00    +0.000 A 
ATOM     11  C   UNL     1       7.661   5.826  18.505  0.00  0.00    +0.000 A 
ATOM     12  O   UNL     1       7.740   5.283  17.266  0.00  0.00    +0.000 OA
ATOM     13  C   UNL     1       6.643   4.504  17.107  0.00  0.00    +0.000 A 
ENDBRANCH   6   9
ENDBRANCH   4   7
ENDBRANCH   1   4
BRANCH   1  14
ATOM     14  C   UNL     1       2.099   5.365  20.657  0.00  0.00    +0.000 C 
BRANCH  14  15
ATOM     15  C   UNL     1       2.064   6.616  19.815  0.00  0.00    +0.000 A 
ATOM     16  C   UNL     1       2.533   6.615  18.493  0.00  0.00    +0.000 A 
ATOM     17  C   UNL     1       2.502   7.791  17.739  0.00  0.00    +0.000 A 
ATOM     18  C   UNL     1       2.001   8.962  18.303  0.00  0.00    +0.000 A 
ATOM     19  F   UNL     1       1.984  10.086  17.576  0.00  0.00    +0.000 F 
ATOM     20  C   UNL     1       1.525   8.983  19.604  0.00  0.00    +0.000 A 
ATOM     21  C   UNL     1       1.557   7.810  20.348  0.00  0.00    +0.000 A 
ATOM     22  F   UNL     1       1.098   7.829  21.608  0.00  0.00    +0.000 F 
ENDBRANCH  14  15
ENDBRANCH   1  14
TORSDOF 6
ENDMDL
MODEL 9
REMARK VINA RESULT:      -7.0      1.375      1.646
REMARK  Name = 
REMARK  6 active torsions:
REMARK  status: ('A' for Active; 'I' for Inactive)
REMARK    1  A    between atoms: C_2  and  C_16
REMARK    2  A    between atoms: N_3  and  C_4
REMARK    3  A    between atoms: C_4  and  C_5
REMARK    4  A    between atoms: C_5  and  O_6
REMARK    5  A    between atoms: C_5  and  C_7
REMARK    6  A    between atoms: C_7  and  C_8
REMARK                            x       y       z     vdW  Elec       q    Type
REMARK                         _______ _______ _______ _____ _____    ______ ____
ROOT
ATOM      1  C   UNL     1       5.945   5.551  17.993  0.00  0.00    +0.000 C 
ENDROOT
BRANCH   1   2
ATOM      2  O   UNL     1       6.614   6.800  17.760  0.00  0.00    +0.000 OA
ATOM      3  H   UNL     1       6.238   7.463  18.367  0.00  0.00    +0.000 HD
ENDBRANCH   1   2
BRANCH   1   4
ATOM      4  C   UNL     1       6.815   4.430  17.406  0.00  0.00    +0.000 C 
BRANCH   4   7
ATOM      5  O   UNL     1       7.636   5.609  15.013  0.00  0.00    +0.000 OA
ATOM      6  C   UNL     1       6.852   4.666  14.960  0.00  0.00    +0.000 C 
ATOM      7  N   UNL     1       6.358   4.047  16.085  0.00  0.00    +0.000 N 
ATOM      8  H   UNL     1       5.940   3.130  15.996  0.00  0.00    +0.000 HD
BRANCH   6   9
ATOM      9  C   UNL     1       6.385   4.107  13.702  0.00  0.00    +0.000 A 
ATOM     10  C   UNL     1       7.090   3.756  12.513  0.00  0.00    +0.000 A 
ATOM     11  C   UNL     1       6.157   3.251  11.637  0.00  0.00    +0.000 A 
ATOM     12  O   UNL     1       4.924   3.265  12.199  0.00  0.00    +0.000 OA
ATOM     13  C   UNL     1       5.066   3.778  13.446  0.00  0.00    +0.000 A 
ENDBRANCH   6   9
ENDBRANCH   4   7
ENDBRANCH   1   4
BRANCH   1  14
ATOM     14  C   UNL     1       4.548   5.528  17.357  0.00  0.00    +0.000 C 
BRANCH  14  15
ATOM     15  C   UNL     1       3.474   5.009  18.281  0.00  0.00    +0.000 A 
ATOM     16  C   UNL     1       3.323   5.518  19.579  0.00  0.00    +0.000 A 
ATOM     17  C   UNL     1       2.329   5.010  20.418  0.00  0.00    +0.000 A 
ATOM     18  C   UNL     1       1.486   4.001  19.961  0.00  0.00    +0.000 A 
ATOM     19  F   UNL     1       0.541   3.514  20.776  0.00  0.00    +0.000 F 
ATOM     20  C   UNL     1       1.611   3.490  18.679  0.00  0.00    +0.000 A 
ATOM     21  C   UNL     1       2.601   4.000  17.848  0.00  0.00    +0.000 A 
ATOM     22  F   UNL     1       2.725   3.505  16.608  0.00  0.00    +0.000 F 
ENDBRANCH  14  15
ENDBRANCH   1  14
TORSDOF 6
ENDMDL
