MODEL 1
REMARK VINA RESULT:      -7.8      0.000      0.000
REMARK  Name = 
REMARK  8 active torsions:
REMARK  status: ('A' for Active; 'I' for Inactive)
REMARK    1  A    between atoms: C_1  and  O_2
REMARK    2  A    between atoms: O_2  and  C_3
REMARK    3  A    between atoms: N_11  and  C_12
REMARK    4  A    between atoms: C_12  and  C_13
REMARK    5  A    between atoms: C_13  and  C_14
REMARK    6  A    between atoms: C_15  and  C_16
REMARK    7  A    between atoms: C_21  and  N_22
REMARK    8  A    between atoms: N_25  and  C_26
REMARK                            x       y       z     vdW  Elec       q    Type
REMARK                         _______ _______ _______ _____ _____    ______ ____
ROOT
ATOM      1  C   UNL     1      -2.587  12.786  22.504  0.00  0.00    +0.000 C 
ATOM      2  N   UNL     1      -3.601  12.142  23.300  0.00  0.00    +0.000 N 
ATOM      3  C   UNL     1      -4.574  13.015  23.711  0.00  0.00    +0.000 C 
ATOM      4  O   UNL     1      -5.588  12.717  24.317  0.00  0.00    +0.000 OA
ATOM      5  N   UNL     1      -4.202  14.267  23.357  0.00  0.00    +0.000 N 
ATOM      6  C   UNL     1      -2.975  14.249  22.758  0.00  0.00    +0.000 C 
ATOM      7  O   UNL     1      -2.348  15.241  22.416  0.00  0.00    +0.000 OA
ATOM      8  H   UNL     1      -3.599  11.170  23.583  0.00  0.00    +0.000 HD
ATOM      9  H   UNL     1      -4.722  15.090  23.608  0.00  0.00    +0.000 HD
ENDROOT
BRANCH   1  10
ATOM     10  C   UNL     1      -2.885  12.433  21.057  0.00  0.00    +0.000 C 
ATOM     11  C   UNL     1      -3.141  12.129  19.815  0.00  0.00    +0.000 C 
BRANCH  11  12
ATOM     12  C   UNL     1      -3.429  11.729  18.474  0.00  0.00    +0.000 A 
ATOM     13  C   UNL     1      -2.374  11.211  17.711  0.00  0.00    +0.000 A 
ATOM     14  C   UNL     1      -2.628  10.705  16.446  0.00  0.00    +0.000 A 
ATOM     15  C   UNL     1      -3.933  10.737  15.997  0.00  0.00    +0.000 A 
ATOM     16  N   UNL     1      -4.968  11.231  16.714  0.00  0.00    +0.000 NA
ATOM     17  C   UNL     1      -4.736  11.739  17.951  0.00  0.00    +0.000 A 
BRANCH  17  18
ATOM     18  N   UNL     1      -5.832  12.170  18.664  0.00  0.00    +0.000 N 
ATOM     19  C   UNL     1      -6.204  13.568  18.896  0.00  0.00    +0.000 C 
ATOM     20  C   UNL     1      -6.523  13.738  20.399  0.00  0.00    +0.000 C 
ATOM     21  N   UNL     1      -7.632  12.857  20.824  0.00  0.00    +0.000 NA
ATOM     22  C   UNL     1      -7.905  13.025  22.250  0.00  0.00    +0.000 C 
ATOM     23  C   UNL     1      -7.278  11.447  20.513  0.00  0.00    +0.000 C 
ATOM     24  C   UNL     1      -6.887  11.222  19.027  0.00  0.00    +0.000 C 
ENDBRANCH  17  18
ENDBRANCH  11  12
ENDBRANCH   1  10
BRANCH   1  25
ATOM     25  C   UNL     1      -1.125  12.468  22.834  0.00  0.00    +0.000 C 
BRANCH  25  34
ATOM     26  C   UNL     1       1.734   8.416  19.402  0.00  0.00    +0.000 A 
ATOM     27  C   UNL     1       1.779   9.463  18.454  0.00  0.00    +0.000 A 
ATOM     28  C   UNL     1       1.221  10.725  18.726  0.00  0.00    +0.000 A 
ATOM     29  C   UNL     1       0.613  10.912  19.953  0.00  0.00    +0.000 A 
ATOM     30  C   UNL     1       0.555   9.856  20.861  0.00  0.00    +0.000 A 
ATOM     31  C   UNL     1       1.111   8.616  20.630  0.00  0.00    +0.000 A 
ATOM     32  C   UNL     1      -0.165  10.296  22.052  0.00  0.00    +0.000 C 
ATOM     33  O   UNL     1      -0.452   9.597  23.003  0.00  0.00    +0.000 OA
ATOM     34  N   UNL     1      -0.443  11.637  21.857  0.00  0.00    +0.000 N 
ATOM     35  C   UNL     1      -0.041  12.119  20.540  0.00  0.00    +0.000 C 
BRANCH  26  37
ATOM     36  C   UNL     1       3.191   7.336  17.879  0.00  0.00    +0.000 C 
ATOM     37  O   UNL     1       2.329   7.246  19.011  0.00  0.00    +0.000 OA
ENDBRANCH  26  37
ENDBRANCH  25  34
ENDBRANCH   1  25
TORSDOF 6
ENDMDL
MODEL 2
REMARK VINA RESULT:      -7.6      2.234      3.002
REMARK  Name = 
REMARK  8 active torsions:
REMARK  status: ('A' for Active; 'I' for Inactive)
REMARK    1  A    between atoms: C_1  and  O_2
REMARK    2  A    between atoms: O_2  and  C_3
REMARK    3  A    between atoms: N_11  and  C_12
REMARK    4  A    between atoms: C_12  and  C_13
REMARK    5  A    between atoms: C_13  and  C_14
REMARK    6  A    between atoms: C_15  and  C_16
REMARK    7  A    between atoms: C_21  and  N_22
REMARK    8  A    between atoms: N_25  and  C_26
REMARK                            x       y       z     vdW  Elec       q    Type
REMARK                         _______ _______ _______ _____ _____    ______ ____
ROOT
ATOM      1  C   UNL     1      -2.574  12.891  22.784  0.00  0.00    +0.000 C 
ATOM      2  N   UNL     1      -3.428  12.017  23.548  0.00  0.00    +0.000 N 
ATOM      3  C   UNL     1      -4.543  12.659  24.021  0.00  0.00    +0.000 C 
ATOM      4  O   UNL     1      -5.467  12.137  24.617  0.00  0.00    +0.000 OA
ATOM      5  N   UNL     1      -4.426  13.979  23.741  0.00  0.00    +0.000 N 
ATOM      6  C   UNL     1      -3.231  14.233  23.131  0.00  0.00    +0.000 C 
ATOM      7  O   UNL     1      -2.814  15.347  22.844  0.00  0.00    +0.000 OA
ATOM      8  H   UNL     1      -3.234  11.049  23.771  0.00  0.00    +0.000 HD
ATOM      9  H   UNL     1      -5.089  14.670  24.047  0.00  0.00    +0.000 HD
ENDROOT
BRANCH   1  10
ATOM     10  C   UNL     1      -2.829  12.572  21.321  0.00  0.00    +0.000 C 
ATOM     11  C   UNL     1      -3.048  12.297  20.065  0.00  0.00    +0.000 C 
BRANCH  11  12
ATOM     12  C   UNL     1      -3.311  11.933  18.709  0.00  0.00    +0.000 A 
ATOM     13  C   UNL     1      -2.236  11.463  17.942  0.00  0.00    +0.000 A 
ATOM     14  C   UNL     1      -2.464  10.991  16.660  0.00  0.00    +0.000 A 
ATOM     15  C   UNL     1      -3.763  11.008  16.196  0.00  0.00    +0.000 A 
ATOM     16  N   UNL     1      -4.818  11.455  16.916  0.00  0.00    +0.000 NA
ATOM     17  C   UNL     1      -4.612  11.930  18.170  0.00  0.00    +0.000 A 
BRANCH  17  18
ATOM     18  N   UNL     1      -5.726  12.313  18.883  0.00  0.00    +0.000 N 
ATOM     19  C   UNL     1      -6.389  13.616  18.794  0.00  0.00    +0.000 C 
ATOM     20  C   UNL     1      -6.635  14.130  20.232  0.00  0.00    +0.000 C 
ATOM     21  N   UNL     1      -7.483  13.197  21.007  0.00  0.00    +0.000 NA
ATOM     22  C   UNL     1      -7.688  13.697  22.364  0.00  0.00    +0.000 C 
ATOM     23  C   UNL     1      -6.839  11.857  21.024  0.00  0.00    +0.000 C 
ATOM     24  C   UNL     1      -6.509  11.311  19.609  0.00  0.00    +0.000 C 
ENDBRANCH  17  18
ENDBRANCH  11  12
ENDBRANCH   1  10
BRANCH   1  25
ATOM     25  C   UNL     1      -1.071  12.842  23.080  0.00  0.00    +0.000 C 
BRANCH  25  34
ATOM     26  C   UNL     1       2.446  14.317  18.410  0.00  0.00    +0.000 A 
ATOM     27  C   UNL     1       2.400  12.934  18.122  0.00  0.00    +0.000 A 
ATOM     28  C   UNL     1       1.684  12.038  18.936  0.00  0.00    +0.000 A 
ATOM     29  C   UNL     1       1.027  12.550  20.039  0.00  0.00    +0.000 A 
ATOM     30  C   UNL     1       1.110  13.913  20.318  0.00  0.00    +0.000 A 
ATOM     31  C   UNL     1       1.786  14.817  19.528  0.00  0.00    +0.000 A 
ATOM     32  C   UNL     1       0.369  14.190  21.545  0.00  0.00    +0.000 C 
ATOM     33  O   UNL     1       0.301  15.267  22.102  0.00  0.00    +0.000 OA
ATOM     34  N   UNL     1      -0.212  12.992  21.918  0.00  0.00    +0.000 N 
ATOM     35  C   UNL     1       0.179  11.875  21.066  0.00  0.00    +0.000 C 
BRANCH  26  37
ATOM     36  C   UNL     1       3.048  16.488  17.677  0.00  0.00    +0.000 C 
ATOM     37  O   UNL     1       3.169  15.075  17.526  0.00  0.00    +0.000 OA
ENDBRANCH  26  37
ENDBRANCH  25  34
ENDBRANCH   1  25
TORSDOF 6
ENDMDL
MODEL 3
REMARK VINA RESULT:      -7.6      3.693      8.529
REMARK  Name = 
REMARK  8 active torsions:
REMARK  status: ('A' for Active; 'I' for Inactive)
REMARK    1  A    between atoms: C_1  and  O_2
REMARK    2  A    between atoms: O_2  and  C_3
REMARK    3  A    between atoms: N_11  and  C_12
REMARK    4  A    between atoms: C_12  and  C_13
REMARK    5  A    between atoms: C_13  and  C_14
REMARK    6  A    between atoms: C_15  and  C_16
REMARK    7  A    between atoms: C_21  and  N_22
REMARK    8  A    between atoms: N_25  and  C_26
REMARK                            x       y       z     vdW  Elec       q    Type
REMARK                         _______ _______ _______ _____ _____    ______ ____
ROOT
ATOM      1  C   UNL     1       0.619  10.017  19.460  0.00  0.00    +0.000 C 
ATOM      2  N   UNL     1      -0.726   9.553  19.233  0.00  0.00    +0.000 N 
ATOM      3  C   UNL     1      -1.335  10.205  18.193  0.00  0.00    +0.000 C 
ATOM      4  O   UNL     1      -2.434   9.947  17.735  0.00  0.00    +0.000 OA
ATOM      5  N   UNL     1      -0.520  11.205  17.781  0.00  0.00    +0.000 N 
ATOM      6  C   UNL     1       0.600  11.259  18.559  0.00  0.00    +0.000 C 
ATOM      7  O   UNL     1       1.469  12.116  18.478  0.00  0.00    +0.000 OA
ATOM      8  H   UNL     1      -1.213   8.862  19.790  0.00  0.00    +0.000 HD
ATOM      9  H   UNL     1      -0.775  11.869  17.071  0.00  0.00    +0.000 HD
ENDROOT
BRANCH   1  10
ATOM     10  C   UNL     1       1.543   8.974  18.855  0.00  0.00    +0.000 C 
ATOM     11  C   UNL     1       2.337   8.080  18.335  0.00  0.00    +0.000 C 
BRANCH  11  12
ATOM     12  C   UNL     1       3.241   7.152  17.734  0.00  0.00    +0.000 A 
ATOM     13  C   UNL     1       4.205   7.661  16.853  0.00  0.00    +0.000 A 
ATOM     14  C   UNL     1       5.173   6.817  16.334  0.00  0.00    +0.000 A 
ATOM     15  C   UNL     1       5.139   5.493  16.721  0.00  0.00    +0.000 A 
ATOM     16  N   UNL     1       4.220   4.977  17.570  0.00  0.00    +0.000 NA
ATOM     17  C   UNL     1       3.258   5.787  18.080  0.00  0.00    +0.000 A 
BRANCH  17  18
ATOM     18  N   UNL     1       2.388   5.227  18.988  0.00  0.00    +0.000 N 
ATOM     19  C   UNL     1       2.141   5.714  20.347  0.00  0.00    +0.000 C 
ATOM     20  C   UNL     1       2.205   4.507  21.310  0.00  0.00    +0.000 C 
ATOM     21  N   UNL     1       1.197   3.480  20.965  0.00  0.00    +0.000 NA
ATOM     22  C   UNL     1       1.288   2.343  21.879  0.00  0.00    +0.000 C 
ATOM     23  C   UNL     1       1.408   3.048  19.558  0.00  0.00    +0.000 C 
ATOM     24  C   UNL     1       1.416   4.225  18.545  0.00  0.00    +0.000 C 
ENDBRANCH  17  18
ENDBRANCH  11  12
ENDBRANCH   1  10
BRANCH   1  25
ATOM     25  C   UNL     1       1.029  10.308  20.908  0.00  0.00    +0.000 C 
BRANCH  25  34
ATOM     26  C   UNL     1      -2.180  14.429  23.922  0.00  0.00    +0.000 A 
ATOM     27  C   UNL     1      -3.100  13.371  24.104  0.00  0.00    +0.000 A 
ATOM     28  C   UNL     1      -2.861  12.091  23.574  0.00  0.00    +0.000 A 
ATOM     29  C   UNL     1      -1.696  11.895  22.856  0.00  0.00    +0.000 A 
ATOM     30  C   UNL     1      -0.818  12.961  22.664  0.00  0.00    +0.000 A 
ATOM     31  C   UNL     1      -1.016  14.220  23.190  0.00  0.00    +0.000 A 
ATOM     32  C   UNL     1       0.305  12.507  21.849  0.00  0.00    +0.000 C 
ATOM     33  O   UNL     1       1.211  13.207  21.442  0.00  0.00    +0.000 OA
ATOM     34  N   UNL     1       0.108  11.153  21.648  0.00  0.00    +0.000 N 
ATOM     35  C   UNL     1      -1.153  10.670  22.197  0.00  0.00    +0.000 C 
BRANCH  26  37
ATOM     36  C   UNL     1      -1.938  15.890  25.771  0.00  0.00    +0.000 C 
ATOM     37  O   UNL     1      -2.533  15.618  24.503  0.00  0.00    +0.000 OA
ENDBRANCH  26  37
ENDBRANCH  25  34
ENDBRANCH   1  25
TORSDOF 6
ENDMDL
MODEL 4
REMARK VINA RESULT:      -7.6      3.602      8.477
REMARK  Name = 
REMARK  8 active torsions:
REMARK  status: ('A' for Active; 'I' for Inactive)
REMARK    1  A    between atoms: C_1  and  O_2
REMARK    2  A    between atoms: O_2  and  C_3
REMARK    3  A    between atoms: N_11  and  C_12
REMARK    4  A    between atoms: C_12  and  C_13
REMARK    5  A    between atoms: C_13  and  C_14
REMARK    6  A    between atoms: C_15  and  C_16
REMARK    7  A    between atoms: C_21  and  N_22
REMARK    8  A    between atoms: N_25  and  C_26
REMARK                            x       y       z     vdW  Elec       q    Type
REMARK                         _______ _______ _______ _____ _____    ______ ____
ROOT
ATOM      1  C   UNL     1       0.814   9.935  19.373  0.00  0.00    +0.000 C 
ATOM      2  N   UNL     1      -0.532   9.495  19.104  0.00  0.00    +0.000 N 
ATOM      3  C   UNL     1      -1.098  10.162  18.049  0.00  0.00    +0.000 C 
ATOM      4  O   UNL     1      -2.187   9.925  17.559  0.00  0.00    +0.000 OA
ATOM      5  N   UNL     1      -0.254  11.149  17.666  0.00  0.00    +0.000 N 
ATOM      6  C   UNL     1       0.843  11.180  18.478  0.00  0.00    +0.000 C 
ATOM      7  O   UNL     1       1.729  12.022  18.426  0.00  0.00    +0.000 OA
ATOM      8  H   UNL     1      -1.047   8.811  19.644  0.00  0.00    +0.000 HD
ATOM      9  H   UNL     1      -0.476  11.821  16.952  0.00  0.00    +0.000 HD
ENDROOT
BRANCH   1  10
ATOM     10  C   UNL     1       1.737   8.878  18.791  0.00  0.00    +0.000 C 
ATOM     11  C   UNL     1       2.530   7.971  18.290  0.00  0.00    +0.000 C 
BRANCH  11  12
ATOM     12  C   UNL     1       3.377   6.998  17.678  0.00  0.00    +0.000 A 
ATOM     13  C   UNL     1       4.352   7.458  16.782  0.00  0.00    +0.000 A 
ATOM     14  C   UNL     1       5.270   6.566  16.252  0.00  0.00    +0.000 A 
ATOM     15  C   UNL     1       5.176   5.246  16.643  0.00  0.00    +0.000 A 
ATOM     16  N   UNL     1       4.246   4.778  17.507  0.00  0.00    +0.000 NA
ATOM     17  C   UNL     1       3.332   5.635  18.029  0.00  0.00    +0.000 A 
BRANCH  17  18
ATOM     18  N   UNL     1       2.449   5.121  18.950  0.00  0.00    +0.000 N 
ATOM     19  C   UNL     1       2.220   5.645  20.299  0.00  0.00    +0.000 C 
ATOM     20  C   UNL     1       2.252   4.458  21.289  0.00  0.00    +0.000 C 
ATOM     21  N   UNL     1       1.214   3.453  20.968  0.00  0.00    +0.000 NA
ATOM     22  C   UNL     1       1.274   2.335  21.907  0.00  0.00    +0.000 C 
ATOM     23  C   UNL     1       1.408   2.984  19.571  0.00  0.00    +0.000 C 
ATOM     24  C   UNL     1       1.447   4.138  18.532  0.00  0.00    +0.000 C 
ENDBRANCH  17  18
ENDBRANCH  11  12
ENDBRANCH   1  10
BRANCH   1  25
ATOM     25  C   UNL     1       1.186  10.213  20.833  0.00  0.00    +0.000 C 
BRANCH  25  34
ATOM     26  C   UNL     1      -3.074  13.067  24.006  0.00  0.00    +0.000 A 
ATOM     27  C   UNL     1      -2.429  14.238  23.549  0.00  0.00    +0.000 A 
ATOM     28  C   UNL     1      -1.293  14.175  22.723  0.00  0.00    +0.000 A 
ATOM     29  C   UNL     1      -0.815  12.926  22.373  0.00  0.00    +0.000 A 
ATOM     30  C   UNL     1      -1.450  11.785  22.861  0.00  0.00    +0.000 A 
ATOM     31  C   UNL     1      -2.577  11.816  23.654  0.00  0.00    +0.000 A 
ATOM     32  C   UNL     1      -0.736  10.606  22.383  0.00  0.00    +0.000 C 
ATOM     33  O   UNL     1      -0.989   9.456  22.683  0.00  0.00    +0.000 OA
ATOM     34  N   UNL     1       0.262  11.076  21.548  0.00  0.00    +0.000 N 
ATOM     35  C   UNL     1       0.337  12.532  21.509  0.00  0.00    +0.000 C 
BRANCH  26  37
ATOM     36  C   UNL     1      -5.403  12.745  24.294  0.00  0.00    +0.000 C 
ATOM     37  O   UNL     1      -4.177  13.275  24.792  0.00  0.00    +0.000 OA
ENDBRANCH  26  37
ENDBRANCH  25  34
ENDBRANCH   1  25
TORSDOF 6
ENDMDL
MODEL 5
REMARK VINA RESULT:      -7.5      3.449      6.238
REMARK  Name = 
REMARK  8 active torsions:
REMARK  status: ('A' for Active; 'I' for Inactive)
REMARK    1  A    between atoms: C_1  and  O_2
REMARK    2  A    between atoms: O_2  and  C_3
REMARK    3  A    between atoms: N_11  and  C_12
REMARK    4  A    between atoms: C_12  and  C_13
REMARK    5  A    between atoms: C_13  and  C_14
REMARK    6  A    between atoms: C_15  and  C_16
REMARK    7  A    between atoms: C_21  and  N_22
REMARK    8  A    between atoms: N_25  and  C_26
REMARK                            x       y       z     vdW  Elec       q    Type
REMARK                         _______ _______ _______ _____ _____    ______ ____
ROOT
ATOM      1  C   UNL     1       0.786  10.466  19.213  0.00  0.00    +0.000 C 
ATOM      2  N   UNL     1       0.341  10.075  17.899  0.00  0.00    +0.000 N 
ATOM      3  C   UNL     1      -1.021   9.940  17.828  0.00  0.00    +0.000 C 
ATOM      4  O   UNL     1      -1.662   9.707  16.819  0.00  0.00    +0.000 OA
ATOM      5  N   UNL     1      -1.529  10.079  19.075  0.00  0.00    +0.000 N 
ATOM      6  C   UNL     1      -0.525  10.258  19.982  0.00  0.00    +0.000 C 
ATOM      7  O   UNL     1      -0.679  10.320  21.194  0.00  0.00    +0.000 OA
ATOM      8  H   UNL     1       0.942   9.868  17.111  0.00  0.00    +0.000 HD
ATOM      9  H   UNL     1      -2.503   9.954  19.292  0.00  0.00    +0.000 HD
ENDROOT
BRANCH   1  10
ATOM     10  C   UNL     1       1.092  11.953  19.140  0.00  0.00    +0.000 C 
ATOM     11  C   UNL     1       1.357  13.228  19.077  0.00  0.00    +0.000 C 
BRANCH  11  12
ATOM     12  C   UNL     1       1.712  14.610  19.025  0.00  0.00    +0.000 A 
ATOM     13  C   UNL     1       2.674  14.998  18.083  0.00  0.00    +0.000 A 
ATOM     14  C   UNL     1       2.968  16.342  17.918  0.00  0.00    +0.000 A 
ATOM     15  C   UNL     1       2.283  17.246  18.703  0.00  0.00    +0.000 A 
ATOM     16  N   UNL     1       1.349  16.897  19.619  0.00  0.00    +0.000 NA
ATOM     17  C   UNL     1       1.056  15.585  19.801  0.00  0.00    +0.000 A 
BRANCH  17  18
ATOM     18  N   UNL     1       0.055  15.289  20.698  0.00  0.00    +0.000 N 
ATOM     19  C   UNL     1       0.247  14.951  22.111  0.00  0.00    +0.000 C 
ATOM     20  C   UNL     1      -0.593  13.691  22.423  0.00  0.00    +0.000 C 
ATOM     21  N   UNL     1      -2.032  13.916  22.161  0.00  0.00    +0.000 NA
ATOM     22  C   UNL     1      -2.801  12.708  22.449  0.00  0.00    +0.000 C 
ATOM     23  C   UNL     1      -2.208  14.333  20.745  0.00  0.00    +0.000 C 
ATOM     24  C   UNL     1      -1.342  15.560  20.351  0.00  0.00    +0.000 C 
ENDBRANCH  17  18
ENDBRANCH  11  12
ENDBRANCH   1  10
BRANCH   1  25
ATOM     25  C   UNL     1       1.980   9.711  19.806  0.00  0.00    +0.000 C 
BRANCH  25  34
ATOM     26  C   UNL     1       1.946   3.855  18.365  0.00  0.00    +0.000 A 
ATOM     27  C   UNL     1       1.515   3.676  19.699  0.00  0.00    +0.000 A 
ATOM     28  C   UNL     1       1.342   4.768  20.568  0.00  0.00    +0.000 A 
ATOM     29  C   UNL     1       1.616   6.032  20.081  0.00  0.00    +0.000 A 
ATOM     30  C   UNL     1       2.068   6.182  18.771  0.00  0.00    +0.000 A 
ATOM     31  C   UNL     1       2.227   5.133  17.891  0.00  0.00    +0.000 A 
ATOM     32  C   UNL     1       2.320   7.597  18.516  0.00  0.00    +0.000 C 
ATOM     33  O   UNL     1       2.787   8.059  17.495  0.00  0.00    +0.000 OA
ATOM     34  N   UNL     1       1.925   8.266  19.660  0.00  0.00    +0.000 N 
ATOM     35  C   UNL     1       1.511   7.371  20.734  0.00  0.00    +0.000 C 
BRANCH  26  37
ATOM     36  C   UNL     1       3.149   1.853  17.969  0.00  0.00    +0.000 C 
ATOM     37  O   UNL     1       2.059   2.707  17.627  0.00  0.00    +0.000 OA
ENDBRANCH  26  37
ENDBRANCH  25  34
ENDBRANCH   1  25
TORSDOF 6
ENDMDL
MODEL 6
REMARK VINA RESULT:      -7.5      4.270      7.679
REMARK  Name = 
REMARK  8 active torsions:
REMARK  status: ('A' for Active; 'I' for Inactive)
REMARK    1  A    between atoms: C_1  and  O_2
REMARK    2  A    between atoms: O_2  and  C_3
REMARK    3  A    between atoms: N_11  and  C_12
REMARK    4  A    between atoms: C_12  and  C_13
REMARK    5  A    between atoms: C_13  and  C_14
REMARK    6  A    between atoms: C_15  and  C_16
REMARK    7  A    between atoms: C_21  and  N_22
REMARK    8  A    between atoms: N_25  and  C_26
REMARK                            x       y       z     vdW  Elec       q    Type
REMARK                         _______ _______ _______ _____ _____    ______ ____
ROOT
ATOM      1  C   UNL     1       0.456  10.963  19.075  0.00  0.00    +0.000 C 
ATOM      2  N   UNL     1       0.041  10.486  17.780  0.00  0.00    +0.000 N 
ATOM      3  C   UNL     1      -1.298  10.198  17.734  0.00  0.00    +0.000 C 
ATOM      4  O   UNL     1      -1.921   9.865  16.742  0.00  0.00    +0.000 OA
ATOM      5  N   UNL     1      -1.803  10.318  18.984  0.00  0.00    +0.000 N 
ATOM      6  C   UNL     1      -0.814  10.634  19.870  0.00  0.00    +0.000 C 
ATOM      7  O   UNL     1      -0.960  10.717  21.082  0.00  0.00    +0.000 OA
ATOM      8  H   UNL     1       0.652  10.322  16.988  0.00  0.00    +0.000 HD
ATOM      9  H   UNL     1      -2.755  10.093  19.220  0.00  0.00    +0.000 HD
ENDROOT
BRANCH   1  10
ATOM     10  C   UNL     1       0.594  12.472  18.954  0.00  0.00    +0.000 C 
ATOM     11  C   UNL     1       0.712  13.766  18.850  0.00  0.00    +0.000 C 
BRANCH  11  12
ATOM     12  C   UNL     1       0.785  15.184  18.694  0.00  0.00    +0.000 A 
ATOM     13  C   UNL     1      -0.421  15.887  18.570  0.00  0.00    +0.000 A 
ATOM     14  C   UNL     1      -0.405  17.272  18.531  0.00  0.00    +0.000 A 
ATOM     15  C   UNL     1       0.821  17.899  18.620  0.00  0.00    +0.000 A 
ATOM     16  N   UNL     1       1.998  17.243  18.742  0.00  0.00    +0.000 NA
ATOM     17  C   UNL     1       2.003  15.887  18.772  0.00  0.00    +0.000 A 
BRANCH  17  18
ATOM     18  N   UNL     1       3.220  15.271  18.960  0.00  0.00    +0.000 N 
ATOM     19  C   UNL     1       3.809  14.923  20.256  0.00  0.00    +0.000 C 
ATOM     20  C   UNL     1       5.279  15.402  20.260  0.00  0.00    +0.000 C 
ATOM     21  N   UNL     1       6.062  14.768  19.176  0.00  0.00    +0.000 NA
ATOM     22  C   UNL     1       7.442  15.248  19.192  0.00  0.00    +0.000 C 
ATOM     23  C   UNL     1       5.412  15.063  17.872  0.00  0.00    +0.000 C 
ATOM     24  C   UNL     1       3.913  14.660  17.824  0.00  0.00    +0.000 C 
ENDBRANCH  17  18
ENDBRANCH  11  12
ENDBRANCH   1  10
BRANCH   1  25
ATOM     25  C   UNL     1       1.733  10.363  19.671  0.00  0.00    +0.000 C 
BRANCH  25  34
ATOM     26  C   UNL     1       2.290   4.495  18.399  0.00  0.00    +0.000 A 
ATOM     27  C   UNL     1       1.963   4.315  19.763  0.00  0.00    +0.000 A 
ATOM     28  C   UNL     1       1.717   5.410  20.610  0.00  0.00    +0.000 A 
ATOM     29  C   UNL     1       1.814   6.679  20.071  0.00  0.00    +0.000 A 
ATOM     30  C   UNL     1       2.166   6.833  18.731  0.00  0.00    +0.000 A 
ATOM     31  C   UNL     1       2.392   5.779  17.873  0.00  0.00    +0.000 A 
ATOM     32  C   UNL     1       2.237   8.258  18.422  0.00  0.00    +0.000 C 
ATOM     33  O   UNL     1       2.586   8.734  17.360  0.00  0.00    +0.000 OA
ATOM     34  N   UNL     1       1.837   8.918  19.569  0.00  0.00    +0.000 N 
ATOM     35  C   UNL     1       1.595   8.019  20.692  0.00  0.00    +0.000 C 
BRANCH  26  37
ATOM     36  C   UNL     1       2.337   2.127  18.419  0.00  0.00    +0.000 C 
ATOM     37  O   UNL     1       2.490   3.342  17.688  0.00  0.00    +0.000 OA
ENDBRANCH  26  37
ENDBRANCH  25  34
ENDBRANCH   1  25
TORSDOF 6
ENDMDL
MODEL 7
REMARK VINA RESULT:      -7.4      4.330      7.260
REMARK  Name = 
REMARK  8 active torsions:
REMARK  status: ('A' for Active; 'I' for Inactive)
REMARK    1  A    between atoms: C_1  and  O_2
REMARK    2  A    between atoms: O_2  and  C_3
REMARK    3  A    between atoms: N_11  and  C_12
REMARK    4  A    between atoms: C_12  and  C_13
REMARK    5  A    between atoms: C_13  and  C_14
REMARK    6  A    between atoms: C_15  and  C_16
REMARK    7  A    between atoms: C_21  and  N_22
REMARK    8  A    between atoms: N_25  and  C_26
REMARK                            x       y       z     vdW  Elec       q    Type
REMARK                         _______ _______ _______ _____ _____    ______ ____
ROOT
ATOM      1  C   UNL     1      -0.213  11.868  19.330  0.00  0.00    +0.000 C 
ATOM      2  N   UNL     1      -0.416  11.246  18.046  0.00  0.00    +0.000 N 
ATOM      3  C   UNL     1      -1.740  11.020  17.779  0.00  0.00    +0.000 C 
ATOM      4  O   UNL     1      -2.193  10.591  16.734  0.00  0.00    +0.000 OA
ATOM      5  N   UNL     1      -2.457  11.326  18.887  0.00  0.00    +0.000 N 
ATOM      6  C   UNL     1      -1.627  11.707  19.902  0.00  0.00    +0.000 C 
ATOM      7  O   UNL     1      -1.986  11.953  21.045  0.00  0.00    +0.000 OA
ATOM      8  H   UNL     1       0.317  10.952  17.411  0.00  0.00    +0.000 HD
ATOM      9  H   UNL     1      -3.449  11.180  18.962  0.00  0.00    +0.000 HD
ENDROOT
BRANCH   1  10
ATOM     10  C   UNL     1       0.054  13.339  19.060  0.00  0.00    +0.000 C 
ATOM     11  C   UNL     1       0.282  14.602  18.827  0.00  0.00    +0.000 C 
BRANCH  11  12
ATOM     12  C   UNL     1       0.535  15.970  18.504  0.00  0.00    +0.000 A 
ATOM     13  C   UNL     1      -0.569  16.786  18.221  0.00  0.00    +0.000 A 
ATOM     14  C   UNL     1      -0.383  18.143  18.015  0.00  0.00    +0.000 A 
ATOM     15  C   UNL     1       0.906  18.630  18.101  0.00  0.00    +0.000 A 
ATOM     16  N   UNL     1       1.987  17.864  18.373  0.00  0.00    +0.000 NA
ATOM     17  C   UNL     1       1.825  16.531  18.568  0.00  0.00    +0.000 A 
BRANCH  17  18
ATOM     18  N   UNL     1       2.947  15.809  18.904  0.00  0.00    +0.000 N 
ATOM     19  C   UNL     1       3.414  15.541  20.267  0.00  0.00    +0.000 C 
ATOM     20  C   UNL     1       4.928  15.851  20.327  0.00  0.00    +0.000 C 
ATOM     21  N   UNL     1       5.693  15.020  19.371  0.00  0.00    +0.000 NA
ATOM     22  C   UNL     1       7.117  15.342  19.436  0.00  0.00    +0.000 C 
ATOM     23  C   UNL     1       5.160  15.241  18.001  0.00  0.00    +0.000 C 
ATOM     24  C   UNL     1       3.630  15.005  17.888  0.00  0.00    +0.000 C 
ENDBRANCH  17  18
ENDBRANCH  11  12
ENDBRANCH   1  10
BRANCH   1  25
ATOM     25  C   UNL     1       0.887  11.290  20.227  0.00  0.00    +0.000 C 
BRANCH  25  34
ATOM     26  C   UNL     1       2.233   5.426  19.818  0.00  0.00    +0.000 A 
ATOM     27  C   UNL     1       2.686   5.767  18.523  0.00  0.00    +0.000 A 
ATOM     28  C   UNL     1       2.606   7.085  18.041  0.00  0.00    +0.000 A 
ATOM     29  C   UNL     1       2.060   8.046  18.871  0.00  0.00    +0.000 A 
ATOM     30  C   UNL     1       1.594   7.681  20.132  0.00  0.00    +0.000 A 
ATOM     31  C   UNL     1       1.678   6.402  20.640  0.00  0.00    +0.000 A 
ATOM     32  C   UNL     1       1.035   8.859  20.789  0.00  0.00    +0.000 C 
ATOM     33  O   UNL     1       0.481   8.870  21.870  0.00  0.00    +0.000 OA
ATOM     34  N   UNL     1       1.263   9.918  19.930  0.00  0.00    +0.000 N 
ATOM     35  C   UNL     1       1.860   9.511  18.663  0.00  0.00    +0.000 C 
BRANCH  26  37
ATOM     36  C   UNL     1       1.192   3.427  20.548  0.00  0.00    +0.000 C 
ATOM     37  O   UNL     1       2.384   4.109  20.163  0.00  0.00    +0.000 OA
ENDBRANCH  26  37
ENDBRANCH  25  34
ENDBRANCH   1  25
TORSDOF 6
ENDMDL
MODEL 8
REMARK VINA RESULT:      -7.4      3.960      9.068
REMARK  Name = 
REMARK  8 active torsions:
REMARK  status: ('A' for Active; 'I' for Inactive)
REMARK    1  A    between atoms: C_1  and  O_2
REMARK    2  A    between atoms: O_2  and  C_3
REMARK    3  A    between atoms: N_11  and  C_12
REMARK    4  A    between atoms: C_12  and  C_13
REMARK    5  A    between atoms: C_13  and  C_14
REMARK    6  A    between atoms: C_15  and  C_16
REMARK    7  A    between atoms: C_21  and  N_22
REMARK    8  A    between atoms: N_25  and  C_26
REMARK                            x       y       z     vdW  Elec       q    Type
REMARK                         _______ _______ _______ _____ _____    ______ ____
ROOT
ATOM      1  C   UNL     1       0.727   9.729  18.272  0.00  0.00    +0.000 C 
ATOM      2  N   UNL     1       1.247  11.039  17.970  0.00  0.00    +0.000 N 
ATOM      3  C   UNL     1       1.535  11.760  19.099  0.00  0.00    +0.000 C 
ATOM      4  O   UNL     1       2.066  12.855  19.129  0.00  0.00    +0.000 OA
ATOM      5  N   UNL     1       1.100  11.060  20.174  0.00  0.00    +0.000 N 
ATOM      6  C   UNL     1       0.487   9.908  19.777  0.00  0.00    +0.000 C 
ATOM      7  O   UNL     1      -0.082   9.124  20.524  0.00  0.00    +0.000 OA
ATOM      8  H   UNL     1       1.353  11.432  17.042  0.00  0.00    +0.000 HD
ATOM      9  H   UNL     1       1.139  11.412  21.115  0.00  0.00    +0.000 HD
ENDROOT
BRANCH   1  10
ATOM     10  C   UNL     1       1.871   8.752  18.061  0.00  0.00    +0.000 C 
ATOM     11  C   UNL     1       2.853   7.914  17.878  0.00  0.00    +0.000 C 
BRANCH  11  12
ATOM     12  C   UNL     1       3.905   6.985  17.613  0.00  0.00    +0.000 A 
ATOM     13  C   UNL     1       5.014   7.447  16.891  0.00  0.00    +0.000 A 
ATOM     14  C   UNL     1       6.107   6.616  16.709  0.00  0.00    +0.000 A 
ATOM     15  C   UNL     1       6.047   5.352  17.260  0.00  0.00    +0.000 A 
ATOM     16  N   UNL     1       4.990   4.883  17.961  0.00  0.00    +0.000 NA
ATOM     17  C   UNL     1       3.906   5.679  18.142  0.00  0.00    +0.000 A 
BRANCH  17  18
ATOM     18  N   UNL     1       2.885   5.177  18.916  0.00  0.00    +0.000 N 
ATOM     19  C   UNL     1       2.434   5.728  20.196  0.00  0.00    +0.000 C 
ATOM     20  C   UNL     1       2.307   4.562  21.204  0.00  0.00    +0.000 C 
ATOM     21  N   UNL     1       1.342   3.542  20.739  0.00  0.00    +0.000 NA
ATOM     22  C   UNL     1       1.251   2.444  21.700  0.00  0.00    +0.000 C 
ATOM     23  C   UNL     1       1.766   3.045  19.403  0.00  0.00    +0.000 C 
ATOM     24  C   UNL     1       1.971   4.177  18.360  0.00  0.00    +0.000 C 
ENDBRANCH  17  18
ENDBRANCH  11  12
ENDBRANCH   1  10
BRANCH   1  25
ATOM     25  C   UNL     1      -0.511   9.266  17.497  0.00  0.00    +0.000 C 
BRANCH  25  34
ATOM     26  C   UNL     1      -5.602  12.498  17.476  0.00  0.00    +0.000 A 
ATOM     27  C   UNL     1      -5.237  12.815  18.805  0.00  0.00    +0.000 A 
ATOM     28  C   UNL     1      -4.066  12.300  19.387  0.00  0.00    +0.000 A 
ATOM     29  C   UNL     1      -3.277  11.461  18.622  0.00  0.00    +0.000 A 
ATOM     30  C   UNL     1      -3.672  11.140  17.324  0.00  0.00    +0.000 A 
ATOM     31  C   UNL     1      -4.803  11.646  16.720  0.00  0.00    +0.000 A 
ATOM     32  C   UNL     1      -2.698  10.217  16.749  0.00  0.00    +0.000 C 
ATOM     33  O   UNL     1      -2.783   9.689  15.659  0.00  0.00    +0.000 OA
ATOM     34  N   UNL     1      -1.698  10.080  17.694  0.00  0.00    +0.000 N 
ATOM     35  C   UNL     1      -1.986  10.783  18.940  0.00  0.00    +0.000 C 
BRANCH  26  37
ATOM     36  C   UNL     1      -6.907  14.469  17.320  0.00  0.00    +0.000 C 
ATOM     37  O   UNL     1      -6.760  13.080  17.032  0.00  0.00    +0.000 OA
ENDBRANCH  26  37
ENDBRANCH  25  34
ENDBRANCH   1  25
TORSDOF 6
ENDMDL
MODEL 9
REMARK VINA RESULT:      -7.3      3.774      9.345
REMARK  Name = 
REMARK  8 active torsions:
REMARK  status: ('A' for Active; 'I' for Inactive)
REMARK    1  A    between atoms: C_1  and  O_2
REMARK    2  A    between atoms: O_2  and  C_3
REMARK    3  A    between atoms: N_11  and  C_12
REMARK    4  A    between atoms: C_12  and  C_13
REMARK    5  A    between atoms: C_13  and  C_14
REMARK    6  A    between atoms: C_15  and  C_16
REMARK    7  A    between atoms: C_21  and  N_22
REMARK    8  A    between atoms: N_25  and  C_26
REMARK                            x       y       z     vdW  Elec       q    Type
REMARK                         _______ _______ _______ _____ _____    ______ ____
ROOT
ATOM      1  C   UNL     1       0.997   9.389  19.786  0.00  0.00    +0.000 C 
ATOM      2  N   UNL     1      -0.400   9.428  19.435  0.00  0.00    +0.000 N 
ATOM      3  C   UNL     1      -0.598   9.690  18.105  0.00  0.00    +0.000 C 
ATOM      4  O   UNL     1      -1.672   9.689  17.531  0.00  0.00    +0.000 OA
ATOM      5  N   UNL     1       0.600   9.980  17.545  0.00  0.00    +0.000 N 
ATOM      6  C   UNL     1       1.585   9.961  18.489  0.00  0.00    +0.000 C 
ATOM      7  O   UNL     1       2.752  10.272  18.291  0.00  0.00    +0.000 OA
ATOM      8  H   UNL     1      -1.173   9.326  20.082  0.00  0.00    +0.000 HD
ATOM      9  H   UNL     1       0.707  10.272  16.589  0.00  0.00    +0.000 HD
ENDROOT
BRANCH   1  10
ATOM     10  C   UNL     1       1.372   7.922  19.902  0.00  0.00    +0.000 C 
ATOM     11  C   UNL     1       1.693   6.662  20.001  0.00  0.00    +0.000 C 
BRANCH  11  12
ATOM     12  C   UNL     1       1.978   5.265  20.098  0.00  0.00    +0.000 A 
ATOM     13  C   UNL     1       1.031   4.452  20.734  0.00  0.00    +0.000 A 
ATOM     14  C   UNL     1       1.209   3.078  20.752  0.00  0.00    +0.000 A 
ATOM     15  C   UNL     1       2.332   2.573  20.129  0.00  0.00    +0.000 A 
ATOM     16  N   UNL     1       3.261   3.336  19.509  0.00  0.00    +0.000 NA
ATOM     17  C   UNL     1       3.108   4.684  19.490  0.00  0.00    +0.000 A 
BRANCH  17  18
ATOM     18  N   UNL     1       4.046   5.409  18.791  0.00  0.00    +0.000 N 
ATOM     19  C   UNL     1       3.779   6.249  17.621  0.00  0.00    +0.000 C 
ATOM     20  C   UNL     1       4.826   5.909  16.535  0.00  0.00    +0.000 C 
ATOM     21  N   UNL     1       6.205   6.154  17.013  0.00  0.00    +0.000 NA
ATOM     22  C   UNL     1       7.176   5.811  15.976  0.00  0.00    +0.000 C 
ATOM     23  C   UNL     1       6.440   5.356  18.245  0.00  0.00    +0.000 C 
ATOM     24  C   UNL     1       5.383   5.607  19.354  0.00  0.00    +0.000 C 
ENDBRANCH  17  18
ENDBRANCH  11  12
ENDBRANCH   1  10
BRANCH   1  25
ATOM     25  C   UNL     1       1.428  10.145  21.048  0.00  0.00    +0.000 C 
BRANCH  25  34
ATOM     26  C   UNL     1      -3.071  13.232  23.615  0.00  0.00    +0.000 A 
ATOM     27  C   UNL     1      -2.501  14.340  22.947  0.00  0.00    +0.000 A 
ATOM     28  C   UNL     1      -1.350  14.204  22.151  0.00  0.00    +0.000 A 
ATOM     29  C   UNL     1      -0.781  12.949  22.044  0.00  0.00    +0.000 A 
ATOM     30  C   UNL     1      -1.344  11.878  22.735  0.00  0.00    +0.000 A 
ATOM     31  C   UNL     1      -2.482  11.976  23.506  0.00  0.00    +0.000 A 
ATOM     32  C   UNL     1      -0.541  10.683  22.490  0.00  0.00    +0.000 C 
ATOM     33  O   UNL     1      -0.718   9.595  23.000  0.00  0.00    +0.000 OA
ATOM     34  N   UNL     1       0.434  11.059  21.585  0.00  0.00    +0.000 N 
ATOM     35  C   UNL     1       0.409  12.483  21.272  0.00  0.00    +0.000 C 
BRANCH  26  37
ATOM     36  C   UNL     1      -4.889  12.372  24.867  0.00  0.00    +0.000 C 
ATOM     37  O   UNL     1      -4.198  13.505  24.345  0.00  0.00    +0.000 OA
ENDBRANCH  26  37
ENDBRANCH  25  34
ENDBRANCH   1  25
TORSDOF 6
ENDMDL
