MODEL 1
REMARK VINA RESULT:      -7.7      0.000      0.000
REMARK  Name = 
REMARK  2 active torsions:
REMARK  status: ('A' for Active; 'I' for Inactive)
REMARK    1  A    between atoms: C_1  and  N_2
REMARK    2  A    between atoms: C_4  and  C_5
REMARK                            x       y       z     vdW  Elec       q    Type
REMARK                         _______ _______ _______ _____ _____    ______ ____
ROOT
ATOM      1  C   UNL     1       3.327   4.018  18.197  0.00  0.00    +0.000 C 
ATOM      2  O   UNL     1       3.166   2.859  18.571  0.00  0.00    +0.000 OA
ATOM      3  N   UNL     1       2.480   5.058  18.582  0.00  0.00    +0.000 N 
ATOM      4  C   UNL     1       1.475   4.821  19.641  0.00  0.00    +0.000 C 
ATOM      5  C   UNL     1       1.589   5.838  20.816  0.00  0.00    +0.000 C 
ATOM      6  N   UNL     1       1.667   7.190  20.252  0.00  0.00    +0.000 N 
ATOM      7  C   UNL     1       1.009   8.253  20.821  0.00  0.00    +0.000 A 
ATOM      8  C   UNL     1       0.618   9.331  20.020  0.00  0.00    +0.000 A 
ATOM      9  C   UNL     1      -0.060  10.414  20.569  0.00  0.00    +0.000 A 
ATOM     10  C   UNL     1      -0.339  10.411  21.925  0.00  0.00    +0.000 A 
ATOM     11  C   UNL     1       0.057   9.303  22.656  0.00  0.00    +0.000 A 
ATOM     12  N   UNL     1       0.702   8.231  22.134  0.00  0.00    +0.000 NA
ATOM     13  C   UNL     1       2.777   7.398  19.317  0.00  0.00    +0.000 C 
ATOM     14  C   UNL     1       2.542   6.459  18.124  0.00  0.00    +0.000 C 
ENDROOT
BRANCH   1  18
ATOM     15  C   UNL     1       5.312   3.857  13.845  0.00  0.00    +0.000 C 
ATOM     16  N   UNL     1       5.466   4.332  15.206  0.00  0.00    +0.000 N 
ATOM     17  N   UNL     1       4.424   4.097  16.051  0.00  0.00    +0.000 NA
ATOM     18  C   UNL     1       4.555   4.327  17.326  0.00  0.00    +0.000 A 
ATOM     19  C   UNL     1       5.787   4.924  17.903  0.00  0.00    +0.000 A 
ATOM     20  C   UNL     1       5.990   5.164  19.269  0.00  0.00    +0.000 A 
ATOM     21  C   UNL     1       7.144   5.823  19.708  0.00  0.00    +0.000 A 
ATOM     22  C   UNL     1       8.107   6.246  18.793  0.00  0.00    +0.000 A 
ATOM     23  C   UNL     1       7.930   5.984  17.437  0.00  0.00    +0.000 A 
ATOM     24  C   UNL     1       6.776   5.314  17.000  0.00  0.00    +0.000 A 
ATOM     25  C   UNL     1       6.635   4.985  15.570  0.00  0.00    +0.000 A 
ATOM     26  O   UNL     1       7.543   5.248  14.787  0.00  0.00    +0.000 OA
ENDBRANCH   1  18
TORSDOF 1
ENDMDL
MODEL 2
REMARK VINA RESULT:      -6.7      2.471      4.352
REMARK  Name = 
REMARK  2 active torsions:
REMARK  status: ('A' for Active; 'I' for Inactive)
REMARK    1  A    between atoms: C_1  and  N_2
REMARK    2  A    between atoms: C_4  and  C_5
REMARK                            x       y       z     vdW  Elec       q    Type
REMARK                         _______ _______ _______ _____ _____    ______ ____
ROOT
ATOM      1  C   UNL     1       2.531   8.075  18.037  0.00  0.00    +0.000 C 
ATOM      2  O   UNL     1       2.731   8.286  16.845  0.00  0.00    +0.000 OA
ATOM      3  N   UNL     1       1.968   9.027  18.888  0.00  0.00    +0.000 N 
ATOM      4  C   UNL     1       1.393  10.263  18.314  0.00  0.00    +0.000 C 
ATOM      5  C   UNL     1      -0.088  10.491  18.741  0.00  0.00    +0.000 C 
ATOM      6  N   UNL     1      -0.182  10.317  20.194  0.00  0.00    +0.000 N 
ATOM      7  C   UNL     1      -0.962  11.136  20.975  0.00  0.00    +0.000 A 
ATOM      8  C   UNL     1      -0.618  11.343  22.314  0.00  0.00    +0.000 A 
ATOM      9  C   UNL     1      -1.383  12.177  23.123  0.00  0.00    +0.000 A 
ATOM     10  C   UNL     1      -2.496  12.796  22.581  0.00  0.00    +0.000 A 
ATOM     11  C   UNL     1      -2.768  12.565  21.242  0.00  0.00    +0.000 A 
ATOM     12  N   UNL     1      -2.022  11.770  20.435  0.00  0.00    +0.000 NA
ATOM     13  C   UNL     1       0.270   9.011  20.683  0.00  0.00    +0.000 C 
ATOM     14  C   UNL     1       1.764   8.897  20.344  0.00  0.00    +0.000 C 
ENDROOT
BRANCH   1  18
ATOM     15  C   UNL     1       1.007   4.267  20.505  0.00  0.00    +0.000 C 
ATOM     16  N   UNL     1       2.079   4.806  19.691  0.00  0.00    +0.000 N 
ATOM     17  N   UNL     1       1.877   6.048  19.169  0.00  0.00    +0.000 NA
ATOM     18  C   UNL     1       2.856   6.674  18.582  0.00  0.00    +0.000 A 
ATOM     19  C   UNL     1       4.189   6.051  18.378  0.00  0.00    +0.000 A 
ATOM     20  C   UNL     1       5.283   6.691  17.781  0.00  0.00    +0.000 A 
ATOM     21  C   UNL     1       6.470   5.989  17.542  0.00  0.00    +0.000 A 
ATOM     22  C   UNL     1       6.579   4.646  17.898  0.00  0.00    +0.000 A 
ATOM     23  C   UNL     1       5.510   4.010  18.521  0.00  0.00    +0.000 A 
ATOM     24  C   UNL     1       4.324   4.718  18.769  0.00  0.00    +0.000 A 
ATOM     25  C   UNL     1       3.224   4.051  19.490  0.00  0.00    +0.000 A 
ATOM     26  O   UNL     1       3.373   2.908  19.912  0.00  0.00    +0.000 OA
ENDBRANCH   1  18
TORSDOF 1
ENDMDL
MODEL 3
REMARK VINA RESULT:      -6.5      8.244     10.647
REMARK  Name = 
REMARK  2 active torsions:
REMARK  status: ('A' for Active; 'I' for Inactive)
REMARK    1  A    between atoms: C_1  and  N_2
REMARK    2  A    between atoms: C_4  and  C_5
REMARK                            x       y       z     vdW  Elec       q    Type
REMARK                         _______ _______ _______ _____ _____    ______ ____
ROOT
ATOM      1  C   UNL     1      -2.043  12.567  21.030  0.00  0.00    +0.000 C 
ATOM      2  O   UNL     1      -2.091  11.921  22.073  0.00  0.00    +0.000 OA
ATOM      3  N   UNL     1      -1.006  13.456  20.742  0.00  0.00    +0.000 N 
ATOM      4  C   UNL     1       0.191  13.481  21.609  0.00  0.00    +0.000 C 
ATOM      5  C   UNL     1       1.514  13.270  20.813  0.00  0.00    +0.000 C 
ATOM      6  N   UNL     1       1.504  14.168  19.654  0.00  0.00    +0.000 N 
ATOM      7  C   UNL     1       2.631  14.840  19.245  0.00  0.00    +0.000 A 
ATOM      8  C   UNL     1       2.502  16.058  18.570  0.00  0.00    +0.000 A 
ATOM      9  C   UNL     1       3.628  16.763  18.157  0.00  0.00    +0.000 A 
ATOM     10  C   UNL     1       4.881  16.237  18.421  0.00  0.00    +0.000 A 
ATOM     11  C   UNL     1       4.938  15.038  19.112  0.00  0.00    +0.000 A 
ATOM     12  N   UNL     1       3.852  14.347  19.539  0.00  0.00    +0.000 NA
ATOM     13  C   UNL     1       0.361  13.991  18.754  0.00  0.00    +0.000 C 
ATOM     14  C   UNL     1      -0.902  14.334  19.559  0.00  0.00    +0.000 C 
ENDROOT
BRANCH   1  18
ATOM     15  C   UNL     1      -6.559  13.388  19.676  0.00  0.00    +0.000 C 
ATOM     16  N   UNL     1      -5.290  12.802  19.291  0.00  0.00    +0.000 N 
ATOM     17  N   UNL     1      -4.258  12.968  20.165  0.00  0.00    +0.000 NA
ATOM     18  C   UNL     1      -3.141  12.323  19.983  0.00  0.00    +0.000 A 
ATOM     19  C   UNL     1      -2.907  11.460  18.797  0.00  0.00    +0.000 A 
ATOM     20  C   UNL     1      -1.737  10.722  18.569  0.00  0.00    +0.000 A 
ATOM     21  C   UNL     1      -1.568  10.016  17.372  0.00  0.00    +0.000 A 
ATOM     22  C   UNL     1      -2.561  10.035  16.394  0.00  0.00    +0.000 A 
ATOM     23  C   UNL     1      -3.740  10.738  16.625  0.00  0.00    +0.000 A 
ATOM     24  C   UNL     1      -3.912  11.438  17.829  0.00  0.00    +0.000 A 
ATOM     25  C   UNL     1      -5.192  12.122  18.087  0.00  0.00    +0.000 A 
ATOM     26  O   UNL     1      -6.110  12.031  17.277  0.00  0.00    +0.000 OA
ENDBRANCH   1  18
TORSDOF 1
ENDMDL
MODEL 4
REMARK VINA RESULT:      -6.5      3.665      8.513
REMARK  Name = 
REMARK  2 active torsions:
REMARK  status: ('A' for Active; 'I' for Inactive)
REMARK    1  A    between atoms: C_1  and  N_2
REMARK    2  A    between atoms: C_4  and  C_5
REMARK                            x       y       z     vdW  Elec       q    Type
REMARK                         _______ _______ _______ _____ _____    ______ ____
ROOT
ATOM      1  C   UNL     1       0.400   9.150  20.995  0.00  0.00    +0.000 C 
ATOM      2  O   UNL     1      -0.259   8.709  21.932  0.00  0.00    +0.000 OA
ATOM      3  N   UNL     1       1.440   8.433  20.402  0.00  0.00    +0.000 N 
ATOM      4  C   UNL     1       1.636   7.011  20.756  0.00  0.00    +0.000 C 
ATOM      5  C   UNL     1       1.639   6.076  19.510  0.00  0.00    +0.000 C 
ATOM      6  N   UNL     1       2.540   6.649  18.505  0.00  0.00    +0.000 N 
ATOM      7  C   UNL     1       3.381   5.865  17.752  0.00  0.00    +0.000 A 
ATOM      8  C   UNL     1       4.573   6.406  17.261  0.00  0.00    +0.000 A 
ATOM      9  C   UNL     1       5.447   5.630  16.506  0.00  0.00    +0.000 A 
ATOM     10  C   UNL     1       5.115   4.312  16.244  0.00  0.00    +0.000 A 
ATOM     11  C   UNL     1       3.930   3.834  16.778  0.00  0.00    +0.000 A 
ATOM     12  N   UNL     1       3.076   4.570  17.531  0.00  0.00    +0.000 NA
ATOM     13  C   UNL     1       2.203   8.014  18.089  0.00  0.00    +0.000 C 
ATOM     14  C   UNL     1       2.338   8.908  19.331  0.00  0.00    +0.000 C 
ENDROOT
BRANCH   1  18
ATOM     15  C   UNL     1       0.689  13.911  21.397  0.00  0.00    +0.000 C 
ATOM     16  N   UNL     1       0.229  12.812  20.570  0.00  0.00    +0.000 N 
ATOM     17  N   UNL     1       0.534  11.558  21.005  0.00  0.00    +0.000 NA
ATOM     18  C   UNL     1       0.005  10.521  20.422  0.00  0.00    +0.000 A 
ATOM     19  C   UNL     1      -0.868  10.641  19.226  0.00  0.00    +0.000 A 
ATOM     20  C   UNL     1      -1.485   9.561  18.580  0.00  0.00    +0.000 A 
ATOM     21  C   UNL     1      -2.209   9.762  17.400  0.00  0.00    +0.000 A 
ATOM     22  C   UNL     1      -2.329  11.040  16.854  0.00  0.00    +0.000 A 
ATOM     23  C   UNL     1      -1.748  12.123  17.506  0.00  0.00    +0.000 A 
ATOM     24  C   UNL     1      -1.030  11.921  18.695  0.00  0.00    +0.000 A 
ATOM     25  C   UNL     1      -0.477  13.086  19.408  0.00  0.00    +0.000 A 
ATOM     26  O   UNL     1      -0.693  14.220  18.990  0.00  0.00    +0.000 OA
ENDBRANCH   1  18
TORSDOF 1
ENDMDL
MODEL 5
REMARK VINA RESULT:      -6.4      8.865     10.137
REMARK  Name = 
REMARK  2 active torsions:
REMARK  status: ('A' for Active; 'I' for Inactive)
REMARK    1  A    between atoms: C_1  and  N_2
REMARK    2  A    between atoms: C_4  and  C_5
REMARK                            x       y       z     vdW  Elec       q    Type
REMARK                         _______ _______ _______ _____ _____    ______ ____
ROOT
ATOM      1  C   UNL     1       7.308  14.868  19.726  0.00  0.00    +0.000 C 
ATOM      2  O   UNL     1       6.369  15.345  19.094  0.00  0.00    +0.000 OA
ATOM      3  N   UNL     1       7.247  14.627  21.099  0.00  0.00    +0.000 N 
ATOM      4  C   UNL     1       5.950  14.745  21.800  0.00  0.00    +0.000 C 
ATOM      5  C   UNL     1       5.571  13.454  22.586  0.00  0.00    +0.000 C 
ATOM      6  N   UNL     1       6.731  13.042  23.382  0.00  0.00    +0.000 N 
ATOM      7  C   UNL     1       6.600  12.563  24.664  0.00  0.00    +0.000 A 
ATOM      8  C   UNL     1       7.652  12.722  25.571  0.00  0.00    +0.000 A 
ATOM      9  C   UNL     1       7.539  12.258  26.878  0.00  0.00    +0.000 A 
ATOM     10  C   UNL     1       6.368  11.630  27.265  0.00  0.00    +0.000 A 
ATOM     11  C   UNL     1       5.358  11.525  26.323  0.00  0.00    +0.000 A 
ATOM     12  N   UNL     1       5.443  11.989  25.052  0.00  0.00    +0.000 NA
ATOM     13  C   UNL     1       7.951  12.800  22.606  0.00  0.00    +0.000 C 
ATOM     14  C   UNL     1       8.343  14.136  21.956  0.00  0.00    +0.000 C 
ENDROOT
BRANCH   1  18
ATOM     15  C   UNL     1       9.970  11.305  17.958  0.00  0.00    +0.000 C 
ATOM     16  N   UNL     1       9.793  12.743  18.014  0.00  0.00    +0.000 N 
ATOM     17  N   UNL     1       8.700  13.192  18.693  0.00  0.00    +0.000 NA
ATOM     18  C   UNL     1       8.567  14.463  18.943  0.00  0.00    +0.000 A 
ATOM     19  C   UNL     1       9.530  15.477  18.441  0.00  0.00    +0.000 A 
ATOM     20  C   UNL     1       9.450  16.851  18.707  0.00  0.00    +0.000 A 
ATOM     21  C   UNL     1      10.347  17.741  18.107  0.00  0.00    +0.000 A 
ATOM     22  C   UNL     1      11.334  17.273  17.241  0.00  0.00    +0.000 A 
ATOM     23  C   UNL     1      11.443  15.907  16.996  0.00  0.00    +0.000 A 
ATOM     24  C   UNL     1      10.548  15.014  17.606  0.00  0.00    +0.000 A 
ATOM     25  C   UNL     1      10.718  13.566  17.390  0.00  0.00    +0.000 A 
ATOM     26  O   UNL     1      11.664  13.152  16.727  0.00  0.00    +0.000 OA
ENDBRANCH   1  18
TORSDOF 1
ENDMDL
MODEL 6
REMARK VINA RESULT:      -6.4      3.563      8.583
REMARK  Name = 
REMARK  2 active torsions:
REMARK  status: ('A' for Active; 'I' for Inactive)
REMARK    1  A    between atoms: C_1  and  N_2
REMARK    2  A    between atoms: C_4  and  C_5
REMARK                            x       y       z     vdW  Elec       q    Type
REMARK                         _______ _______ _______ _____ _____    ______ ____
ROOT
ATOM      1  C   UNL     1       0.326   8.994  20.825  0.00  0.00    +0.000 C 
ATOM      2  O   UNL     1       0.016   8.625  21.954  0.00  0.00    +0.000 OA
ATOM      3  N   UNL     1       1.439   8.495  20.147  0.00  0.00    +0.000 N 
ATOM      4  C   UNL     1       2.164   7.332  20.702  0.00  0.00    +0.000 C 
ATOM      5  C   UNL     1       2.288   6.159  19.683  0.00  0.00    +0.000 C 
ATOM      6  N   UNL     1       2.765   6.704  18.408  0.00  0.00    +0.000 N 
ATOM      7  C   UNL     1       3.691   6.044  17.636  0.00  0.00    +0.000 A 
ATOM      8  C   UNL     1       4.532   6.774  16.791  0.00  0.00    +0.000 A 
ATOM      9  C   UNL     1       5.486   6.131  16.009  0.00  0.00    +0.000 A 
ATOM     10  C   UNL     1       5.587   4.752  16.077  0.00  0.00    +0.000 A 
ATOM     11  C   UNL     1       4.740   4.092  16.952  0.00  0.00    +0.000 A 
ATOM     12  N   UNL     1       3.817   4.705  17.735  0.00  0.00    +0.000 NA
ATOM     13  C   UNL     1       1.919   7.757  17.838  0.00  0.00    +0.000 C 
ATOM     14  C   UNL     1       1.937   8.932  18.828  0.00  0.00    +0.000 C 
ENDROOT
BRANCH   1  18
ATOM     15  C   UNL     1      -2.304   9.997  16.953  0.00  0.00    +0.000 C 
ATOM     16  N   UNL     1      -1.942  10.427  18.289  0.00  0.00    +0.000 N 
ATOM     17  N   UNL     1      -1.117   9.599  18.989  0.00  0.00    +0.000 NA
ATOM     18  C   UNL     1      -0.602   9.996  20.118  0.00  0.00    +0.000 A 
ATOM     19  C   UNL     1      -0.943  11.305  20.731  0.00  0.00    +0.000 A 
ATOM     20  C   UNL     1      -0.395  11.791  21.926  0.00  0.00    +0.000 A 
ATOM     21  C   UNL     1      -0.854  12.993  22.477  0.00  0.00    +0.000 A 
ATOM     22  C   UNL     1      -1.859  13.723  21.843  0.00  0.00    +0.000 A 
ATOM     23  C   UNL     1      -2.386  13.265  20.639  0.00  0.00    +0.000 A 
ATOM     24  C   UNL     1      -1.918  12.064  20.083  0.00  0.00    +0.000 A 
ATOM     25  C   UNL     1      -2.440  11.627  18.775  0.00  0.00    +0.000 A 
ATOM     26  O   UNL     1      -3.232  12.337  18.162  0.00  0.00    +0.000 OA
ENDBRANCH   1  18
TORSDOF 1
ENDMDL
MODEL 7
REMARK VINA RESULT:      -6.4      5.795      8.899
REMARK  Name = 
REMARK  2 active torsions:
REMARK  status: ('A' for Active; 'I' for Inactive)
REMARK    1  A    between atoms: C_1  and  N_2
REMARK    2  A    between atoms: C_4  and  C_5
REMARK                            x       y       z     vdW  Elec       q    Type
REMARK                         _______ _______ _______ _____ _____    ______ ____
ROOT
ATOM      1  C   UNL     1       0.320  12.617  18.826  0.00  0.00    +0.000 C 
ATOM      2  O   UNL     1      -0.829  12.879  18.484  0.00  0.00    +0.000 OA
ATOM      3  N   UNL     1       1.332  13.577  18.863  0.00  0.00    +0.000 N 
ATOM      4  C   UNL     1       0.986  15.004  18.690  0.00  0.00    +0.000 C 
ATOM      5  C   UNL     1       1.497  15.893  19.864  0.00  0.00    +0.000 C 
ATOM      6  N   UNL     1       2.905  15.568  20.110  0.00  0.00    +0.000 N 
ATOM      7  C   UNL     1       3.835  16.538  20.398  0.00  0.00    +0.000 A 
ATOM      8  C   UNL     1       5.177  16.327  20.067  0.00  0.00    +0.000 A 
ATOM      9  C   UNL     1       6.136  17.298  20.336  0.00  0.00    +0.000 A 
ATOM     10  C   UNL     1       5.741  18.478  20.943  0.00  0.00    +0.000 A 
ATOM     11  C   UNL     1       4.394  18.631  21.225  0.00  0.00    +0.000 A 
ATOM     12  N   UNL     1       3.443  17.703  20.952  0.00  0.00    +0.000 NA
ATOM     13  C   UNL     1       3.162  14.158  20.419  0.00  0.00    +0.000 C 
ATOM     14  C   UNL     1       2.755  13.346  19.180  0.00  0.00    +0.000 C 
ENDROOT
BRANCH   1  18
ATOM     15  C   UNL     1       2.191   8.344  17.752  0.00  0.00    +0.000 C 
ATOM     16  N   UNL     1       1.610   9.159  18.802  0.00  0.00    +0.000 N 
ATOM     17  N   UNL     1       1.308  10.446  18.471  0.00  0.00    +0.000 NA
ATOM     18  C   UNL     1       0.621  11.185  19.295  0.00  0.00    +0.000 A 
ATOM     19  C   UNL     1       0.214  10.706  20.642  0.00  0.00    +0.000 A 
ATOM     20  C   UNL     1      -0.549  11.449  21.553  0.00  0.00    +0.000 A 
ATOM     21  C   UNL     1      -0.798  10.952  22.837  0.00  0.00    +0.000 A 
ATOM     22  C   UNL     1      -0.293   9.712  23.225  0.00  0.00    +0.000 A 
ATOM     23  C   UNL     1       0.438   8.952  22.317  0.00  0.00    +0.000 A 
ATOM     24  C   UNL     1       0.679   9.448  21.026  0.00  0.00    +0.000 A 
ATOM     25  C   UNL     1       1.398   8.603  20.054  0.00  0.00    +0.000 A 
ATOM     26  O   UNL     1       1.731   7.463  20.361  0.00  0.00    +0.000 OA
ENDBRANCH   1  18
TORSDOF 1
ENDMDL
MODEL 8
REMARK VINA RESULT:      -6.3      4.726      9.955
REMARK  Name = 
REMARK  2 active torsions:
REMARK  status: ('A' for Active; 'I' for Inactive)
REMARK    1  A    between atoms: C_1  and  N_2
REMARK    2  A    between atoms: C_4  and  C_5
REMARK                            x       y       z     vdW  Elec       q    Type
REMARK                         _______ _______ _______ _____ _____    ______ ____
ROOT
ATOM      1  C   UNL     1      -0.503  12.165  19.291  0.00  0.00    +0.000 C 
ATOM      2  O   UNL     1      -0.768  12.705  18.221  0.00  0.00    +0.000 OA
ATOM      3  N   UNL     1      -0.210  10.805  19.397  0.00  0.00    +0.000 N 
ATOM      4  C   UNL     1       0.001  10.010  18.168  0.00  0.00    +0.000 C 
ATOM      5  C   UNL     1       1.370   9.266  18.160  0.00  0.00    +0.000 C 
ATOM      6  N   UNL     1       1.527   8.574  19.444  0.00  0.00    +0.000 N 
ATOM      7  C   UNL     1       2.065   7.313  19.528  0.00  0.00    +0.000 A 
ATOM      8  C   UNL     1       1.695   6.474  20.584  0.00  0.00    +0.000 A 
ATOM      9  C   UNL     1       2.215   5.188  20.686  0.00  0.00    +0.000 A 
ATOM     10  C   UNL     1       3.111   4.752  19.725  0.00  0.00    +0.000 A 
ATOM     11  C   UNL     1       3.419   5.625  18.695  0.00  0.00    +0.000 A 
ATOM     12  N   UNL     1       2.906   6.874  18.570  0.00  0.00    +0.000 NA
ATOM     13  C   UNL     1       1.452   9.445  20.620  0.00  0.00    +0.000 C 
ATOM     14  C   UNL     1       0.040  10.052  20.641  0.00  0.00    +0.000 C 
ENDROOT
BRANCH   1  18
ATOM     15  C   UNL     1       2.156  15.077  22.003  0.00  0.00    +0.000 C 
ATOM     16  N   UNL     1       0.830  14.530  21.791  0.00  0.00    +0.000 N 
ATOM     17  N   UNL     1       0.674  13.726  20.703  0.00  0.00    +0.000 NA
ATOM     18  C   UNL     1      -0.429  13.053  20.544  0.00  0.00    +0.000 A 
ATOM     19  C   UNL     1      -1.583  13.187  21.471  0.00  0.00    +0.000 A 
ATOM     20  C   UNL     1      -2.779  12.465  21.361  0.00  0.00    +0.000 A 
ATOM     21  C   UNL     1      -3.848  12.733  22.224  0.00  0.00    +0.000 A 
ATOM     22  C   UNL     1      -3.735  13.718  23.204  0.00  0.00    +0.000 A 
ATOM     23  C   UNL     1      -2.540  14.418  23.342  0.00  0.00    +0.000 A 
ATOM     24  C   UNL     1      -1.465  14.141  22.482  0.00  0.00    +0.000 A 
ATOM     25  C   UNL     1      -0.185  14.844  22.683  0.00  0.00    +0.000 A 
ATOM     26  O   UNL     1      -0.052  15.619  23.625  0.00  0.00    +0.000 OA
ENDBRANCH   1  18
TORSDOF 1
ENDMDL
MODEL 9
REMARK VINA RESULT:      -6.3      6.318     11.766
REMARK  Name = 
REMARK  2 active torsions:
REMARK  status: ('A' for Active; 'I' for Inactive)
REMARK    1  A    between atoms: C_1  and  N_2
REMARK    2  A    between atoms: C_4  and  C_5
REMARK                            x       y       z     vdW  Elec       q    Type
REMARK                         _______ _______ _______ _____ _____    ______ ____
ROOT
ATOM      1  C   UNL     1      -2.932  12.816  22.342  0.00  0.00    +0.000 C 
ATOM      2  O   UNL     1      -2.936  12.913  23.566  0.00  0.00    +0.000 OA
ATOM      3  N   UNL     1      -1.839  12.321  21.629  0.00  0.00    +0.000 N 
ATOM      4  C   UNL     1      -0.720  11.691  22.361  0.00  0.00    +0.000 C 
ATOM      5  C   UNL     1      -0.407  10.249  21.858  0.00  0.00    +0.000 C 
ATOM      6  N   UNL     1      -0.321  10.280  20.395  0.00  0.00    +0.000 N 
ATOM      7  C   UNL     1       0.630   9.563  19.708  0.00  0.00    +0.000 A 
ATOM      8  C   UNL     1       1.068  10.018  18.461  0.00  0.00    +0.000 A 
ATOM      9  C   UNL     1       2.038   9.318  17.751  0.00  0.00    +0.000 A 
ATOM     10  C   UNL     1       2.561   8.159  18.297  0.00  0.00    +0.000 A 
ATOM     11  C   UNL     1       2.098   7.776  19.546  0.00  0.00    +0.000 A 
ATOM     12  N   UNL     1       1.167   8.457  20.260  0.00  0.00    +0.000 NA
ATOM     13  C   UNL     1      -1.523  10.781  19.722  0.00  0.00    +0.000 C 
ATOM     14  C   UNL     1      -1.707  12.242  20.161  0.00  0.00    +0.000 C 
ENDROOT
BRANCH   1  18
ATOM     15  C   UNL     1      -7.227  11.419  20.760  0.00  0.00    +0.000 C 
ATOM     16  N   UNL     1      -6.323  12.542  20.912  0.00  0.00    +0.000 N 
ATOM     17  N   UNL     1      -5.155  12.294  21.568  0.00  0.00    +0.000 NA
ATOM     18  C   UNL     1      -4.216  13.196  21.587  0.00  0.00    +0.000 A 
ATOM     19  C   UNL     1      -4.394  14.542  20.985  0.00  0.00    +0.000 A 
ATOM     20  C   UNL     1      -3.407  15.536  20.953  0.00  0.00    +0.000 A 
ATOM     21  C   UNL     1      -3.701  16.809  20.452  0.00  0.00    +0.000 A 
ATOM     22  C   UNL     1      -4.978  17.104  19.977  0.00  0.00    +0.000 A 
ATOM     23  C   UNL     1      -5.956  16.114  19.974  0.00  0.00    +0.000 A 
ATOM     24  C   UNL     1      -5.657  14.834  20.468  0.00  0.00    +0.000 A 
ATOM     25  C   UNL     1      -6.683  13.778  20.398  0.00  0.00    +0.000 A 
ATOM     26  O   UNL     1      -7.764  14.008  19.864  0.00  0.00    +0.000 OA
ENDBRANCH   1  18
TORSDOF 1
ENDMDL
