MODEL 1
REMARK VINA RESULT:      -7.5      0.000      0.000
REMARK  Name = 
REMARK  6 active torsions:
REMARK  status: ('A' for Active; 'I' for Inactive)
REMARK    1  A    between atoms: C_2  and  C_3
REMARK    2  A    between atoms: C_6  and  C_7
REMARK    3  A    between atoms: C_7  and  O_9
REMARK    4  A    between atoms: O_9  and  C_10
REMARK    5  A    between atoms: C_10  and  C_11
REMARK    6  A    between atoms: C_17  and  C_19
REMARK                            x       y       z     vdW  Elec       q    Type
REMARK                         _______ _______ _______ _____ _____    ______ ____
ROOT
ATOM      1  C   UNL     1       5.489   4.682  18.925  0.00  0.00    +0.000 C 
ATOM      2  O   UNL     1       5.954   5.547  19.671  0.00  0.00    +0.000 OA
ATOM      3  N   UNL     1       5.588   4.777  17.545  0.00  0.00    +0.000 N 
ATOM      4  C   UNL     1       6.414   5.834  16.938  0.00  0.00    +0.000 C 
ATOM      5  C   UNL     1       7.358   5.261  15.858  0.00  0.00    +0.000 C 
ATOM      6  N   UNL     1       6.624   4.410  14.909  0.00  0.00    +0.000 N 
ATOM      7  C   UNL     1       6.877   4.525  13.538  0.00  0.00    +0.000 C 
ATOM      8  O   UNL     1       7.760   5.272  13.121  0.00  0.00    +0.000 OA
ATOM      9  C   UNL     1       5.843   3.345  15.557  0.00  0.00    +0.000 C 
ATOM     10  C   UNL     1       4.869   3.947  16.573  0.00  0.00    +0.000 C 
ENDROOT
BRANCH   7  11
ATOM     11  C   UNL     1       6.072   3.727  12.620  0.00  0.00    +0.000 A 
ATOM     12  C   UNL     1       4.777   3.904  12.165  0.00  0.00    +0.000 A 
ATOM     13  C   UNL     1       4.500   2.828  11.287  0.00  0.00    +0.000 A 
ATOM     14  C   UNL     1       5.625   2.041  11.280  0.00  0.00    +0.000 A 
ATOM     15  O   UNL     1       6.559   2.549  12.120  0.00  0.00    +0.000 OA
ENDBRANCH   7  11
BRANCH   1  16
ATOM     16  C   UNL     1       4.792   3.441  19.511  0.00  0.00    +0.000 C 
BRANCH  16  17
ATOM     17  O   UNL     1       3.561   3.750  20.172  0.00  0.00    +0.000 OA
BRANCH  17  18
ATOM     18  C   UNL     1       2.562   4.073  19.311  0.00  0.00    +0.000 C 
ATOM     19  O   UNL     1       1.998   3.296  18.556  0.00  0.00    +0.000 OA
BRANCH  18  23
ATOM     20  C   UNL     1       1.622   8.266  19.568  0.00  0.00    +0.000 A 
ATOM     21  C   UNL     1       1.449   7.420  20.667  0.00  0.00    +0.000 A 
ATOM     22  C   UNL     1       1.756   6.056  20.558  0.00  0.00    +0.000 A 
ATOM     23  C   UNL     1       2.246   5.525  19.357  0.00  0.00    +0.000 A 
ATOM     24  C   UNL     1       2.410   6.379  18.255  0.00  0.00    +0.000 A 
ATOM     25  C   UNL     1       2.098   7.739  18.365  0.00  0.00    +0.000 A 
BRANCH  20  27
ATOM     26  N   UNL     1       1.066  10.792  19.771  0.00  0.00    +0.000 NA
ATOM     27  C   UNL     1       1.315   9.662  19.679  0.00  0.00    +0.000 C 
ENDBRANCH  20  27
ENDBRANCH  18  23
ENDBRANCH  17  18
ENDBRANCH  16  17
ENDBRANCH   1  16
TORSDOF 6
ENDMDL
MODEL 2
REMARK VINA RESULT:      -7.4      0.568      1.194
REMARK  Name = 
REMARK  6 active torsions:
REMARK  status: ('A' for Active; 'I' for Inactive)
REMARK    1  A    between atoms: C_2  and  C_3
REMARK    2  A    between atoms: C_6  and  C_7
REMARK    3  A    between atoms: C_7  and  O_9
REMARK    4  A    between atoms: O_9  and  C_10
REMARK    5  A    between atoms: C_10  and  C_11
REMARK    6  A    between atoms: C_17  and  C_19
REMARK                            x       y       z     vdW  Elec       q    Type
REMARK                         _______ _______ _______ _____ _____    ______ ____
ROOT
ATOM      1  C   UNL     1       5.393   4.793  18.958  0.00  0.00    +0.000 C 
ATOM      2  O   UNL     1       5.837   5.673  19.699  0.00  0.00    +0.000 OA
ATOM      3  N   UNL     1       5.526   4.862  17.580  0.00  0.00    +0.000 N 
ATOM      4  C   UNL     1       6.362   5.911  16.973  0.00  0.00    +0.000 C 
ATOM      5  C   UNL     1       7.334   5.323  15.927  0.00  0.00    +0.000 C 
ATOM      6  N   UNL     1       6.627   4.450  14.977  0.00  0.00    +0.000 N 
ATOM      7  C   UNL     1       6.913   4.541  13.610  0.00  0.00    +0.000 C 
ATOM      8  O   UNL     1       7.802   5.284  13.201  0.00  0.00    +0.000 OA
ATOM      9  C   UNL     1       5.835   3.394  15.625  0.00  0.00    +0.000 C 
ATOM     10  C   UNL     1       4.834   4.011  16.606  0.00  0.00    +0.000 C 
ENDROOT
BRANCH   7  11
ATOM     11  C   UNL     1       6.134   3.723  12.688  0.00  0.00    +0.000 A 
ATOM     12  C   UNL     1       6.505   2.649  11.897  0.00  0.00    +0.000 A 
ATOM     13  C   UNL     1       5.344   2.232  11.200  0.00  0.00    +0.000 A 
ATOM     14  C   UNL     1       4.343   3.092  11.578  0.00  0.00    +0.000 A 
ATOM     15  O   UNL     1       4.822   4.024  12.436  0.00  0.00    +0.000 OA
ENDBRANCH   7  11
BRANCH   1  16
ATOM     16  C   UNL     1       4.687   3.560  19.550  0.00  0.00    +0.000 C 
BRANCH  16  17
ATOM     17  O   UNL     1       3.461   3.882  20.213  0.00  0.00    +0.000 OA
BRANCH  17  18
ATOM     18  C   UNL     1       2.461   4.208  19.354  0.00  0.00    +0.000 C 
ATOM     19  O   UNL     1       1.866   3.424  18.630  0.00  0.00    +0.000 OA
BRANCH  18  23
ATOM     20  C   UNL     1       1.687   8.440  19.237  0.00  0.00    +0.000 A 
ATOM     21  C   UNL     1       2.066   7.745  18.085  0.00  0.00    +0.000 A 
ATOM     22  C   UNL     1       2.320   6.367  18.148  0.00  0.00    +0.000 A 
ATOM     23  C   UNL     1       2.189   5.669  19.357  0.00  0.00    +0.000 A 
ATOM     24  C   UNL     1       1.815   6.375  20.511  0.00  0.00    +0.000 A 
ATOM     25  C   UNL     1       1.567   7.751  20.445  0.00  0.00    +0.000 A 
BRANCH  20  27
ATOM     26  N   UNL     1       1.205  10.987  19.119  0.00  0.00    +0.000 NA
ATOM     27  C   UNL     1       1.421   9.848  19.173  0.00  0.00    +0.000 C 
ENDBRANCH  20  27
ENDBRANCH  18  23
ENDBRANCH  17  18
ENDBRANCH  16  17
ENDBRANCH   1  16
TORSDOF 6
ENDMDL
MODEL 3
REMARK VINA RESULT:      -7.1      0.821      1.015
REMARK  Name = 
REMARK  6 active torsions:
REMARK  status: ('A' for Active; 'I' for Inactive)
REMARK    1  A    between atoms: C_2  and  C_3
REMARK    2  A    between atoms: C_6  and  C_7
REMARK    3  A    between atoms: C_7  and  O_9
REMARK    4  A    between atoms: O_9  and  C_10
REMARK    5  A    between atoms: C_10  and  C_11
REMARK    6  A    between atoms: C_17  and  C_19
REMARK                            x       y       z     vdW  Elec       q    Type
REMARK                         _______ _______ _______ _____ _____    ______ ____
ROOT
ATOM      1  C   UNL     1       5.299   4.691  19.020  0.00  0.00    +0.000 C 
ATOM      2  O   UNL     1       5.733   5.556  19.785  0.00  0.00    +0.000 OA
ATOM      3  N   UNL     1       5.455   4.787  17.645  0.00  0.00    +0.000 N 
ATOM      4  C   UNL     1       6.306   5.843  17.073  0.00  0.00    +0.000 C 
ATOM      5  C   UNL     1       7.292   5.271  16.033  0.00  0.00    +0.000 C 
ATOM      6  N   UNL     1       6.598   4.420  15.054  0.00  0.00    +0.000 N 
ATOM      7  C   UNL     1       6.907   4.535  13.694  0.00  0.00    +0.000 C 
ATOM      8  O   UNL     1       7.806   5.282  13.314  0.00  0.00    +0.000 OA
ATOM      9  C   UNL     1       5.791   3.355  15.669  0.00  0.00    +0.000 C 
ATOM     10  C   UNL     1       4.776   3.957  16.644  0.00  0.00    +0.000 C 
ENDROOT
BRANCH   7  11
ATOM     11  C   UNL     1       6.141   3.737  12.744  0.00  0.00    +0.000 A 
ATOM     12  C   UNL     1       6.522   2.679  11.937  0.00  0.00    +0.000 A 
ATOM     13  C   UNL     1       5.371   2.279  11.213  0.00  0.00    +0.000 A 
ATOM     14  C   UNL     1       4.365   3.133  11.594  0.00  0.00    +0.000 A 
ATOM     15  O   UNL     1       4.833   4.046  12.479  0.00  0.00    +0.000 OA
ENDBRANCH   7  11
BRANCH   1  16
ATOM     16  C   UNL     1       4.579   3.451  19.577  0.00  0.00    +0.000 C 
BRANCH  16  17
ATOM     17  O   UNL     1       3.188   3.413  19.243  0.00  0.00    +0.000 OA
BRANCH  17  18
ATOM     18  C   UNL     1       2.412   4.098  20.122  0.00  0.00    +0.000 C 
ATOM     19  O   UNL     1       1.906   3.632  21.132  0.00  0.00    +0.000 OA
BRANCH  18  23
ATOM     20  C   UNL     1       1.805   8.208  18.997  0.00  0.00    +0.000 A 
ATOM     21  C   UNL     1       1.761   7.814  20.337  0.00  0.00    +0.000 A 
ATOM     22  C   UNL     1       1.955   6.468  20.680  0.00  0.00    +0.000 A 
ATOM     23  C   UNL     1       2.204   5.505  19.692  0.00  0.00    +0.000 A 
ATOM     24  C   UNL     1       2.240   5.907  18.347  0.00  0.00    +0.000 A 
ATOM     25  C   UNL     1       2.041   7.251  18.009  0.00  0.00    +0.000 A 
BRANCH  20  27
ATOM     26  N   UNL     1       1.459  10.699  18.358  0.00  0.00    +0.000 NA
ATOM     27  C   UNL     1       1.613   9.585  18.645  0.00  0.00    +0.000 C 
ENDBRANCH  20  27
ENDBRANCH  18  23
ENDBRANCH  17  18
ENDBRANCH  16  17
ENDBRANCH   1  16
TORSDOF 6
ENDMDL
MODEL 4
REMARK VINA RESULT:      -6.9      5.143      7.958
REMARK  Name = 
REMARK  6 active torsions:
REMARK  status: ('A' for Active; 'I' for Inactive)
REMARK    1  A    between atoms: C_2  and  C_3
REMARK    2  A    between atoms: C_6  and  C_7
REMARK    3  A    between atoms: C_7  and  O_9
REMARK    4  A    between atoms: O_9  and  C_10
REMARK    5  A    between atoms: C_10  and  C_11
REMARK    6  A    between atoms: C_17  and  C_19
REMARK                            x       y       z     vdW  Elec       q    Type
REMARK                         _______ _______ _______ _____ _____    ______ ____
ROOT
ATOM      1  C   UNL     1       7.357   6.944  17.059  0.00  0.00    +0.000 C 
ATOM      2  O   UNL     1       7.962   6.926  15.984  0.00  0.00    +0.000 OA
ATOM      3  N   UNL     1       6.233   6.162  17.278  0.00  0.00    +0.000 N 
ATOM      4  C   UNL     1       5.835   5.151  16.284  0.00  0.00    +0.000 C 
ATOM      5  C   UNL     1       5.553   3.787  16.950  0.00  0.00    +0.000 C 
ATOM      6  N   UNL     1       4.647   3.933  18.099  0.00  0.00    +0.000 N 
ATOM      7  C   UNL     1       3.598   3.023  18.274  0.00  0.00    +0.000 C 
ATOM      8  O   UNL     1       3.472   2.057  17.525  0.00  0.00    +0.000 OA
ATOM      9  C   UNL     1       5.102   4.926  19.084  0.00  0.00    +0.000 C 
ATOM     10  C   UNL     1       5.308   6.285  18.410  0.00  0.00    +0.000 C 
ENDROOT
BRANCH   7  11
ATOM     11  C   UNL     1       2.668   3.248  19.375  0.00  0.00    +0.000 A 
ATOM     12  C   UNL     1       2.551   2.619  20.602  0.00  0.00    +0.000 A 
ATOM     13  C   UNL     1       1.474   3.241  21.281  0.00  0.00    +0.000 A 
ATOM     14  C   UNL     1       0.976   4.188  20.420  0.00  0.00    +0.000 A 
ATOM     15  O   UNL     1       1.659   4.164  19.250  0.00  0.00    +0.000 OA
ENDBRANCH   7  11
BRANCH   1  16
ATOM     16  C   UNL     1       7.851   7.831  18.215  0.00  0.00    +0.000 C 
BRANCH  16  17
ATOM     17  O   UNL     1       8.376   9.087  17.773  0.00  0.00    +0.000 OA
BRANCH  17  18
ATOM     18  C   UNL     1       9.002   9.778  18.760  0.00  0.00    +0.000 C 
ATOM     19  O   UNL     1       9.099   9.420  19.924  0.00  0.00    +0.000 OA
BRANCH  18  23
ATOM     20  C   UNL     1      10.437  13.582  17.346  0.00  0.00    +0.000 A 
ATOM     21  C   UNL     1       9.076  13.368  17.581  0.00  0.00    +0.000 A 
ATOM     22  C   UNL     1       8.630  12.117  18.035  0.00  0.00    +0.000 A 
ATOM     23  C   UNL     1       9.538  11.074  18.268  0.00  0.00    +0.000 A 
ATOM     24  C   UNL     1      10.902  11.295  18.023  0.00  0.00    +0.000 A 
ATOM     25  C   UNL     1      11.343  12.542  17.564  0.00  0.00    +0.000 A 
BRANCH  20  27
ATOM     26  N   UNL     1      11.264  15.897  16.517  0.00  0.00    +0.000 NA
ATOM     27  C   UNL     1      10.895  14.861  16.887  0.00  0.00    +0.000 C 
ENDBRANCH  20  27
ENDBRANCH  18  23
ENDBRANCH  17  18
ENDBRANCH  16  17
ENDBRANCH   1  16
TORSDOF 6
ENDMDL
MODEL 5
REMARK VINA RESULT:      -6.9      3.768      9.531
REMARK  Name = 
REMARK  6 active torsions:
REMARK  status: ('A' for Active; 'I' for Inactive)
REMARK    1  A    between atoms: C_2  and  C_3
REMARK    2  A    between atoms: C_6  and  C_7
REMARK    3  A    between atoms: C_7  and  O_9
REMARK    4  A    between atoms: O_9  and  C_10
REMARK    5  A    between atoms: C_10  and  C_11
REMARK    6  A    between atoms: C_17  and  C_19
REMARK                            x       y       z     vdW  Elec       q    Type
REMARK                         _______ _______ _______ _____ _____    ______ ____
ROOT
ATOM      1  C   UNL     1       2.114   7.584  18.996  0.00  0.00    +0.000 C 
ATOM      2  O   UNL     1       2.568   7.371  17.869  0.00  0.00    +0.000 OA
ATOM      3  N   UNL     1       1.501   8.784  19.322  0.00  0.00    +0.000 N 
ATOM      4  C   UNL     1       1.217   9.775  18.270  0.00  0.00    +0.000 C 
ATOM      5  C   UNL     1      -0.238  10.283  18.353  0.00  0.00    +0.000 C 
ATOM      6  N   UNL     1      -0.578  10.701  19.722  0.00  0.00    +0.000 N 
ATOM      7  C   UNL     1      -1.287  11.890  19.927  0.00  0.00    +0.000 C 
ATOM      8  O   UNL     1      -1.697  12.550  18.974  0.00  0.00    +0.000 OA
ATOM      9  C   UNL     1      -0.314   9.668  20.734  0.00  0.00    +0.000 C 
ATOM     10  C   UNL     1       1.152   9.231  20.675  0.00  0.00    +0.000 C 
ENDROOT
BRANCH   7  11
ATOM     11  C   UNL     1      -1.534  12.317  21.299  0.00  0.00    +0.000 A 
ATOM     12  C   UNL     1      -0.695  12.916  22.224  0.00  0.00    +0.000 A 
ATOM     13  C   UNL     1      -1.458  13.112  23.402  0.00  0.00    +0.000 A 
ATOM     14  C   UNL     1      -2.703  12.595  23.141  0.00  0.00    +0.000 A 
ATOM     15  O   UNL     1      -2.742  12.069  21.893  0.00  0.00    +0.000 OA
ENDBRANCH   7  11
BRANCH   1  16
ATOM     16  C   UNL     1       2.195   6.500  20.085  0.00  0.00    +0.000 C 
BRANCH  16  17
ATOM     17  O   UNL     1       1.895   5.189  19.595  0.00  0.00    +0.000 OA
BRANCH  17  18
ATOM     18  C   UNL     1       2.919   4.312  19.762  0.00  0.00    +0.000 C 
ATOM     19  O   UNL     1       2.998   3.478  20.651  0.00  0.00    +0.000 OA
BRANCH  18  23
ATOM     20  C   UNL     1       5.919   4.842  16.722  0.00  0.00    +0.000 A 
ATOM     21  C   UNL     1       4.680   4.272  16.419  0.00  0.00    +0.000 A 
ATOM     22  C   UNL     1       3.720   4.103  17.428  0.00  0.00    +0.000 A 
ATOM     23  C   UNL     1       3.983   4.509  18.744  0.00  0.00    +0.000 A 
ATOM     24  C   UNL     1       5.233   5.074  19.042  0.00  0.00    +0.000 A 
ATOM     25  C   UNL     1       6.190   5.237  18.034  0.00  0.00    +0.000 A 
BRANCH  20  27
ATOM     26  N   UNL     1       7.695   5.164  14.858  0.00  0.00    +0.000 NA
ATOM     27  C   UNL     1       6.900   5.021  15.691  0.00  0.00    +0.000 C 
ENDBRANCH  20  27
ENDBRANCH  18  23
ENDBRANCH  17  18
ENDBRANCH  16  17
ENDBRANCH   1  16
TORSDOF 6
ENDMDL
MODEL 6
REMARK VINA RESULT:      -6.9      4.825      7.546
REMARK  Name = 
REMARK  6 active torsions:
REMARK  status: ('A' for Active; 'I' for Inactive)
REMARK    1  A    between atoms: C_2  and  C_3
REMARK    2  A    between atoms: C_6  and  C_7
REMARK    3  A    between atoms: C_7  and  O_9
REMARK    4  A    between atoms: O_9  and  C_10
REMARK    5  A    between atoms: C_10  and  C_11
REMARK    6  A    between atoms: C_17  and  C_19
REMARK                            x       y       z     vdW  Elec       q    Type
REMARK                         _______ _______ _______ _____ _____    ______ ____
ROOT
ATOM      1  C   UNL     1       7.317   6.445  17.266  0.00  0.00    +0.000 C 
ATOM      2  O   UNL     1       7.855   6.540  16.160  0.00  0.00    +0.000 OA
ATOM      3  N   UNL     1       6.110   5.783  17.436  0.00  0.00    +0.000 N 
ATOM      4  C   UNL     1       5.525   5.019  16.321  0.00  0.00    +0.000 C 
ATOM      5  C   UNL     1       5.096   3.606  16.770  0.00  0.00    +0.000 C 
ATOM      6  N   UNL     1       4.281   3.662  17.992  0.00  0.00    +0.000 N 
ATOM      7  C   UNL     1       3.128   2.873  18.092  0.00  0.00    +0.000 C 
ATOM      8  O   UNL     1       2.832   2.077  17.204  0.00  0.00    +0.000 OA
ATOM      9  C   UNL     1       4.918   4.402  19.092  0.00  0.00    +0.000 C 
ATOM     10  C   UNL     1       5.272   5.821  18.639  0.00  0.00    +0.000 C 
ENDROOT
BRANCH   7  11
ATOM     11  C   UNL     1       2.298   3.016  19.282  0.00  0.00    +0.000 A 
ATOM     12  C   UNL     1       1.258   3.888  19.560  0.00  0.00    +0.000 A 
ATOM     13  C   UNL     1       0.807   3.585  20.869  0.00  0.00    +0.000 A 
ATOM     14  C   UNL     1       1.615   2.573  21.325  0.00  0.00    +0.000 A 
ATOM     15  O   UNL     1       2.548   2.258  20.395  0.00  0.00    +0.000 OA
ENDBRANCH   7  11
BRANCH   1  16
ATOM     16  C   UNL     1       7.987   7.047  18.513  0.00  0.00    +0.000 C 
BRANCH  16  17
ATOM     17  O   UNL     1       8.813   8.177  18.214  0.00  0.00    +0.000 OA
BRANCH  17  18
ATOM     18  C   UNL     1       8.101   9.315  18.006  0.00  0.00    +0.000 C 
ATOM     19  O   UNL     1       6.990   9.373  17.502  0.00  0.00    +0.000 OA
BRANCH  18  23
ATOM     20  C   UNL     1      10.347  12.740  19.328  0.00  0.00    +0.000 A 
ATOM     21  C   UNL     1      10.400  11.531  20.026  0.00  0.00    +0.000 A 
ATOM     22  C   UNL     1       9.654  10.430  19.581  0.00  0.00    +0.000 A 
ATOM     23  C   UNL     1       8.857  10.522  18.431  0.00  0.00    +0.000 A 
ATOM     24  C   UNL     1       8.803  11.742  17.739  0.00  0.00    +0.000 A 
ATOM     25  C   UNL     1       9.545  12.840  18.189  0.00  0.00    +0.000 A 
BRANCH  20  27
ATOM     26  N   UNL     1      11.736  14.775  20.142  0.00  0.00    +0.000 NA
ATOM     27  C   UNL     1      11.113  13.866  19.779  0.00  0.00    +0.000 C 
ENDBRANCH  20  27
ENDBRANCH  18  23
ENDBRANCH  17  18
ENDBRANCH  16  17
ENDBRANCH   1  16
TORSDOF 6
ENDMDL
MODEL 7
REMARK VINA RESULT:      -6.9      3.771      9.503
REMARK  Name = 
REMARK  6 active torsions:
REMARK  status: ('A' for Active; 'I' for Inactive)
REMARK    1  A    between atoms: C_2  and  C_3
REMARK    2  A    between atoms: C_6  and  C_7
REMARK    3  A    between atoms: C_7  and  O_9
REMARK    4  A    between atoms: O_9  and  C_10
REMARK    5  A    between atoms: C_10  and  C_11
REMARK    6  A    between atoms: C_17  and  C_19
REMARK                            x       y       z     vdW  Elec       q    Type
REMARK                         _______ _______ _______ _____ _____    ______ ____
ROOT
ATOM      1  C   UNL     1       2.155   7.674  18.985  0.00  0.00    +0.000 C 
ATOM      2  O   UNL     1       2.636   7.473  17.867  0.00  0.00    +0.000 OA
ATOM      3  N   UNL     1       1.500   8.856  19.298  0.00  0.00    +0.000 N 
ATOM      4  C   UNL     1       1.206   9.837  18.239  0.00  0.00    +0.000 C 
ATOM      5  C   UNL     1      -0.265  10.301  18.294  0.00  0.00    +0.000 C 
ATOM      6  N   UNL     1      -0.642  10.710  19.656  0.00  0.00    +0.000 N 
ATOM      7  C   UNL     1      -1.390  11.878  19.846  0.00  0.00    +0.000 C 
ATOM      8  O   UNL     1      -1.803  12.523  18.885  0.00  0.00    +0.000 OA
ATOM      9  C   UNL     1      -0.366   9.687  20.675  0.00  0.00    +0.000 C 
ATOM     10  C   UNL     1       1.114   9.294  20.643  0.00  0.00    +0.000 C 
ENDROOT
BRANCH   7  11
ATOM     11  C   UNL     1      -1.674  12.299  21.212  0.00  0.00    +0.000 A 
ATOM     12  C   UNL     1      -2.866  12.347  21.915  0.00  0.00    +0.000 A 
ATOM     13  C   UNL     1      -2.561  12.837  23.209  0.00  0.00    +0.000 A 
ATOM     14  C   UNL     1      -1.211  13.089  23.212  0.00  0.00    +0.000 A 
ATOM     15  O   UNL     1      -0.678  12.815  21.997  0.00  0.00    +0.000 OA
ENDBRANCH   7  11
BRANCH   1  16
ATOM     16  C   UNL     1       2.249   6.595  20.078  0.00  0.00    +0.000 C 
BRANCH  16  17
ATOM     17  O   UNL     1       1.931   5.284  19.600  0.00  0.00    +0.000 OA
BRANCH  17  18
ATOM     18  C   UNL     1       2.961   4.407  19.728  0.00  0.00    +0.000 C 
ATOM     19  O   UNL     1       3.098   3.605  20.639  0.00  0.00    +0.000 OA
BRANCH  18  23
ATOM     20  C   UNL     1       5.921   4.893  16.642  0.00  0.00    +0.000 A 
ATOM     21  C   UNL     1       6.182   5.285  17.958  0.00  0.00    +0.000 A 
ATOM     22  C   UNL     1       5.200   5.123  18.946  0.00  0.00    +0.000 A 
ATOM     23  C   UNL     1       3.954   4.561  18.633  0.00  0.00    +0.000 A 
ATOM     24  C   UNL     1       3.696   4.178  17.308  0.00  0.00    +0.000 A 
ATOM     25  C   UNL     1       4.677   4.345  16.323  0.00  0.00    +0.000 A 
BRANCH  20  27
ATOM     26  N   UNL     1       7.738   5.179  14.812  0.00  0.00    +0.000 NA
ATOM     27  C   UNL     1       6.927   5.052  15.631  0.00  0.00    +0.000 C 
ENDBRANCH  20  27
ENDBRANCH  18  23
ENDBRANCH  17  18
ENDBRANCH  16  17
ENDBRANCH   1  16
TORSDOF 6
ENDMDL
MODEL 8
REMARK VINA RESULT:      -6.8      2.520      4.350
REMARK  Name = 
REMARK  6 active torsions:
REMARK  status: ('A' for Active; 'I' for Inactive)
REMARK    1  A    between atoms: C_2  and  C_3
REMARK    2  A    between atoms: C_6  and  C_7
REMARK    3  A    between atoms: C_7  and  O_9
REMARK    4  A    between atoms: O_9  and  C_10
REMARK    5  A    between atoms: C_10  and  C_11
REMARK    6  A    between atoms: C_17  and  C_19
REMARK                            x       y       z     vdW  Elec       q    Type
REMARK                         _______ _______ _______ _____ _____    ______ ____
ROOT
ATOM      1  C   UNL     1       2.700   2.793  18.741  0.00  0.00    +0.000 C 
ATOM      2  O   UNL     1       2.312   1.761  18.189  0.00  0.00    +0.000 OA
ATOM      3  N   UNL     1       3.879   3.422  18.370  0.00  0.00    +0.000 N 
ATOM      4  C   UNL     1       4.612   2.966  17.177  0.00  0.00    +0.000 C 
ATOM      5  C   UNL     1       4.989   4.150  16.261  0.00  0.00    +0.000 C 
ATOM      6  N   UNL     1       5.635   5.229  17.026  0.00  0.00    +0.000 N 
ATOM      7  C   UNL     1       6.770   5.862  16.506  0.00  0.00    +0.000 C 
ATOM      8  O   UNL     1       7.187   5.582  15.384  0.00  0.00    +0.000 OA
ATOM      9  C   UNL     1       4.851   5.678  18.186  0.00  0.00    +0.000 C 
ATOM     10  C   UNL     1       4.549   4.496  19.111  0.00  0.00    +0.000 C 
ENDROOT
BRANCH   7  11
ATOM     11  C   UNL     1       7.434   6.867  17.327  0.00  0.00    +0.000 A 
ATOM     12  C   UNL     1       8.093   6.752  18.539  0.00  0.00    +0.000 A 
ATOM     13  C   UNL     1       8.548   8.050  18.882  0.00  0.00    +0.000 A 
ATOM     14  C   UNL     1       8.115   8.883  17.882  0.00  0.00    +0.000 A 
ATOM     15  O   UNL     1       7.400   8.187  16.965  0.00  0.00    +0.000 OA
ENDBRANCH   7  11
BRANCH   1  16
ATOM     16  C   UNL     1       1.865   3.437  19.862  0.00  0.00    +0.000 C 
BRANCH  16  17
ATOM     17  O   UNL     1       1.480   4.784  19.571  0.00  0.00    +0.000 OA
BRANCH  17  18
ATOM     18  C   UNL     1       1.895   5.671  20.512  0.00  0.00    +0.000 C 
ATOM     19  O   UNL     1       2.357   5.379  21.605  0.00  0.00    +0.000 OA
BRANCH  18  23
ATOM     20  C   UNL     1       1.241   9.766  19.361  0.00  0.00    +0.000 A 
ATOM     21  C   UNL     1       0.847   9.300  20.618  0.00  0.00    +0.000 A 
ATOM     22  C   UNL     1       1.064   7.959  20.969  0.00  0.00    +0.000 A 
ATOM     23  C   UNL     1       1.684   7.075  20.075  0.00  0.00    +0.000 A 
ATOM     24  C   UNL     1       2.070   7.549  18.811  0.00  0.00    +0.000 A 
ATOM     25  C   UNL     1       1.847   8.887  18.462  0.00  0.00    +0.000 A 
BRANCH  20  27
ATOM     26  N   UNL     1       0.848  12.248  18.713  0.00  0.00    +0.000 NA
ATOM     27  C   UNL     1       1.025  11.138  19.003  0.00  0.00    +0.000 C 
ENDBRANCH  20  27
ENDBRANCH  18  23
ENDBRANCH  17  18
ENDBRANCH  16  17
ENDBRANCH   1  16
TORSDOF 6
ENDMDL
MODEL 9
REMARK VINA RESULT:      -6.8      3.937      6.111
REMARK  Name = 
REMARK  6 active torsions:
REMARK  status: ('A' for Active; 'I' for Inactive)
REMARK    1  A    between atoms: C_2  and  C_3
REMARK    2  A    between atoms: C_6  and  C_7
REMARK    3  A    between atoms: C_7  and  O_9
REMARK    4  A    between atoms: O_9  and  C_10
REMARK    5  A    between atoms: C_10  and  C_11
REMARK    6  A    between atoms: C_17  and  C_19
REMARK                            x       y       z     vdW  Elec       q    Type
REMARK                         _______ _______ _______ _____ _____    ______ ____
ROOT
ATOM      1  C   UNL     1       1.248   7.822  20.574  0.00  0.00    +0.000 C 
ATOM      2  O   UNL     1       0.414   7.560  21.444  0.00  0.00    +0.000 OA
ATOM      3  N   UNL     1       2.096   6.854  20.058  0.00  0.00    +0.000 N 
ATOM      4  C   UNL     1       1.898   5.438  20.413  0.00  0.00    +0.000 C 
ATOM      5  C   UNL     1       1.909   4.537  19.160  0.00  0.00    +0.000 C 
ATOM      6  N   UNL     1       3.079   4.818  18.313  0.00  0.00    +0.000 N 
ATOM      7  C   UNL     1       3.807   3.757  17.764  0.00  0.00    +0.000 C 
ATOM      8  O   UNL     1       3.436   2.595  17.915  0.00  0.00    +0.000 OA
ATOM      9  C   UNL     1       3.216   6.237  17.952  0.00  0.00    +0.000 C 
ATOM     10  C   UNL     1       3.270   7.101  19.215  0.00  0.00    +0.000 C 
ENDROOT
BRANCH   7  11
ATOM     11  C   UNL     1       5.009   4.069  17.000  0.00  0.00    +0.000 A 
ATOM     12  C   UNL     1       5.235   4.082  15.634  0.00  0.00    +0.000 A 
ATOM     13  C   UNL     1       6.587   4.460  15.445  0.00  0.00    +0.000 A 
ATOM     14  C   UNL     1       7.116   4.624  16.701  0.00  0.00    +0.000 A 
ATOM     15  O   UNL     1       6.186   4.341  17.645  0.00  0.00    +0.000 OA
ENDBRANCH   7  11
BRANCH   1  16
ATOM     16  C   UNL     1       1.361   9.250  20.010  0.00  0.00    +0.000 C 
BRANCH  16  17
ATOM     17  O   UNL     1       0.610   9.437  18.806  0.00  0.00    +0.000 OA
BRANCH  17  18
ATOM     18  C   UNL     1       0.220  10.725  18.618  0.00  0.00    +0.000 C 
ATOM     19  O   UNL     1       0.957  11.698  18.637  0.00  0.00    +0.000 OA
BRANCH  18  23
ATOM     20  C   UNL     1      -4.036  11.131  18.124  0.00  0.00    +0.000 A 
ATOM     21  C   UNL     1      -3.332  11.957  19.004  0.00  0.00    +0.000 A 
ATOM     22  C   UNL     1      -1.945  11.802  19.154  0.00  0.00    +0.000 A 
ATOM     23  C   UNL     1      -1.249  10.830  18.421  0.00  0.00    +0.000 A 
ATOM     24  C   UNL     1      -1.965   9.999  17.545  0.00  0.00    +0.000 A 
ATOM     25  C   UNL     1      -3.349  10.153  17.402  0.00  0.00    +0.000 A 
BRANCH  20  27
ATOM     26  N   UNL     1      -6.599  11.424  17.838  0.00  0.00    +0.000 NA
ATOM     27  C   UNL     1      -5.453  11.292  17.965  0.00  0.00    +0.000 C 
ENDBRANCH  20  27
ENDBRANCH  18  23
ENDBRANCH  17  18
ENDBRANCH  16  17
ENDBRANCH   1  16
TORSDOF 6
ENDMDL
