MODEL 1
REMARK VINA RESULT:      -9.0      0.000      0.000
REMARK  Name = 
REMARK  6 active torsions:
REMARK  status: ('A' for Active; 'I' for Inactive)
REMARK    1  A    between atoms: C_2  and  C_3
REMARK    2  A    between atoms: N_8  and  C_9
REMARK    3  A    between atoms: C_9  and  C_10
REMARK    4  A    between atoms: N_24  and  C_25
REMARK    5  A    between atoms: C_25  and  C_26
REMARK    6  A    between atoms: C_27  and  C_28
REMARK                            x       y       z     vdW  Elec       q    Type
REMARK                         _______ _______ _______ _____ _____    ______ ____
ROOT
ATOM      1  C   UNL     1       1.611   9.315  18.904  0.00  0.00    +0.000 C 
ATOM      2  C   UNL     1       0.392   9.671  18.090  0.00  0.00    +0.000 C 
ATOM      3  C   UNL     1       0.597  10.331  19.432  0.00  0.00    +0.000 C 
ATOM      4  C   UNL     1       1.014  11.776  19.439  0.00  0.00    +0.000 C 
ATOM      5  C   UNL     1       1.343  12.230  20.863  0.00  0.00    +0.000 C 
ATOM      6  N   UNL     1       0.217  12.050  21.801  0.00  0.00    +0.000 NA
ATOM      7  C   UNL     1      -0.058  10.592  21.869  0.00  0.00    +0.000 C 
ATOM      8  C   UNL     1      -0.430   9.973  20.507  0.00  0.00    +0.000 C 
ENDROOT
BRANCH   1  10
ATOM      9  O   UNL     1       1.311   7.894  20.755  0.00  0.00    +0.000 OA
ATOM     10  C   UNL     1       1.828   8.053  19.664  0.00  0.00    +0.000 C 
ATOM     11  N   UNL     1       2.664   7.106  19.077  0.00  0.00    +0.000 N 
ATOM     12  C   UNL     1       3.335   7.226  17.775  0.00  0.00    +0.000 C 
ATOM     13  C   UNL     1       4.747   6.610  17.789  0.00  0.00    +0.000 C 
ATOM     14  N   UNL     1       4.809   5.229  18.317  0.00  0.00    +0.000 NA
ATOM     15  C   UNL     1       4.185   5.228  19.664  0.00  0.00    +0.000 C 
ATOM     16  C   UNL     1       2.750   5.784  19.707  0.00  0.00    +0.000 C 
BRANCH  14  17
ATOM     17  C   UNL     1       4.144   4.285  17.407  0.00  0.00    +0.000 C 
BRANCH  17  18
ATOM     18  C   UNL     1       4.675   4.395  16.006  0.00  0.00    +0.000 C 
ATOM     19  C   UNL     1       5.843   3.855  15.623  0.00  0.00    +0.000 C 
BRANCH  19  20
ATOM     20  C   UNL     1       6.355   4.034  14.269  0.00  0.00    +0.000 A 
ATOM     21  C   UNL     1       7.359   4.980  14.040  0.00  0.00    +0.000 A 
ATOM     22  C   UNL     1       7.838   5.197  12.748  0.00  0.00    +0.000 A 
ATOM     23  C   UNL     1       7.318   4.465  11.682  0.00  0.00    +0.000 A 
ATOM     24  C   UNL     1       6.323   3.514  11.907  0.00  0.00    +0.000 A 
ATOM     25  C   UNL     1       5.839   3.298  13.200  0.00  0.00    +0.000 A 
ENDBRANCH  19  20
ENDBRANCH  17  18
ENDBRANCH  14  17
ENDBRANCH   1  10
BRANCH   6  26
ATOM     26  C   UNL     1      -1.020  12.780  21.414  0.00  0.00    +0.000 C 
BRANCH  26  27
ATOM     27  C   UNL     1      -2.030  13.060  22.505  0.00  0.00    +0.000 A 
ATOM     28  C   UNL     1      -3.291  12.442  22.496  0.00  0.00    +0.000 A 
ATOM     29  C   UNL     1      -4.258  12.740  23.475  0.00  0.00    +0.000 A 
ATOM     30  C   UNL     1      -3.979  13.641  24.505  0.00  0.00    +0.000 A 
ATOM     31  C   UNL     1      -2.744  14.247  24.497  0.00  0.00    +0.000 A 
ATOM     32  C   UNL     1      -1.808  13.990  23.513  0.00  0.00    +0.000 A 
ATOM     33  O   UNL     1      -0.701  14.778  23.669  0.00  0.00    +0.000 OA
ATOM     34  C   UNL     1      -0.968  15.382  24.953  0.00  0.00    +0.000 C 
ATOM     35  O   UNL     1      -2.310  15.156  25.416  0.00  0.00    +0.000 OA
ENDBRANCH  26  27
ENDBRANCH   6  26
TORSDOF 6
ENDMDL
MODEL 2
REMARK VINA RESULT:      -8.9      6.048      8.288
REMARK  Name = 
REMARK  6 active torsions:
REMARK  status: ('A' for Active; 'I' for Inactive)
REMARK    1  A    between atoms: C_2  and  C_3
REMARK    2  A    between atoms: N_8  and  C_9
REMARK    3  A    between atoms: C_9  and  C_10
REMARK    4  A    between atoms: N_24  and  C_25
REMARK    5  A    between atoms: C_25  and  C_26
REMARK    6  A    between atoms: C_27  and  C_28
REMARK                            x       y       z     vdW  Elec       q    Type
REMARK                         _______ _______ _______ _____ _____    ______ ____
ROOT
ATOM      1  C   UNL     1       0.935  14.549  21.556  0.00  0.00    +0.000 C 
ATOM      2  C   UNL     1      -0.414  14.286  22.178  0.00  0.00    +0.000 C 
ATOM      3  C   UNL     1       0.023  13.455  20.997  0.00  0.00    +0.000 C 
ATOM      4  C   UNL     1       0.422  12.029  21.260  0.00  0.00    +0.000 C 
ATOM      5  C   UNL     1       0.999  11.392  19.994  0.00  0.00    +0.000 C 
ATOM      6  N   UNL     1       0.062  11.426  18.853  0.00  0.00    +0.000 NA
ATOM      7  C   UNL     1      -0.184  12.857  18.540  0.00  0.00    +0.000 C 
ATOM      8  C   UNL     1      -0.790  13.648  19.717  0.00  0.00    +0.000 C 
ENDROOT
BRANCH   1  10
ATOM      9  O   UNL     1       0.600  16.698  20.660  0.00  0.00    +0.000 OA
ATOM     10  C   UNL     1       1.296  15.700  20.683  0.00  0.00    +0.000 C 
ATOM     11  N   UNL     1       2.433  15.552  19.894  0.00  0.00    +0.000 N 
ATOM     12  C   UNL     1       3.318  14.378  19.853  0.00  0.00    +0.000 C 
ATOM     13  C   UNL     1       3.836  14.088  18.431  0.00  0.00    +0.000 C 
ATOM     14  N   UNL     1       4.435  15.255  17.747  0.00  0.00    +0.000 NA
ATOM     15  C   UNL     1       3.439  16.356  17.766  0.00  0.00    +0.000 C 
ATOM     16  C   UNL     1       2.921  16.729  19.167  0.00  0.00    +0.000 C 
BRANCH  14  17
ATOM     17  C   UNL     1       5.698  15.652  18.386  0.00  0.00    +0.000 C 
BRANCH  17  18
ATOM     18  C   UNL     1       6.664  14.504  18.469  0.00  0.00    +0.000 C 
ATOM     19  C   UNL     1       7.954  14.657  18.810  0.00  0.00    +0.000 C 
BRANCH  19  20
ATOM     20  C   UNL     1       8.876  13.528  18.821  0.00  0.00    +0.000 A 
ATOM     21  C   UNL     1       9.097  12.841  20.019  0.00  0.00    +0.000 A 
ATOM     22  C   UNL     1      10.004  11.783  20.064  0.00  0.00    +0.000 A 
ATOM     23  C   UNL     1      10.688  11.403  18.911  0.00  0.00    +0.000 A 
ATOM     24  C   UNL     1      10.463  12.080  17.711  0.00  0.00    +0.000 A 
ATOM     25  C   UNL     1       9.559  13.143  17.666  0.00  0.00    +0.000 A 
ENDBRANCH  19  20
ENDBRANCH  17  18
ENDBRANCH  14  17
ENDBRANCH   1  10
BRANCH   6  26
ATOM     26  C   UNL     1      -1.231  10.735  19.107  0.00  0.00    +0.000 C 
BRANCH  26  27
ATOM     27  C   UNL     1      -2.217  10.666  17.962  0.00  0.00    +0.000 A 
ATOM     28  C   UNL     1      -1.889  10.005  16.767  0.00  0.00    +0.000 A 
ATOM     29  C   UNL     1      -2.777   9.985  15.675  0.00  0.00    +0.000 A 
ATOM     30  C   UNL     1      -4.029  10.599  15.760  0.00  0.00    +0.000 A 
ATOM     31  C   UNL     1      -4.335  11.251  16.932  0.00  0.00    +0.000 A 
ATOM     32  C   UNL     1      -3.448  11.311  17.989  0.00  0.00    +0.000 A 
ATOM     33  O   UNL     1      -3.939  12.090  19.002  0.00  0.00    +0.000 OA
ATOM     34  C   UNL     1      -5.288  12.322  18.542  0.00  0.00    +0.000 C 
ATOM     35  O   UNL     1      -5.502  11.911  17.181  0.00  0.00    +0.000 OA
ENDBRANCH  26  27
ENDBRANCH   6  26
TORSDOF 6
ENDMDL
MODEL 3
REMARK VINA RESULT:      -8.8      1.579      2.187
REMARK  Name = 
REMARK  6 active torsions:
REMARK  status: ('A' for Active; 'I' for Inactive)
REMARK    1  A    between atoms: C_2  and  C_3
REMARK    2  A    between atoms: N_8  and  C_9
REMARK    3  A    between atoms: C_9  and  C_10
REMARK    4  A    between atoms: N_24  and  C_25
REMARK    5  A    between atoms: C_25  and  C_26
REMARK    6  A    between atoms: C_27  and  C_28
REMARK                            x       y       z     vdW  Elec       q    Type
REMARK                         _______ _______ _______ _____ _____    ______ ____
ROOT
ATOM      1  C   UNL     1       1.863   9.279  18.920  0.00  0.00    +0.000 C 
ATOM      2  C   UNL     1       0.817   9.663  17.904  0.00  0.00    +0.000 C 
ATOM      3  C   UNL     1       0.760  10.274  19.283  0.00  0.00    +0.000 C 
ATOM      4  C   UNL     1       1.157  11.718  19.419  0.00  0.00    +0.000 C 
ATOM      5  C   UNL     1       1.209  12.122  20.894  0.00  0.00    +0.000 C 
ATOM      6  N   UNL     1      -0.072  11.907  21.596  0.00  0.00    +0.000 NA
ATOM      7  C   UNL     1      -0.344  10.447  21.559  0.00  0.00    +0.000 C 
ATOM      8  C   UNL     1      -0.448   9.877  20.131  0.00  0.00    +0.000 C 
ENDROOT
BRANCH   1  10
ATOM      9  O   UNL     1       1.329   7.840  20.703  0.00  0.00    +0.000 OA
ATOM     10  C   UNL     1       1.943   7.991  19.662  0.00  0.00    +0.000 C 
ATOM     11  N   UNL     1       2.767   7.008  19.121  0.00  0.00    +0.000 N 
ATOM     12  C   UNL     1       3.551   7.114  17.881  0.00  0.00    +0.000 C 
ATOM     13  C   UNL     1       4.918   6.414  17.994  0.00  0.00    +0.000 C 
ATOM     14  N   UNL     1       4.855   5.021  18.490  0.00  0.00    +0.000 NA
ATOM     15  C   UNL     1       4.123   5.029  19.781  0.00  0.00    +0.000 C 
ATOM     16  C   UNL     1       2.723   5.669  19.722  0.00  0.00    +0.000 C 
BRANCH  14  17
ATOM     17  C   UNL     1       4.215   4.138  17.505  0.00  0.00    +0.000 C 
BRANCH  17  18
ATOM     18  C   UNL     1       4.741   4.377  16.118  0.00  0.00    +0.000 C 
ATOM     19  C   UNL     1       5.778   3.697  15.603  0.00  0.00    +0.000 C 
BRANCH  19  20
ATOM     20  C   UNL     1       6.299   3.998  14.275  0.00  0.00    +0.000 A 
ATOM     21  C   UNL     1       5.891   3.217  13.189  0.00  0.00    +0.000 A 
ATOM     22  C   UNL     1       6.405   3.460  11.916  0.00  0.00    +0.000 A 
ATOM     23  C   UNL     1       7.325   4.490  11.723  0.00  0.00    +0.000 A 
ATOM     24  C   UNL     1       7.728   5.278  12.801  0.00  0.00    +0.000 A 
ATOM     25  C   UNL     1       7.218   5.032  14.078  0.00  0.00    +0.000 A 
ENDBRANCH  19  20
ENDBRANCH  17  18
ENDBRANCH  14  17
ENDBRANCH   1  10
BRANCH   6  26
ATOM     26  C   UNL     1      -1.220  12.649  21.009  0.00  0.00    +0.000 C 
BRANCH  26  27
ATOM     27  C   UNL     1      -2.480  12.749  21.840  0.00  0.00    +0.000 A 
ATOM     28  C   UNL     1      -2.426  12.683  23.241  0.00  0.00    +0.000 A 
ATOM     29  C   UNL     1      -3.599  12.717  24.020  0.00  0.00    +0.000 A 
ATOM     30  C   UNL     1      -4.853  12.848  23.419  0.00  0.00    +0.000 A 
ATOM     31  C   UNL     1      -4.893  12.902  22.046  0.00  0.00    +0.000 A 
ATOM     32  C   UNL     1      -3.748  12.824  21.276  0.00  0.00    +0.000 A 
ATOM     33  O   UNL     1      -4.051  12.806  19.942  0.00  0.00    +0.000 OA
ATOM     34  C   UNL     1      -5.466  13.088  19.976  0.00  0.00    +0.000 C 
ATOM     35  O   UNL     1      -6.027  13.017  21.298  0.00  0.00    +0.000 OA
ENDBRANCH  26  27
ENDBRANCH   6  26
TORSDOF 6
ENDMDL
MODEL 4
REMARK VINA RESULT:      -8.5      2.408      3.071
REMARK  Name = 
REMARK  6 active torsions:
REMARK  status: ('A' for Active; 'I' for Inactive)
REMARK    1  A    between atoms: C_2  and  C_3
REMARK    2  A    between atoms: N_8  and  C_9
REMARK    3  A    between atoms: C_9  and  C_10
REMARK    4  A    between atoms: N_24  and  C_25
REMARK    5  A    between atoms: C_25  and  C_26
REMARK    6  A    between atoms: C_27  and  C_28
REMARK                            x       y       z     vdW  Elec       q    Type
REMARK                         _______ _______ _______ _____ _____    ______ ____
ROOT
ATOM      1  C   UNL     1       2.137   9.220  18.965  0.00  0.00    +0.000 C 
ATOM      2  C   UNL     1       1.513   9.643  17.659  0.00  0.00    +0.000 C 
ATOM      3  C   UNL     1       1.001  10.244  18.944  0.00  0.00    +0.000 C 
ATOM      4  C   UNL     1       1.363  11.675  19.234  0.00  0.00    +0.000 C 
ATOM      5  C   UNL     1       0.915  12.065  20.644  0.00  0.00    +0.000 C 
ATOM      6  N   UNL     1      -0.535  11.883  20.860  0.00  0.00    +0.000 NA
ATOM      7  C   UNL     1      -0.813  10.432  20.706  0.00  0.00    +0.000 C 
ATOM      8  C   UNL     1      -0.434   9.876  19.320  0.00  0.00    +0.000 C 
ENDROOT
BRANCH   1  10
ATOM      9  O   UNL     1       1.151   7.851  20.605  0.00  0.00    +0.000 OA
ATOM     10  C   UNL     1       1.925   7.925  19.668  0.00  0.00    +0.000 C 
ATOM     11  N   UNL     1       2.671   6.839  19.215  0.00  0.00    +0.000 N 
ATOM     12  C   UNL     1       3.632   6.846  18.103  0.00  0.00    +0.000 C 
ATOM     13  C   UNL     1       4.856   5.954  18.385  0.00  0.00    +0.000 C 
ATOM     14  N   UNL     1       4.525   4.578  18.819  0.00  0.00    +0.000 NA
ATOM     15  C   UNL     1       3.622   4.676  19.993  0.00  0.00    +0.000 C 
ATOM     16  C   UNL     1       2.351   5.514  19.758  0.00  0.00    +0.000 C 
BRANCH  14  17
ATOM     17  C   UNL     1       3.914   3.811  17.724  0.00  0.00    +0.000 C 
BRANCH  17  18
ATOM     18  C   UNL     1       4.833   3.703  16.541  0.00  0.00    +0.000 C 
ATOM     19  C   UNL     1       4.751   4.513  15.474  0.00  0.00    +0.000 C 
BRANCH  19  20
ATOM     20  C   UNL     1       5.622   4.339  14.317  0.00  0.00    +0.000 A 
ATOM     21  C   UNL     1       6.850   5.007  14.282  0.00  0.00    +0.000 A 
ATOM     22  C   UNL     1       7.683   4.887  13.171  0.00  0.00    +0.000 A 
ATOM     23  C   UNL     1       7.293   4.094  12.092  0.00  0.00    +0.000 A 
ATOM     24  C   UNL     1       6.074   3.419  12.127  0.00  0.00    +0.000 A 
ATOM     25  C   UNL     1       5.236   3.541  13.237  0.00  0.00    +0.000 A 
ENDBRANCH  19  20
ENDBRANCH  17  18
ENDBRANCH  14  17
ENDBRANCH   1  10
BRANCH   6  26
ATOM     26  C   UNL     1      -1.392  12.663  19.927  0.00  0.00    +0.000 C 
BRANCH  26  27
ATOM     27  C   UNL     1      -2.889  12.566  20.116  0.00  0.00    +0.000 A 
ATOM     28  C   UNL     1      -3.481  12.861  21.355  0.00  0.00    +0.000 A 
ATOM     29  C   UNL     1      -4.866  12.719  21.556  0.00  0.00    +0.000 A 
ATOM     30  C   UNL     1      -5.702  12.306  20.515  0.00  0.00    +0.000 A 
ATOM     31  C   UNL     1      -5.110  12.011  19.310  0.00  0.00    +0.000 A 
ATOM     32  C   UNL     1      -3.744  12.107  19.121  0.00  0.00    +0.000 A 
ATOM     33  O   UNL     1      -3.387  11.673  17.873  0.00  0.00    +0.000 OA
ATOM     34  C   UNL     1      -4.683  11.504  17.258  0.00  0.00    +0.000 C 
ATOM     35  O   UNL     1      -5.770  11.585  18.195  0.00  0.00    +0.000 OA
ENDBRANCH  26  27
ENDBRANCH   6  26
TORSDOF 6
ENDMDL
MODEL 5
REMARK VINA RESULT:      -8.5      6.034      8.401
REMARK  Name = 
REMARK  6 active torsions:
REMARK  status: ('A' for Active; 'I' for Inactive)
REMARK    1  A    between atoms: C_2  and  C_3
REMARK    2  A    between atoms: N_8  and  C_9
REMARK    3  A    between atoms: C_9  and  C_10
REMARK    4  A    between atoms: N_24  and  C_25
REMARK    5  A    between atoms: C_25  and  C_26
REMARK    6  A    between atoms: C_27  and  C_28
REMARK                            x       y       z     vdW  Elec       q    Type
REMARK                         _______ _______ _______ _____ _____    ______ ____
ROOT
ATOM      1  C   UNL     1       1.192  14.404  21.512  0.00  0.00    +0.000 C 
ATOM      2  C   UNL     1      -0.058  14.180  22.326  0.00  0.00    +0.000 C 
ATOM      3  C   UNL     1       0.127  13.411  21.041  0.00  0.00    +0.000 C 
ATOM      4  C   UNL     1       0.458  11.948  21.148  0.00  0.00    +0.000 C 
ATOM      5  C   UNL     1       0.782  11.370  19.769  0.00  0.00    +0.000 C 
ATOM      6  N   UNL     1      -0.318  11.544  18.798  0.00  0.00    +0.000 NA
ATOM      7  C   UNL     1      -0.506  13.007  18.618  0.00  0.00    +0.000 C 
ATOM      8  C   UNL     1      -0.860  13.746  19.923  0.00  0.00    +0.000 C 
ENDROOT
BRANCH   1  10
ATOM      9  O   UNL     1       0.776  16.573  20.701  0.00  0.00    +0.000 OA
ATOM     10  C   UNL     1       1.494  15.590  20.665  0.00  0.00    +0.000 C 
ATOM     11  N   UNL     1       2.604  15.494  19.829  0.00  0.00    +0.000 N 
ATOM     12  C   UNL     1       3.512  14.344  19.716  0.00  0.00    +0.000 C 
ATOM     13  C   UNL     1       3.981  14.112  18.267  0.00  0.00    +0.000 C 
ATOM     14  N   UNL     1       4.528  15.314  17.600  0.00  0.00    +0.000 NA
ATOM     15  C   UNL     1       3.510  16.390  17.693  0.00  0.00    +0.000 C 
ATOM     16  C   UNL     1       3.037  16.706  19.124  0.00  0.00    +0.000 C 
BRANCH  14  17
ATOM     17  C   UNL     1       5.805  15.719  18.205  0.00  0.00    +0.000 C 
BRANCH  17  18
ATOM     18  C   UNL     1       6.766  14.568  18.299  0.00  0.00    +0.000 C 
ATOM     19  C   UNL     1       7.925  14.636  18.974  0.00  0.00    +0.000 C 
BRANCH  19  20
ATOM     20  C   UNL     1       8.861  13.518  18.992  0.00  0.00    +0.000 A 
ATOM     21  C   UNL     1       9.390  13.054  17.784  0.00  0.00    +0.000 A 
ATOM     22  C   UNL     1      10.257  11.962  17.771  0.00  0.00    +0.000 A 
ATOM     23  C   UNL     1      10.601  11.333  18.967  0.00  0.00    +0.000 A 
ATOM     24  C   UNL     1      10.083  11.799  20.175  0.00  0.00    +0.000 A 
ATOM     25  C   UNL     1       9.211  12.890  20.189  0.00  0.00    +0.000 A 
ENDBRANCH  19  20
ENDBRANCH  17  18
ENDBRANCH  14  17
ENDBRANCH   1  10
BRANCH   6  26
ATOM     26  C   UNL     1      -1.602  10.918  19.214  0.00  0.00    +0.000 C 
BRANCH  26  27
ATOM     27  C   UNL     1      -2.832  11.251  18.399  0.00  0.00    +0.000 A 
ATOM     28  C   UNL     1      -3.910  11.944  18.972  0.00  0.00    +0.000 A 
ATOM     29  C   UNL     1      -5.082  12.208  18.238  0.00  0.00    +0.000 A 
ATOM     30  C   UNL     1      -5.194  11.813  16.903  0.00  0.00    +0.000 A 
ATOM     31  C   UNL     1      -4.135  11.127  16.356  0.00  0.00    +0.000 A 
ATOM     32  C   UNL     1      -3.001  10.828  17.087  0.00  0.00    +0.000 A 
ATOM     33  O   UNL     1      -2.133  10.062  16.357  0.00  0.00    +0.000 OA
ATOM     34  C   UNL     1      -2.754  10.105  15.054  0.00  0.00    +0.000 C 
ATOM     35  O   UNL     1      -4.081  10.659  15.077  0.00  0.00    +0.000 OA
ENDBRANCH  26  27
ENDBRANCH   6  26
TORSDOF 6
ENDMDL
MODEL 6
REMARK VINA RESULT:      -8.4      3.118      4.007
REMARK  Name = 
REMARK  6 active torsions:
REMARK  status: ('A' for Active; 'I' for Inactive)
REMARK    1  A    between atoms: C_2  and  C_3
REMARK    2  A    between atoms: N_8  and  C_9
REMARK    3  A    between atoms: C_9  and  C_10
REMARK    4  A    between atoms: N_24  and  C_25
REMARK    5  A    between atoms: C_25  and  C_26
REMARK    6  A    between atoms: C_27  and  C_28
REMARK                            x       y       z     vdW  Elec       q    Type
REMARK                         _______ _______ _______ _____ _____    ______ ____
ROOT
ATOM      1  C   UNL     1       2.360   9.096  18.985  0.00  0.00    +0.000 C 
ATOM      2  C   UNL     1       2.108   9.527  17.562  0.00  0.00    +0.000 C 
ATOM      3  C   UNL     1       1.241  10.088  18.663  0.00  0.00    +0.000 C 
ATOM      4  C   UNL     1       1.462  11.523  19.057  0.00  0.00    +0.000 C 
ATOM      5  C   UNL     1       0.629  11.872  20.293  0.00  0.00    +0.000 C 
ATOM      6  N   UNL     1      -0.817  11.644  20.097  0.00  0.00    +0.000 NA
ATOM      7  C   UNL     1      -0.994  10.188  19.856  0.00  0.00    +0.000 C 
ATOM      8  C   UNL     1      -0.229   9.672  18.622  0.00  0.00    +0.000 C 
ENDROOT
BRANCH   1  10
ATOM      9  O   UNL     1       1.112   7.701  20.410  0.00  0.00    +0.000 OA
ATOM     10  C   UNL     1       2.005   7.782  19.586  0.00  0.00    +0.000 C 
ATOM     11  N   UNL     1       2.760   6.684  19.180  0.00  0.00    +0.000 N 
ATOM     12  C   UNL     1       3.859   6.697  18.203  0.00  0.00    +0.000 C 
ATOM     13  C   UNL     1       4.998   5.737  18.595  0.00  0.00    +0.000 C 
ATOM     14  N   UNL     1       4.557   4.360  18.911  0.00  0.00    +0.000 NA
ATOM     15  C   UNL     1       3.512   4.446  19.962  0.00  0.00    +0.000 C 
ATOM     16  C   UNL     1       2.318   5.352  19.607  0.00  0.00    +0.000 C 
BRANCH  14  17
ATOM     17  C   UNL     1       4.066   3.673  17.709  0.00  0.00    +0.000 C 
BRANCH  17  18
ATOM     18  C   UNL     1       5.039   3.781  16.570  0.00  0.00    +0.000 C 
ATOM     19  C   UNL     1       4.680   4.166  15.334  0.00  0.00    +0.000 C 
BRANCH  19  20
ATOM     20  C   UNL     1       5.642   4.201  14.239  0.00  0.00    +0.000 A 
ATOM     21  C   UNL     1       6.810   4.957  14.382  0.00  0.00    +0.000 A 
ATOM     22  C   UNL     1       7.727   5.037  13.335  0.00  0.00    +0.000 A 
ATOM     23  C   UNL     1       7.482   4.357  12.143  0.00  0.00    +0.000 A 
ATOM     24  C   UNL     1       6.323   3.594  11.999  0.00  0.00    +0.000 A 
ATOM     25  C   UNL     1       5.402   3.517  13.045  0.00  0.00    +0.000 A 
ENDBRANCH  19  20
ENDBRANCH  17  18
ENDBRANCH  14  17
ENDBRANCH   1  10
BRANCH   6  26
ATOM     26  C   UNL     1      -1.408  12.418  18.973  0.00  0.00    +0.000 C 
BRANCH  26  27
ATOM     27  C   UNL     1      -2.812  12.054  18.543  0.00  0.00    +0.000 A 
ATOM     28  C   UNL     1      -3.900  12.229  19.413  0.00  0.00    +0.000 A 
ATOM     29  C   UNL     1      -5.202  11.840  19.043  0.00  0.00    +0.000 A 
ATOM     30  C   UNL     1      -5.454  11.293  17.783  0.00  0.00    +0.000 A 
ATOM     31  C   UNL     1      -4.379  11.118  16.944  0.00  0.00    +0.000 A 
ATOM     32  C   UNL     1      -3.093  11.458  17.320  0.00  0.00    +0.000 A 
ATOM     33  O   UNL     1      -2.188  11.105  16.356  0.00  0.00    +0.000 OA
ATOM     34  C   UNL     1      -3.068  10.712  15.281  0.00  0.00    +0.000 C 
ATOM     35  O   UNL     1      -4.442  10.590  15.688  0.00  0.00    +0.000 OA
ENDBRANCH  26  27
ENDBRANCH   6  26
TORSDOF 6
ENDMDL
MODEL 7
REMARK VINA RESULT:      -8.3      1.126      1.489
REMARK  Name = 
REMARK  6 active torsions:
REMARK  status: ('A' for Active; 'I' for Inactive)
REMARK    1  A    between atoms: C_2  and  C_3
REMARK    2  A    between atoms: N_8  and  C_9
REMARK    3  A    between atoms: C_9  and  C_10
REMARK    4  A    between atoms: N_24  and  C_25
REMARK    5  A    between atoms: C_25  and  C_26
REMARK    6  A    between atoms: C_27  and  C_28
REMARK                            x       y       z     vdW  Elec       q    Type
REMARK                         _______ _______ _______ _____ _____    ______ ____
ROOT
ATOM      1  C   UNL     1       1.680   9.414  18.848  0.00  0.00    +0.000 C 
ATOM      2  C   UNL     1       0.564   9.636  17.859  0.00  0.00    +0.000 C 
ATOM      3  C   UNL     1       0.495  10.313  19.206  0.00  0.00    +0.000 C 
ATOM      4  C   UNL     1       0.748  11.795  19.253  0.00  0.00    +0.000 C 
ATOM      5  C   UNL     1       0.812  12.281  20.703  0.00  0.00    +0.000 C 
ATOM      6  N   UNL     1      -0.414  11.978  21.467  0.00  0.00    +0.000 NA
ATOM      7  C   UNL     1      -0.537  10.498  21.516  0.00  0.00    +0.000 C 
ATOM      8  C   UNL     1      -0.634   9.844  20.123  0.00  0.00    +0.000 C 
ENDROOT
BRANCH   1  10
ATOM      9  O   UNL     1       1.477   8.090  20.782  0.00  0.00    +0.000 OA
ATOM     10  C   UNL     1       1.917   8.183  19.651  0.00  0.00    +0.000 C 
ATOM     11  N   UNL     1       2.682   7.185  19.052  0.00  0.00    +0.000 N 
ATOM     12  C   UNL     1       3.260   7.223  17.701  0.00  0.00    +0.000 C 
ATOM     13  C   UNL     1       4.652   6.565  17.644  0.00  0.00    +0.000 C 
ATOM     14  N   UNL     1       4.714   5.209  18.232  0.00  0.00    +0.000 NA
ATOM     15  C   UNL     1       4.189   5.289  19.619  0.00  0.00    +0.000 C 
ATOM     16  C   UNL     1       2.777   5.890  19.738  0.00  0.00    +0.000 C 
BRANCH  14  17
ATOM     17  C   UNL     1       3.959   4.245  17.419  0.00  0.00    +0.000 C 
BRANCH  17  18
ATOM     18  C   UNL     1       4.527   4.122  16.033  0.00  0.00    +0.000 C 
ATOM     19  C   UNL     1       5.811   4.387  15.743  0.00  0.00    +0.000 C 
BRANCH  19  20
ATOM     20  C   UNL     1       6.311   4.314  14.375  0.00  0.00    +0.000 A 
ATOM     21  C   UNL     1       7.371   5.143  13.992  0.00  0.00    +0.000 A 
ATOM     22  C   UNL     1       7.842   5.119  12.680  0.00  0.00    +0.000 A 
ATOM     23  C   UNL     1       7.258   4.264  11.747  0.00  0.00    +0.000 A 
ATOM     24  C   UNL     1       6.207   3.429  12.127  0.00  0.00    +0.000 A 
ATOM     25  C   UNL     1       5.731   3.455  13.439  0.00  0.00    +0.000 A 
ENDBRANCH  19  20
ENDBRANCH  17  18
ENDBRANCH  14  17
ENDBRANCH   1  10
BRANCH   6  26
ATOM     26  C   UNL     1      -1.652  12.569  20.892  0.00  0.00    +0.000 C 
BRANCH  26  27
ATOM     27  C   UNL     1      -2.372  13.611  21.717  0.00  0.00    +0.000 A 
ATOM     28  C   UNL     1      -2.272  14.976  21.402  0.00  0.00    +0.000 A 
ATOM     29  C   UNL     1      -2.892  15.957  22.199  0.00  0.00    +0.000 A 
ATOM     30  C   UNL     1      -3.653  15.598  23.314  0.00  0.00    +0.000 A 
ATOM     31  C   UNL     1      -3.736  14.259  23.617  0.00  0.00    +0.000 A 
ATOM     32  C   UNL     1      -3.092  13.297  22.863  0.00  0.00    +0.000 A 
ATOM     33  O   UNL     1      -3.247  12.054  23.415  0.00  0.00    +0.000 OA
ATOM     34  C   UNL     1      -4.214  12.330  24.452  0.00  0.00    +0.000 C 
ATOM     35  O   UNL     1      -4.423  13.735  24.672  0.00  0.00    +0.000 OA
ENDBRANCH  26  27
ENDBRANCH   6  26
TORSDOF 6
ENDMDL
MODEL 8
REMARK VINA RESULT:      -8.3      1.410      1.900
REMARK  Name = 
REMARK  6 active torsions:
REMARK  status: ('A' for Active; 'I' for Inactive)
REMARK    1  A    between atoms: C_2  and  C_3
REMARK    2  A    between atoms: N_8  and  C_9
REMARK    3  A    between atoms: C_9  and  C_10
REMARK    4  A    between atoms: N_24  and  C_25
REMARK    5  A    between atoms: C_25  and  C_26
REMARK    6  A    between atoms: C_27  and  C_28
REMARK                            x       y       z     vdW  Elec       q    Type
REMARK                         _______ _______ _______ _____ _____    ______ ____
ROOT
ATOM      1  C   UNL     1       1.221   9.835  18.753  0.00  0.00    +0.000 C 
ATOM      2  C   UNL     1      -0.038  10.258  18.036  0.00  0.00    +0.000 C 
ATOM      3  C   UNL     1       0.328  10.933  19.336  0.00  0.00    +0.000 C 
ATOM      4  C   UNL     1       0.843  12.344  19.264  0.00  0.00    +0.000 C 
ATOM      5  C   UNL     1       1.326  12.808  20.640  0.00  0.00    +0.000 C 
ATOM      6  N   UNL     1       0.277  12.730  21.676  0.00  0.00    +0.000 NA
ATOM      7  C   UNL     1      -0.091  11.297  21.810  0.00  0.00    +0.000 C 
ATOM      8  C   UNL     1      -0.622  10.674  20.504  0.00  0.00    +0.000 C 
ENDROOT
BRANCH   1  10
ATOM      9  O   UNL     1       0.823   8.404  20.577  0.00  0.00    +0.000 OA
ATOM     10  C   UNL     1       1.416   8.580  19.528  0.00  0.00    +0.000 C 
ATOM     11  N   UNL     1       2.320   7.658  19.007  0.00  0.00    +0.000 N 
ATOM     12  C   UNL     1       3.084   7.798  17.759  0.00  0.00    +0.000 C 
ATOM     13  C   UNL     1       4.508   7.223  17.879  0.00  0.00    +0.000 C 
ATOM     14  N   UNL     1       4.570   5.844  18.412  0.00  0.00    +0.000 NA
ATOM     15  C   UNL     1       3.846   5.823  19.708  0.00  0.00    +0.000 C 
ATOM     16  C   UNL     1       2.396   6.337  19.643  0.00  0.00    +0.000 C 
BRANCH  14  17
ATOM     17  C   UNL     1       4.003   4.882  17.456  0.00  0.00    +0.000 C 
BRANCH  17  18
ATOM     18  C   UNL     1       4.682   4.961  16.119  0.00  0.00    +0.000 C 
ATOM     19  C   UNL     1       5.343   3.928  15.572  0.00  0.00    +0.000 C 
BRANCH  19  20
ATOM     20  C   UNL     1       6.042   4.061  14.299  0.00  0.00    +0.000 A 
ATOM     21  C   UNL     1       7.118   4.949  14.202  0.00  0.00    +0.000 A 
ATOM     22  C   UNL     1       7.777   5.122  12.985  0.00  0.00    +0.000 A 
ATOM     23  C   UNL     1       7.366   4.404  11.863  0.00  0.00    +0.000 A 
ATOM     24  C   UNL     1       6.300   3.510  11.958  0.00  0.00    +0.000 A 
ATOM     25  C   UNL     1       5.635   3.339  13.174  0.00  0.00    +0.000 A 
ENDBRANCH  19  20
ENDBRANCH  17  18
ENDBRANCH  14  17
ENDBRANCH   1  10
BRANCH   6  26
ATOM     26  C   UNL     1      -0.936  13.537  21.375  0.00  0.00    +0.000 C 
BRANCH  26  27
ATOM     27  C   UNL     1      -2.107  13.409  22.324  0.00  0.00    +0.000 A 
ATOM     28  C   UNL     1      -1.951  13.649  23.699  0.00  0.00    +0.000 A 
ATOM     29  C   UNL     1      -3.021  13.477  24.598  0.00  0.00    +0.000 A 
ATOM     30  C   UNL     1      -4.283  13.089  24.141  0.00  0.00    +0.000 A 
ATOM     31  C   UNL     1      -4.421  12.847  22.795  0.00  0.00    +0.000 A 
ATOM     32  C   UNL     1      -3.362  12.973  21.916  0.00  0.00    +0.000 A 
ATOM     33  O   UNL     1      -3.722  12.590  20.652  0.00  0.00    +0.000 OA
ATOM     34  C   UNL     1      -5.147  12.422  20.810  0.00  0.00    +0.000 C 
ATOM     35  O   UNL     1      -5.573  12.452  22.183  0.00  0.00    +0.000 OA
ENDBRANCH  26  27
ENDBRANCH   6  26
TORSDOF 6
ENDMDL
MODEL 9
REMARK VINA RESULT:      -8.3      3.091      5.294
REMARK  Name = 
REMARK  6 active torsions:
REMARK  status: ('A' for Active; 'I' for Inactive)
REMARK    1  A    between atoms: C_2  and  C_3
REMARK    2  A    between atoms: N_8  and  C_9
REMARK    3  A    between atoms: C_9  and  C_10
REMARK    4  A    between atoms: N_24  and  C_25
REMARK    5  A    between atoms: C_25  and  C_26
REMARK    6  A    between atoms: C_27  and  C_28
REMARK                            x       y       z     vdW  Elec       q    Type
REMARK                         _______ _______ _______ _____ _____    ______ ____
ROOT
ATOM      1  C   UNL     1       1.041  13.873  21.376  0.00  0.00    +0.000 C 
ATOM      2  C   UNL     1       0.526  15.273  21.602  0.00  0.00    +0.000 C 
ATOM      3  C   UNL     1      -0.451  14.123  21.602  0.00  0.00    +0.000 C 
ATOM      4  C   UNL     1      -1.024  13.698  22.926  0.00  0.00    +0.000 C 
ATOM      5  C   UNL     1      -1.851  12.421  22.766  0.00  0.00    +0.000 C 
ATOM      6  N   UNL     1      -2.950  12.564  21.790  0.00  0.00    +0.000 NA
ATOM      7  C   UNL     1      -2.322  12.837  20.472  0.00  0.00    +0.000 C 
ATOM      8  C   UNL     1      -1.461  14.115  20.454  0.00  0.00    +0.000 C 
ENDROOT
BRANCH   1  10
ATOM      9  O   UNL     1       1.900  14.016  19.190  0.00  0.00    +0.000 OA
ATOM     10  C   UNL     1       1.485  13.294  20.078  0.00  0.00    +0.000 C 
ATOM     11  N   UNL     1       1.369  11.913  19.939  0.00  0.00    +0.000 N 
ATOM     12  C   UNL     1       0.869  10.974  20.953  0.00  0.00    +0.000 C 
ATOM     13  C   UNL     1       0.036   9.836  20.334  0.00  0.00    +0.000 C 
ATOM     14  N   UNL     1       0.696   9.134  19.211  0.00  0.00    +0.000 NA
ATOM     15  C   UNL     1       1.088  10.152  18.205  0.00  0.00    +0.000 C 
ATOM     16  C   UNL     1       1.968  11.292  18.752  0.00  0.00    +0.000 C 
BRANCH  14  17
ATOM     17  C   UNL     1       1.853   8.358  19.680  0.00  0.00    +0.000 C 
BRANCH  17  18
ATOM     18  C   UNL     1       2.472   7.557  18.570  0.00  0.00    +0.000 C 
ATOM     19  C   UNL     1       3.443   6.652  18.775  0.00  0.00    +0.000 C 
BRANCH  19  20
ATOM     20  C   UNL     1       4.062   5.937  17.665  0.00  0.00    +0.000 A 
ATOM     21  C   UNL     1       4.732   6.664  16.676  0.00  0.00    +0.000 A 
ATOM     22  C   UNL     1       5.299   6.007  15.585  0.00  0.00    +0.000 A 
ATOM     23  C   UNL     1       5.203   4.620  15.481  0.00  0.00    +0.000 A 
ATOM     24  C   UNL     1       4.544   3.890  16.470  0.00  0.00    +0.000 A 
ATOM     25  C   UNL     1       3.971   4.547  17.562  0.00  0.00    +0.000 A 
ENDBRANCH  19  20
ENDBRANCH  17  18
ENDBRANCH  14  17
ENDBRANCH   1  10
BRANCH   6  26
ATOM     26  C   UNL     1      -3.921  13.642  22.120  0.00  0.00    +0.000 C 
BRANCH  26  27
ATOM     27  C   UNL     1      -5.006  13.932  21.107  0.00  0.00    +0.000 A 
ATOM     28  C   UNL     1      -5.162  15.218  20.566  0.00  0.00    +0.000 A 
ATOM     29  C   UNL     1      -6.205  15.511  19.666  0.00  0.00    +0.000 A 
ATOM     30  C   UNL     1      -7.100  14.518  19.261  0.00  0.00    +0.000 A 
ATOM     31  C   UNL     1      -6.942  13.265  19.805  0.00  0.00    +0.000 A 
ATOM     32  C   UNL     1      -5.947  12.985  20.722  0.00  0.00    +0.000 A 
ATOM     33  O   UNL     1      -6.052  11.701  21.186  0.00  0.00    +0.000 OA
ATOM     34  C   UNL     1      -7.071  11.173  20.311  0.00  0.00    +0.000 C 
ATOM     35  O   UNL     1      -7.730  12.186  19.532  0.00  0.00    +0.000 OA
ENDBRANCH  26  27
ENDBRANCH   6  26
TORSDOF 6
ENDMDL
