MODEL 1
REMARK VINA RESULT:      -7.3      0.000      0.000
REMARK  Name = 
REMARK  7 active torsions:
REMARK  status: ('A' for Active; 'I' for Inactive)
REMARK    1  A    between atoms: C_1  and  C_2
REMARK    2  A    between atoms: C_2  and  N_3
REMARK    3  A    between atoms: C_2  and  C_4
REMARK    4  A    between atoms: C_4  and  N_5
REMARK    5  A    between atoms: C_9  and  C_10
REMARK    6  A    between atoms: N_12  and  C_13
REMARK    7  A    between atoms: C_13  and  C_14
REMARK                            x       y       z     vdW  Elec       q    Type
REMARK                         _______ _______ _______ _____ _____    ______ ____
ROOT
ATOM      1  C   UNL     1       5.303   3.724  17.859  0.00  0.00    +0.000 C 
ATOM      2  O   UNL     1       4.424   3.180  17.205  0.00  0.00    +0.000 OA
ATOM      3  N   UNL     1       5.422   3.465  19.192  0.00  0.00    +0.000 N 
ATOM      4  H   UNL     1       6.179   3.918  19.728  0.00  0.00    +0.000 HD
ENDROOT
BRANCH   1   9
ATOM      5  N   UNL     1       5.480   5.764  16.502  0.00  0.00    +0.000 NA
ATOM      6  C   UNL     1       5.990   6.994  17.132  0.00  0.00    +0.000 C 
ATOM      7  C   UNL     1       7.426   6.685  17.523  0.00  0.00    +0.000 C 
ATOM      8  C   UNL     1       7.228   5.324  18.140  0.00  0.00    +0.000 C 
ATOM      9  C   UNL     1       6.253   4.667  17.150  0.00  0.00    +0.000 C 
BRANCH   5  10
ATOM     10  C   UNL     1       5.682   5.816  15.031  0.00  0.00    +0.000 C 
BRANCH  10  12
ATOM     11  C   UNL     1       6.093   3.828  13.503  0.00  0.00    +0.000 C 
ATOM     12  C   UNL     1       6.716   4.783  14.523  0.00  0.00    +0.000 C 
BRANCH  12  13
ATOM     13  N   UNL     1       7.860   5.478  13.933  0.00  0.00    +0.000 NA
ATOM     14  H   UNL     1       7.806   6.502  14.142  0.00  0.00    +0.000 HD
ATOM     15  H   UNL     1       7.853   5.349  12.896  0.00  0.00    +0.000 HD
ENDBRANCH  12  13
ENDBRANCH  10  12
ENDBRANCH   5  10
ENDBRANCH   1   9
BRANCH   3  16
ATOM     16  C   UNL     1       4.521   2.572  19.906  0.00  0.00    +0.000 C 
BRANCH  16  17
ATOM     17  C   UNL     1       3.166   3.212  20.079  0.00  0.00    +0.000 A 
ATOM     18  C   UNL     1       2.001   2.437  19.986  0.00  0.00    +0.000 A 
ATOM     19  C   UNL     1       0.742   3.025  20.153  0.00  0.00    +0.000 A 
ATOM     20  C   UNL     1       0.639   4.396  20.399  0.00  0.00    +0.000 A 
ATOM     21  C   UNL     1       1.794   5.180  20.476  0.00  0.00    +0.000 A 
ATOM     22 CL   UNL     1       1.663   6.905  20.769  0.00  0.00    +0.000 Cl
ATOM     23  C   UNL     1       3.054   4.592  20.320  0.00  0.00    +0.000 A 
ENDBRANCH  16  17
ENDBRANCH   3  16
TORSDOF 6
ENDMDL
MODEL 2
REMARK VINA RESULT:      -6.9      2.464      3.231
REMARK  Name = 
REMARK  7 active torsions:
REMARK  status: ('A' for Active; 'I' for Inactive)
REMARK    1  A    between atoms: C_1  and  C_2
REMARK    2  A    between atoms: C_2  and  N_3
REMARK    3  A    between atoms: C_2  and  C_4
REMARK    4  A    between atoms: C_4  and  N_5
REMARK    5  A    between atoms: C_9  and  C_10
REMARK    6  A    between atoms: N_12  and  C_13
REMARK    7  A    between atoms: C_13  and  C_14
REMARK                            x       y       z     vdW  Elec       q    Type
REMARK                         _______ _______ _______ _____ _____    ______ ____
ROOT
ATOM      1  C   UNL     1       4.723   4.804  18.794  0.00  0.00    +0.000 C 
ATOM      2  O   UNL     1       4.039   3.955  18.241  0.00  0.00    +0.000 OA
ATOM      3  N   UNL     1       4.139   5.731  19.605  0.00  0.00    +0.000 N 
ATOM      4  H   UNL     1       4.731   6.431  20.079  0.00  0.00    +0.000 HD
ENDROOT
BRANCH   1   9
ATOM      5  N   UNL     1       6.537   5.387  17.243  0.00  0.00    +0.000 NA
ATOM      6  C   UNL     1       7.400   6.539  17.561  0.00  0.00    +0.000 C 
ATOM      7  C   UNL     1       8.119   6.165  18.847  0.00  0.00    +0.000 C 
ATOM      8  C   UNL     1       6.956   5.616  19.632  0.00  0.00    +0.000 C 
ATOM      9  C   UNL     1       6.221   4.784  18.569  0.00  0.00    +0.000 C 
BRANCH   5  10
ATOM     10  C   UNL     1       7.246   4.445  16.339  0.00  0.00    +0.000 C 
BRANCH  10  12
ATOM     11  C   UNL     1       5.308   5.017  14.798  0.00  0.00    +0.000 C 
ATOM     12  C   UNL     1       6.755   4.526  14.873  0.00  0.00    +0.000 C 
BRANCH  12  13
ATOM     13  N   UNL     1       7.632   5.414  14.108  0.00  0.00    +0.000 NA
ATOM     14  H   UNL     1       8.601   5.390  14.502  0.00  0.00    +0.000 HD
ATOM     15  H   UNL     1       7.274   6.395  14.164  0.00  0.00    +0.000 HD
ENDBRANCH  12  13
ENDBRANCH  10  12
ENDBRANCH   5  10
ENDBRANCH   1   9
BRANCH   3  16
ATOM     16  C   UNL     1       2.703   5.785  19.836  0.00  0.00    +0.000 C 
BRANCH  16  17
ATOM     17  C   UNL     1       2.163   7.155  19.510  0.00  0.00    +0.000 A 
ATOM     18  C   UNL     1       2.309   7.683  18.219  0.00  0.00    +0.000 A 
ATOM     19  C   UNL     1       1.803   8.951  17.911  0.00  0.00    +0.000 A 
ATOM     20  C   UNL     1       1.162   9.707  18.895  0.00  0.00    +0.000 A 
ATOM     21  C   UNL     1       1.028   9.196  20.190  0.00  0.00    +0.000 A 
ATOM     22 CL   UNL     1       0.238  10.152  21.430  0.00  0.00    +0.000 Cl
ATOM     23  C   UNL     1       1.524   7.924  20.497  0.00  0.00    +0.000 A 
ENDBRANCH  16  17
ENDBRANCH   3  16
TORSDOF 6
ENDMDL
MODEL 3
REMARK VINA RESULT:      -6.9      1.470      1.582
REMARK  Name = 
REMARK  7 active torsions:
REMARK  status: ('A' for Active; 'I' for Inactive)
REMARK    1  A    between atoms: C_1  and  C_2
REMARK    2  A    between atoms: C_2  and  N_3
REMARK    3  A    between atoms: C_2  and  C_4
REMARK    4  A    between atoms: C_4  and  N_5
REMARK    5  A    between atoms: C_9  and  C_10
REMARK    6  A    between atoms: N_12  and  C_13
REMARK    7  A    between atoms: C_13  and  C_14
REMARK                            x       y       z     vdW  Elec       q    Type
REMARK                         _______ _______ _______ _____ _____    ______ ____
ROOT
ATOM      1  C   UNL     1       6.527   4.736  19.023  0.00  0.00    +0.000 C 
ATOM      2  O   UNL     1       6.785   4.943  20.200  0.00  0.00    +0.000 OA
ATOM      3  N   UNL     1       5.604   3.793  18.681  0.00  0.00    +0.000 N 
ATOM      4  H   UNL     1       5.384   3.641  17.684  0.00  0.00    +0.000 HD
ENDROOT
BRANCH   1   9
ATOM      5  N   UNL     1       6.264   6.010  16.939  0.00  0.00    +0.000 NA
ATOM      6  C   UNL     1       6.323   7.482  16.994  0.00  0.00    +0.000 C 
ATOM      7  C   UNL     1       7.732   7.815  17.455  0.00  0.00    +0.000 C 
ATOM      8  C   UNL     1       7.865   6.825  18.584  0.00  0.00    +0.000 C 
ATOM      9  C   UNL     1       7.240   5.561  17.971  0.00  0.00    +0.000 C 
BRANCH   5  10
ATOM     10  C   UNL     1       6.609   5.530  15.576  0.00  0.00    +0.000 C 
BRANCH  10  12
ATOM     11  C   UNL     1       5.983   3.858  13.768  0.00  0.00    +0.000 C 
ATOM     12  C   UNL     1       5.460   4.744  14.900  0.00  0.00    +0.000 C 
BRANCH  12  13
ATOM     13  N   UNL     1       4.762   3.933  15.898  0.00  0.00    +0.000 NA
ATOM     14  H   UNL     1       3.734   3.926  15.702  0.00  0.00    +0.000 HD
ATOM     15  H   UNL     1       4.916   4.338  16.850  0.00  0.00    +0.000 HD
ENDBRANCH  12  13
ENDBRANCH  10  12
ENDBRANCH   5  10
ENDBRANCH   1   9
BRANCH   3  16
ATOM     16  C   UNL     1       4.908   2.977  19.665  0.00  0.00    +0.000 C 
BRANCH  16  17
ATOM     17  C   UNL     1       3.492   3.461  19.848  0.00  0.00    +0.000 A 
ATOM     18  C   UNL     1       2.417   2.571  19.708  0.00  0.00    +0.000 A 
ATOM     19  C   UNL     1       1.101   3.014  19.885  0.00  0.00    +0.000 A 
ATOM     20  C   UNL     1       0.850   4.354  20.188  0.00  0.00    +0.000 A 
ATOM     21  C   UNL     1       1.913   5.253  20.313  0.00  0.00    +0.000 A 
ATOM     22 CL   UNL     1       1.597   6.939  20.677  0.00  0.00    +0.000 Cl
ATOM     23  C   UNL     1       3.231   4.809  20.146  0.00  0.00    +0.000 A 
ENDBRANCH  16  17
ENDBRANCH   3  16
TORSDOF 6
ENDMDL
MODEL 4
REMARK VINA RESULT:      -6.8      1.558      1.735
REMARK  Name = 
REMARK  7 active torsions:
REMARK  status: ('A' for Active; 'I' for Inactive)
REMARK    1  A    between atoms: C_1  and  C_2
REMARK    2  A    between atoms: C_2  and  N_3
REMARK    3  A    between atoms: C_2  and  C_4
REMARK    4  A    between atoms: C_4  and  N_5
REMARK    5  A    between atoms: C_9  and  C_10
REMARK    6  A    between atoms: N_12  and  C_13
REMARK    7  A    between atoms: C_13  and  C_14
REMARK                            x       y       z     vdW  Elec       q    Type
REMARK                         _______ _______ _______ _____ _____    ______ ____
ROOT
ATOM      1  C   UNL     1       5.652   3.898  18.021  0.00  0.00    +0.000 C 
ATOM      2  O   UNL     1       5.761   3.838  19.237  0.00  0.00    +0.000 OA
ATOM      3  N   UNL     1       4.765   3.091  17.372  0.00  0.00    +0.000 N 
ATOM      4  H   UNL     1       4.672   3.166  16.347  0.00  0.00    +0.000 HD
ENDROOT
BRANCH   1   9
ATOM      5  N   UNL     1       5.635   5.905  16.604  0.00  0.00    +0.000 NA
ATOM      6  C   UNL     1       6.050   7.192  17.190  0.00  0.00    +0.000 C 
ATOM      7  C   UNL     1       7.513   7.015  17.562  0.00  0.00    +0.000 C 
ATOM      8  C   UNL     1       7.441   5.661  18.220  0.00  0.00    +0.000 C 
ATOM      9  C   UNL     1       6.508   4.896  17.268  0.00  0.00    +0.000 C 
BRANCH   5  10
ATOM     10  C   UNL     1       5.807   5.931  15.128  0.00  0.00    +0.000 C 
BRANCH  10  12
ATOM     11  C   UNL     1       6.133   3.884  13.659  0.00  0.00    +0.000 C 
ATOM     12  C   UNL     1       6.808   4.868  14.616  0.00  0.00    +0.000 C 
BRANCH  12  13
ATOM     13  N   UNL     1       7.934   5.528  13.953  0.00  0.00    +0.000 NA
ATOM     14  H   UNL     1       7.589   6.120  13.162  0.00  0.00    +0.000 HD
ATOM     15  H   UNL     1       8.587   4.808  13.569  0.00  0.00    +0.000 HD
ENDBRANCH  12  13
ENDBRANCH  10  12
ENDBRANCH   5  10
ENDBRANCH   1   9
BRANCH   3  16
ATOM     16  C   UNL     1       3.935   2.116  18.064  0.00  0.00    +0.000 C 
BRANCH  16  17
ATOM     17  C   UNL     1       2.862   2.806  18.868  0.00  0.00    +0.000 A 
ATOM     18  C   UNL     1       2.233   3.954  18.366  0.00  0.00    +0.000 A 
ATOM     19  C   UNL     1       1.231   4.595  19.106  0.00  0.00    +0.000 A 
ATOM     20  C   UNL     1       0.864   4.100  20.359  0.00  0.00    +0.000 A 
ATOM     21  C   UNL     1       1.498   2.966  20.875  0.00  0.00    +0.000 A 
ATOM     22 CL   UNL     1       1.048   2.354  22.457  0.00  0.00    +0.000 Cl
ATOM     23  C   UNL     1       2.493   2.318  20.132  0.00  0.00    +0.000 A 
ENDBRANCH  16  17
ENDBRANCH   3  16
TORSDOF 6
ENDMDL
MODEL 5
REMARK VINA RESULT:      -6.8      3.147      7.040
REMARK  Name = 
REMARK  7 active torsions:
REMARK  status: ('A' for Active; 'I' for Inactive)
REMARK    1  A    between atoms: C_1  and  C_2
REMARK    2  A    between atoms: C_2  and  N_3
REMARK    3  A    between atoms: C_2  and  C_4
REMARK    4  A    between atoms: C_4  and  N_5
REMARK    5  A    between atoms: C_9  and  C_10
REMARK    6  A    between atoms: N_12  and  C_13
REMARK    7  A    between atoms: C_13  and  C_14
REMARK                            x       y       z     vdW  Elec       q    Type
REMARK                         _______ _______ _______ _____ _____    ______ ____
ROOT
ATOM      1  C   UNL     1       4.656   4.785  17.158  0.00  0.00    +0.000 C 
ATOM      2  O   UNL     1       4.856   3.628  17.499  0.00  0.00    +0.000 OA
ATOM      3  N   UNL     1       5.601   5.460  16.443  0.00  0.00    +0.000 N 
ATOM      4  H   UNL     1       5.411   6.430  16.147  0.00  0.00    +0.000 HD
ENDROOT
BRANCH   1   9
ATOM      5  N   UNL     1       2.845   4.856  18.816  0.00  0.00    +0.000 NA
ATOM      6  C   UNL     1       2.763   6.010  19.729  0.00  0.00    +0.000 C 
ATOM      7  C   UNL     1       2.497   7.214  18.840  0.00  0.00    +0.000 C 
ATOM      8  C   UNL     1       3.503   6.946  17.751  0.00  0.00    +0.000 C 
ATOM      9  C   UNL     1       3.339   5.433  17.534  0.00  0.00    +0.000 C 
BRANCH   5  10
ATOM     10  C   UNL     1       1.514   4.210  18.679  0.00  0.00    +0.000 C 
BRANCH  10  12
ATOM     11  C   UNL     1       1.189   2.810  20.775  0.00  0.00    +0.000 C 
ATOM     12  C   UNL     1       1.469   2.781  19.271  0.00  0.00    +0.000 C 
BRANCH  12  13
ATOM     13  N   UNL     1       0.448   1.992  18.581  0.00  0.00    +0.000 NA
ATOM     14  H   UNL     1      -0.031   1.353  19.257  0.00  0.00    +0.000 HD
ATOM     15  H   UNL     1       0.898   1.411  17.837  0.00  0.00    +0.000 HD
ENDBRANCH  12  13
ENDBRANCH  10  12
ENDBRANCH   5  10
ENDBRANCH   1   9
BRANCH   3  16
ATOM     16  C   UNL     1       6.880   4.871  16.073  0.00  0.00    +0.000 C 
BRANCH  16  17
ATOM     17  C   UNL     1       6.972   4.700  14.578  0.00  0.00    +0.000 A 
ATOM     18  C   UNL     1       7.831   5.512  13.825  0.00  0.00    +0.000 A 
ATOM     19  C   UNL     1       7.926   5.351  12.437  0.00  0.00    +0.000 A 
ATOM     20  C   UNL     1       7.150   4.386  11.791  0.00  0.00    +0.000 A 
ATOM     21  C   UNL     1       6.278   3.583  12.531  0.00  0.00    +0.000 A 
ATOM     22 CL   UNL     1       5.291   2.381  11.718  0.00  0.00    +0.000 Cl
ATOM     23  C   UNL     1       6.190   3.735  13.920  0.00  0.00    +0.000 A 
ENDBRANCH  16  17
ENDBRANCH   3  16
TORSDOF 6
ENDMDL
MODEL 6
REMARK VINA RESULT:      -6.8      1.633      1.682
REMARK  Name = 
REMARK  7 active torsions:
REMARK  status: ('A' for Active; 'I' for Inactive)
REMARK    1  A    between atoms: C_1  and  C_2
REMARK    2  A    between atoms: C_2  and  N_3
REMARK    3  A    between atoms: C_2  and  C_4
REMARK    4  A    between atoms: C_4  and  N_5
REMARK    5  A    between atoms: C_9  and  C_10
REMARK    6  A    between atoms: N_12  and  C_13
REMARK    7  A    between atoms: C_13  and  C_14
REMARK                            x       y       z     vdW  Elec       q    Type
REMARK                         _______ _______ _______ _____ _____    ______ ____
ROOT
ATOM      1  C   UNL     1       5.833   4.668  19.010  0.00  0.00    +0.000 C 
ATOM      2  O   UNL     1       5.436   5.324  19.963  0.00  0.00    +0.000 OA
ATOM      3  N   UNL     1       5.575   3.331  18.946  0.00  0.00    +0.000 N 
ATOM      4  H   UNL     1       5.901   2.793  18.127  0.00  0.00    +0.000 HD
ENDROOT
BRANCH   1   9
ATOM      5  N   UNL     1       5.663   6.255  17.143  0.00  0.00    +0.000 NA
ATOM      6  C   UNL     1       6.215   7.612  17.312  0.00  0.00    +0.000 C 
ATOM      7  C   UNL     1       7.711   7.421  17.500  0.00  0.00    +0.000 C 
ATOM      8  C   UNL     1       7.695   6.283  18.487  0.00  0.00    +0.000 C 
ATOM      9  C   UNL     1       6.593   5.379  17.910  0.00  0.00    +0.000 C 
BRANCH   5  10
ATOM     10  C   UNL     1       5.597   5.901  15.702  0.00  0.00    +0.000 C 
BRANCH  10  12
ATOM     11  C   UNL     1       6.025   3.721  14.469  0.00  0.00    +0.000 C 
ATOM     12  C   UNL     1       6.655   4.850  15.287  0.00  0.00    +0.000 C 
BRANCH  12  13
ATOM     13  N   UNL     1       7.721   5.498  14.521  0.00  0.00    +0.000 NA
ATOM     14  H   UNL     1       7.385   6.413  14.141  0.00  0.00    +0.000 HD
ATOM     15  H   UNL     1       7.999   4.886  13.720  0.00  0.00    +0.000 HD
ENDBRANCH  12  13
ENDBRANCH  10  12
ENDBRANCH   5  10
ENDBRANCH   1   9
BRANCH   3  16
ATOM     16  C   UNL     1       4.856   2.615  19.990  0.00  0.00    +0.000 C 
BRANCH  16  17
ATOM     17  C   UNL     1       3.381   2.922  19.924  0.00  0.00    +0.000 A 
ATOM     18  C   UNL     1       2.566   2.720  21.047  0.00  0.00    +0.000 A 
ATOM     19  C   UNL     1       1.198   3.010  20.992  0.00  0.00    +0.000 A 
ATOM     20  C   UNL     1       0.632   3.491  19.810  0.00  0.00    +0.000 A 
ATOM     21  C   UNL     1       1.433   3.679  18.679  0.00  0.00    +0.000 A 
ATOM     22 CL   UNL     1       0.719   4.267  17.188  0.00  0.00    +0.000 Cl
ATOM     23  C   UNL     1       2.803   3.399  18.735  0.00  0.00    +0.000 A 
ENDBRANCH  16  17
ENDBRANCH   3  16
TORSDOF 6
ENDMDL
MODEL 7
REMARK VINA RESULT:      -6.7      2.174      3.587
REMARK  Name = 
REMARK  7 active torsions:
REMARK  status: ('A' for Active; 'I' for Inactive)
REMARK    1  A    between atoms: C_1  and  C_2
REMARK    2  A    between atoms: C_2  and  N_3
REMARK    3  A    between atoms: C_2  and  C_4
REMARK    4  A    between atoms: C_4  and  N_5
REMARK    5  A    between atoms: C_9  and  C_10
REMARK    6  A    between atoms: N_12  and  C_13
REMARK    7  A    between atoms: C_13  and  C_14
REMARK                            x       y       z     vdW  Elec       q    Type
REMARK                         _______ _______ _______ _____ _____    ______ ____
ROOT
ATOM      1  C   UNL     1       4.362   5.890  17.204  0.00  0.00    +0.000 C 
ATOM      2  O   UNL     1       4.244   6.926  17.841  0.00  0.00    +0.000 OA
ATOM      3  N   UNL     1       3.382   4.943  17.249  0.00  0.00    +0.000 N 
ATOM      4  H   UNL     1       3.487   4.081  16.692  0.00  0.00    +0.000 HD
ENDROOT
BRANCH   1   9
ATOM      5  N   UNL     1       6.288   4.433  16.752  0.00  0.00    +0.000 NA
ATOM      6  C   UNL     1       6.292   3.622  15.521  0.00  0.00    +0.000 C 
ATOM      7  C   UNL     1       6.308   4.622  14.376  0.00  0.00    +0.000 C 
ATOM      8  C   UNL     1       5.255   5.581  14.868  0.00  0.00    +0.000 C 
ATOM      9  C   UNL     1       5.606   5.698  16.360  0.00  0.00    +0.000 C 
BRANCH   5  10
ATOM     10  C   UNL     1       7.678   4.653  17.229  0.00  0.00    +0.000 C 
BRANCH  10  12
ATOM     11  C   UNL     1       7.900   6.839  18.506  0.00  0.00    +0.000 C 
ATOM     12  C   UNL     1       7.742   5.322  18.623  0.00  0.00    +0.000 C 
BRANCH  12  13
ATOM     13  N   UNL     1       6.535   4.995  19.384  0.00  0.00    +0.000 NA
ATOM     14  H   UNL     1       5.816   5.744  19.257  0.00  0.00    +0.000 HD
ATOM     15  H   UNL     1       6.768   4.927  20.401  0.00  0.00    +0.000 HD
ENDBRANCH  12  13
ENDBRANCH  10  12
ENDBRANCH   5  10
ENDBRANCH   1   9
BRANCH   3  16
ATOM     16  C   UNL     1       2.179   5.091  18.056  0.00  0.00    +0.000 C 
BRANCH  16  17
ATOM     17  C   UNL     1       2.236   4.190  19.263  0.00  0.00    +0.000 A 
ATOM     18  C   UNL     1       1.160   4.141  20.160  0.00  0.00    +0.000 A 
ATOM     19  C   UNL     1       1.206   3.300  21.278  0.00  0.00    +0.000 A 
ATOM     20  C   UNL     1       2.335   2.514  21.516  0.00  0.00    +0.000 A 
ATOM     21  C   UNL     1       3.421   2.569  20.637  0.00  0.00    +0.000 A 
ATOM     22 CL   UNL     1       4.847   1.593  20.944  0.00  0.00    +0.000 Cl
ATOM     23  C   UNL     1       3.372   3.401  19.512  0.00  0.00    +0.000 A 
ENDBRANCH  16  17
ENDBRANCH   3  16
TORSDOF 6
ENDMDL
MODEL 8
REMARK VINA RESULT:      -6.7      2.970      6.841
REMARK  Name = 
REMARK  7 active torsions:
REMARK  status: ('A' for Active; 'I' for Inactive)
REMARK    1  A    between atoms: C_1  and  C_2
REMARK    2  A    between atoms: C_2  and  N_3
REMARK    3  A    between atoms: C_2  and  C_4
REMARK    4  A    between atoms: C_4  and  N_5
REMARK    5  A    between atoms: C_9  and  C_10
REMARK    6  A    between atoms: N_12  and  C_13
REMARK    7  A    between atoms: C_13  and  C_14
REMARK                            x       y       z     vdW  Elec       q    Type
REMARK                         _______ _______ _______ _____ _____    ______ ____
ROOT
ATOM      1  C   UNL     1       5.248   4.756  17.640  0.00  0.00    +0.000 C 
ATOM      2  O   UNL     1       6.090   4.405  18.454  0.00  0.00    +0.000 OA
ATOM      3  N   UNL     1       5.612   5.034  16.356  0.00  0.00    +0.000 N 
ATOM      4  H   UNL     1       4.888   5.312  15.675  0.00  0.00    +0.000 HD
ENDROOT
BRANCH   1   9
ATOM      5  N   UNL     1       3.703   4.487  19.531  0.00  0.00    +0.000 NA
ATOM      6  C   UNL     1       3.155   5.694  20.176  0.00  0.00    +0.000 C 
ATOM      7  C   UNL     1       2.318   6.380  19.110  0.00  0.00    +0.000 C 
ATOM      8  C   UNL     1       3.271   6.287  17.946  0.00  0.00    +0.000 C 
ATOM      9  C   UNL     1       3.805   4.852  18.090  0.00  0.00    +0.000 C 
BRANCH   5  10
ATOM     10  C   UNL     1       2.809   3.325  19.767  0.00  0.00    +0.000 C 
BRANCH  10  12
ATOM     11  C   UNL     1       3.492   1.432  18.215  0.00  0.00    +0.000 C 
ATOM     12  C   UNL     1       3.538   1.965  19.648  0.00  0.00    +0.000 C 
BRANCH  12  13
ATOM     13  N   UNL     1       4.926   2.108  20.091  0.00  0.00    +0.000 NA
ATOM     14  H   UNL     1       5.256   3.088  19.931  0.00  0.00    +0.000 HD
ATOM     15  H   UNL     1       5.537   1.458  19.546  0.00  0.00    +0.000 HD
ENDBRANCH  12  13
ENDBRANCH  10  12
ENDBRANCH   5  10
ENDBRANCH   1   9
BRANCH   3  16
ATOM     16  C   UNL     1       6.991   4.960  15.893  0.00  0.00    +0.000 C 
BRANCH  16  17
ATOM     17  C   UNL     1       7.039   4.745  14.401  0.00  0.00    +0.000 A 
ATOM     18  C   UNL     1       7.875   5.536  13.600  0.00  0.00    +0.000 A 
ATOM     19  C   UNL     1       7.928   5.335  12.216  0.00  0.00    +0.000 A 
ATOM     20  C   UNL     1       7.134   4.353  11.621  0.00  0.00    +0.000 A 
ATOM     21  C   UNL     1       6.284   3.571  12.409  0.00  0.00    +0.000 A 
ATOM     22 CL   UNL     1       5.273   2.348  11.660  0.00  0.00    +0.000 Cl
ATOM     23  C   UNL     1       6.237   3.763  13.795  0.00  0.00    +0.000 A 
ENDBRANCH  16  17
ENDBRANCH   3  16
TORSDOF 6
ENDMDL
MODEL 9
REMARK VINA RESULT:      -6.6      3.085      6.868
REMARK  Name = 
REMARK  7 active torsions:
REMARK  status: ('A' for Active; 'I' for Inactive)
REMARK    1  A    between atoms: C_1  and  C_2
REMARK    2  A    between atoms: C_2  and  N_3
REMARK    3  A    between atoms: C_2  and  C_4
REMARK    4  A    between atoms: C_4  and  N_5
REMARK    5  A    between atoms: C_9  and  C_10
REMARK    6  A    between atoms: N_12  and  C_13
REMARK    7  A    between atoms: C_13  and  C_14
REMARK                            x       y       z     vdW  Elec       q    Type
REMARK                         _______ _______ _______ _____ _____    ______ ____
ROOT
ATOM      1  C   UNL     1       4.354   4.649  17.579  0.00  0.00    +0.000 C 
ATOM      2  O   UNL     1       4.685   3.710  18.288  0.00  0.00    +0.000 OA
ATOM      3  N   UNL     1       5.134   5.017  16.523  0.00  0.00    +0.000 N 
ATOM      4  H   UNL     1       4.832   5.801  15.923  0.00  0.00    +0.000 HD
ENDROOT
BRANCH   1   9
ATOM      5  N   UNL     1       2.728   5.201  19.336  0.00  0.00    +0.000 NA
ATOM      6  C   UNL     1       2.698   6.575  19.869  0.00  0.00    +0.000 C 
ATOM      7  C   UNL     1       2.290   7.455  18.699  0.00  0.00    +0.000 C 
ATOM      8  C   UNL     1       3.184   6.880  17.631  0.00  0.00    +0.000 C 
ATOM      9  C   UNL     1       3.059   5.370  17.893  0.00  0.00    +0.000 C 
BRANCH   5  10
ATOM     10  C   UNL     1       1.418   4.535  19.550  0.00  0.00    +0.000 C 
BRANCH  10  12
ATOM     11  C   UNL     1       1.350   2.137  18.711  0.00  0.00    +0.000 C 
ATOM     12  C   UNL     1       1.551   3.040  19.930  0.00  0.00    +0.000 C 
BRANCH  12  13
ATOM     13  N   UNL     1       2.864   2.798  20.529  0.00  0.00    +0.000 NA
ATOM     14  H   UNL     1       3.621   3.123  19.882  0.00  0.00    +0.000 HD
ATOM     15  H   UNL     1       2.989   1.774  20.699  0.00  0.00    +0.000 HD
ENDBRANCH  12  13
ENDBRANCH  10  12
ENDBRANCH   5  10
ENDBRANCH   1   9
BRANCH   3  16
ATOM     16  C   UNL     1       6.387   4.352  16.198  0.00  0.00    +0.000 C 
BRANCH  16  17
ATOM     17  C   UNL     1       6.613   4.344  14.707  0.00  0.00    +0.000 A 
ATOM     18  C   UNL     1       7.594   5.166  14.136  0.00  0.00    +0.000 A 
ATOM     19  C   UNL     1       7.812   5.156  12.754  0.00  0.00    +0.000 A 
ATOM     20  C   UNL     1       7.039   4.334  11.930  0.00  0.00    +0.000 A 
ATOM     21  C   UNL     1       6.045   3.524  12.488  0.00  0.00    +0.000 A 
ATOM     22 CL   UNL     1       5.063   2.504  11.452  0.00  0.00    +0.000 Cl
ATOM     23  C   UNL     1       5.834   3.525  13.872  0.00  0.00    +0.000 A 
ENDBRANCH  16  17
ENDBRANCH   3  16
TORSDOF 6
ENDMDL
