MODEL 1
REMARK VINA RESULT:      -7.1      0.000      0.000
REMARK  Name = 
REMARK  9 active torsions:
REMARK  status: ('A' for Active; 'I' for Inactive)
REMARK    1  A    between atoms: C_1  and  C_2
REMARK    2  A    between atoms: C_2  and  C_3
REMARK    3  A    between atoms: C_3  and  N_4
REMARK    4  A    between atoms: C_5  and  S_6
REMARK    5  A    between atoms: S_6  and  C_7
REMARK    6  A    between atoms: C_7  and  C_8
REMARK    7  A    between atoms: N_10  and  C_11
REMARK    8  A    between atoms: C_11  and  C_12
REMARK    9  A    between atoms: C_20  and  C_21
REMARK                            x       y       z     vdW  Elec       q    Type
REMARK                         _______ _______ _______ _____ _____    ______ ____
ROOT
ATOM      1  N   UNL     1       4.821   3.873  17.942  0.00  0.00    +0.000 N 
ATOM      2  C   UNL     1       4.311   2.896  18.768  0.00  0.00    +0.000 A 
ATOM      3  N   UNL     1       4.784   3.056  19.978  0.00  0.00    +0.000 NA
ATOM      4  N   UNL     1       5.600   4.163  19.962  0.00  0.00    +0.000 NA
ATOM      5  C   UNL     1       5.640   4.667  18.735  0.00  0.00    +0.000 A 
ENDROOT
BRANCH   5   6
ATOM      6  C   UNL     1       6.400   5.884  18.370  0.00  0.00    +0.000 A 
ATOM      7  C   UNL     1       5.974   6.838  17.441  0.00  0.00    +0.000 A 
ATOM      8  C   UNL     1       6.772   7.942  17.167  0.00  0.00    +0.000 A 
ATOM      9  N   UNL     1       7.966   8.159  17.743  0.00  0.00    +0.000 NA
ATOM     10  C   UNL     1       8.387   7.225  18.619  0.00  0.00    +0.000 A 
ATOM     11  C   UNL     1       7.655   6.094  18.956  0.00  0.00    +0.000 A 
ENDBRANCH   5   6
BRANCH   1  12
ATOM     12  C   UNL     1       4.504   4.064  16.541  0.00  0.00    +0.000 C 
BRANCH  12  14
ATOM     13  C   UNL     1       5.901   4.638  14.527  0.00  0.00    +0.000 C 
ATOM     14  C   UNL     1       5.644   3.617  15.623  0.00  0.00    +0.000 C 
ENDBRANCH  12  14
ENDBRANCH   1  12
BRANCH   2  15
ATOM     15  S   UNL     1       3.220   1.651  18.247  0.00  0.00    +0.000 S 
BRANCH  15  16
ATOM     16  C   UNL     1       1.597   2.465  18.381  0.00  0.00    +0.000 C 
BRANCH  16  17
ATOM     17  C   UNL     1       1.614   3.440  19.559  0.00  0.00    +0.000 C 
ATOM     18  O   UNL     1       1.302   3.098  20.698  0.00  0.00    +0.000 OA
ATOM     19  N   UNL     1       2.013   4.726  19.250  0.00  0.00    +0.000 N 
ATOM     20  H   UNL     1       2.320   4.936  18.310  0.00  0.00    +0.000 HD
BRANCH  19  21
ATOM     21  C   UNL     1       2.137   5.773  20.244  0.00  0.00    +0.000 C 
BRANCH  21  22
ATOM     22  C   UNL     1       1.958   7.139  19.628  0.00  0.00    +0.000 A 
ATOM     23  C   UNL     1       1.346   8.168  20.360  0.00  0.00    +0.000 A 
ATOM     24  C   UNL     1       1.170   9.434  19.800  0.00  0.00    +0.000 A 
ATOM     25  C   UNL     1       1.601   9.688  18.499  0.00  0.00    +0.000 A 
ATOM     26  C   UNL     1       2.209   8.676  17.757  0.00  0.00    +0.000 A 
ATOM     27  C   UNL     1       2.386   7.405  18.318  0.00  0.00    +0.000 A 
ENDBRANCH  21  22
ENDBRANCH  19  21
ENDBRANCH  16  17
ENDBRANCH  15  16
ENDBRANCH   2  15
TORSDOF 8
ENDMDL
MODEL 2
REMARK VINA RESULT:      -7.0      2.834      6.771
REMARK  Name = 
REMARK  9 active torsions:
REMARK  status: ('A' for Active; 'I' for Inactive)
REMARK    1  A    between atoms: C_1  and  C_2
REMARK    2  A    between atoms: C_2  and  C_3
REMARK    3  A    between atoms: C_3  and  N_4
REMARK    4  A    between atoms: C_5  and  S_6
REMARK    5  A    between atoms: S_6  and  C_7
REMARK    6  A    between atoms: C_7  and  C_8
REMARK    7  A    between atoms: N_10  and  C_11
REMARK    8  A    between atoms: C_11  and  C_12
REMARK    9  A    between atoms: C_20  and  C_21
REMARK                            x       y       z     vdW  Elec       q    Type
REMARK                         _______ _______ _______ _____ _____    ______ ____
ROOT
ATOM      1  N   UNL     1       1.644   8.325  19.870  0.00  0.00    +0.000 N 
ATOM      2  C   UNL     1       2.228   7.171  19.399  0.00  0.00    +0.000 A 
ATOM      3  N   UNL     1       2.389   7.259  18.103  0.00  0.00    +0.000 NA
ATOM      4  N   UNL     1       1.925   8.492  17.711  0.00  0.00    +0.000 NA
ATOM      5  C   UNL     1       1.464   9.150  18.767  0.00  0.00    +0.000 A 
ENDROOT
BRANCH   5   6
ATOM      6  C   UNL     1       0.920  10.526  18.706  0.00  0.00    +0.000 A 
ATOM      7  C   UNL     1      -0.442  10.841  18.668  0.00  0.00    +0.000 A 
ATOM      8  C   UNL     1      -0.843  12.170  18.604  0.00  0.00    +0.000 A 
ATOM      9  N   UNL     1       0.013  13.205  18.566  0.00  0.00    +0.000 NA
ATOM     10  C   UNL     1       1.325  12.898  18.577  0.00  0.00    +0.000 A 
ATOM     11  C   UNL     1       1.816  11.600  18.644  0.00  0.00    +0.000 A 
ENDBRANCH   5   6
BRANCH   1  12
ATOM     12  C   UNL     1       1.344   8.632  21.254  0.00  0.00    +0.000 C 
BRANCH  12  14
ATOM     13  C   UNL     1      -0.536   9.409  22.738  0.00  0.00    +0.000 C 
ATOM     14  C   UNL     1      -0.152   8.530  21.559  0.00  0.00    +0.000 C 
ENDBRANCH  12  14
ENDBRANCH   1  12
BRANCH   2  15
ATOM     15  S   UNL     1       2.661   5.820  20.399  0.00  0.00    +0.000 S 
BRANCH  15  16
ATOM     16  C   UNL     1       1.364   4.604  20.007  0.00  0.00    +0.000 C 
BRANCH  16  17
ATOM     17  C   UNL     1       1.735   3.862  18.722  0.00  0.00    +0.000 C 
ATOM     18  O   UNL     1       0.927   3.166  18.111  0.00  0.00    +0.000 OA
ATOM     19  N   UNL     1       3.037   4.040  18.297  0.00  0.00    +0.000 N 
ATOM     20  H   UNL     1       3.640   4.675  18.803  0.00  0.00    +0.000 HD
BRANCH  19  21
ATOM     21  C   UNL     1       3.554   3.456  17.076  0.00  0.00    +0.000 C 
BRANCH  21  22
ATOM     22  C   UNL     1       4.896   4.042  16.712  0.00  0.00    +0.000 A 
ATOM     23  C   UNL     1       5.222   4.273  15.367  0.00  0.00    +0.000 A 
ATOM     24  C   UNL     1       6.463   4.810  15.017  0.00  0.00    +0.000 A 
ATOM     25  C   UNL     1       7.394   5.120  16.006  0.00  0.00    +0.000 A 
ATOM     26  C   UNL     1       7.086   4.894  17.347  0.00  0.00    +0.000 A 
ATOM     27  C   UNL     1       5.842   4.355  17.699  0.00  0.00    +0.000 A 
ENDBRANCH  21  22
ENDBRANCH  19  21
ENDBRANCH  16  17
ENDBRANCH  15  16
ENDBRANCH   2  15
TORSDOF 8
ENDMDL
MODEL 3
REMARK VINA RESULT:      -6.9      3.701      7.122
REMARK  Name = 
REMARK  9 active torsions:
REMARK  status: ('A' for Active; 'I' for Inactive)
REMARK    1  A    between atoms: C_1  and  C_2
REMARK    2  A    between atoms: C_2  and  C_3
REMARK    3  A    between atoms: C_3  and  N_4
REMARK    4  A    between atoms: C_5  and  S_6
REMARK    5  A    between atoms: S_6  and  C_7
REMARK    6  A    between atoms: C_7  and  C_8
REMARK    7  A    between atoms: N_10  and  C_11
REMARK    8  A    between atoms: C_11  and  C_12
REMARK    9  A    between atoms: C_20  and  C_21
REMARK                            x       y       z     vdW  Elec       q    Type
REMARK                         _______ _______ _______ _____ _____    ______ ____
ROOT
ATOM      1  N   UNL     1       4.730   5.166  17.979  0.00  0.00    +0.000 N 
ATOM      2  C   UNL     1       6.087   5.160  17.741  0.00  0.00    +0.000 A 
ATOM      3  N   UNL     1       6.664   4.274  18.512  0.00  0.00    +0.000 NA
ATOM      4  N   UNL     1       5.679   3.669  19.257  0.00  0.00    +0.000 NA
ATOM      5  C   UNL     1       4.502   4.201  18.953  0.00  0.00    +0.000 A 
ENDROOT
BRANCH   5   6
ATOM      6  C   UNL     1       3.221   3.757  19.548  0.00  0.00    +0.000 A 
ATOM      7  C   UNL     1       2.347   2.838  18.958  0.00  0.00    +0.000 A 
ATOM      8  C   UNL     1       1.164   2.498  19.602  0.00  0.00    +0.000 A 
ATOM      9  N   UNL     1       0.784   3.013  20.783  0.00  0.00    +0.000 NA
ATOM     10  C   UNL     1       1.615   3.918  21.337  0.00  0.00    +0.000 A 
ATOM     11  C   UNL     1       2.818   4.315  20.768  0.00  0.00    +0.000 A 
ENDBRANCH   5   6
BRANCH   1  12
ATOM     12  C   UNL     1       3.741   5.974  17.296  0.00  0.00    +0.000 C 
BRANCH  12  14
ATOM     13  C   UNL     1       2.695   8.246  17.576  0.00  0.00    +0.000 C 
ATOM     14  C   UNL     1       3.006   6.920  18.249  0.00  0.00    +0.000 C 
ENDBRANCH  12  14
ENDBRANCH   1  12
BRANCH   2  15
ATOM     15  S   UNL     1       6.877   6.195  16.592  0.00  0.00    +0.000 S 
BRANCH  15  16
ATOM     16  C   UNL     1       6.674   7.844  17.337  0.00  0.00    +0.000 C 
BRANCH  16  17
ATOM     17  C   UNL     1       7.901   8.169  18.191  0.00  0.00    +0.000 C 
ATOM     18  O   UNL     1       8.521   7.303  18.804  0.00  0.00    +0.000 OA
ATOM     19  N   UNL     1       8.263   9.502  18.213  0.00  0.00    +0.000 N 
ATOM     20  H   UNL     1       7.756  10.162  17.639  0.00  0.00    +0.000 HD
BRANCH  19  21
ATOM     21  C   UNL     1       9.425   9.991  18.927  0.00  0.00    +0.000 C 
BRANCH  21  22
ATOM     22  C   UNL     1       9.928  11.285  18.338  0.00  0.00    +0.000 A 
ATOM     23  C   UNL     1      11.301  11.473  18.117  0.00  0.00    +0.000 A 
ATOM     24  C   UNL     1      11.779  12.669  17.578  0.00  0.00    +0.000 A 
ATOM     25  C   UNL     1      10.891  13.694  17.256  0.00  0.00    +0.000 A 
ATOM     26  C   UNL     1       9.524  13.524  17.472  0.00  0.00    +0.000 A 
ATOM     27  C   UNL     1       9.043  12.325  18.013  0.00  0.00    +0.000 A 
ENDBRANCH  21  22
ENDBRANCH  19  21
ENDBRANCH  16  17
ENDBRANCH  15  16
ENDBRANCH   2  15
TORSDOF 8
ENDMDL
MODEL 4
REMARK VINA RESULT:      -6.9      2.788      6.651
REMARK  Name = 
REMARK  9 active torsions:
REMARK  status: ('A' for Active; 'I' for Inactive)
REMARK    1  A    between atoms: C_1  and  C_2
REMARK    2  A    between atoms: C_2  and  C_3
REMARK    3  A    between atoms: C_3  and  N_4
REMARK    4  A    between atoms: C_5  and  S_6
REMARK    5  A    between atoms: S_6  and  C_7
REMARK    6  A    between atoms: C_7  and  C_8
REMARK    7  A    between atoms: N_10  and  C_11
REMARK    8  A    between atoms: C_11  and  C_12
REMARK    9  A    between atoms: C_20  and  C_21
REMARK                            x       y       z     vdW  Elec       q    Type
REMARK                         _______ _______ _______ _____ _____    ______ ____
ROOT
ATOM      1  N   UNL     1       1.582   8.298  19.908  0.00  0.00    +0.000 N 
ATOM      2  C   UNL     1       2.018   7.070  19.461  0.00  0.00    +0.000 A 
ATOM      3  N   UNL     1       2.218   7.120  18.168  0.00  0.00    +0.000 NA
ATOM      4  N   UNL     1       1.931   8.399  17.754  0.00  0.00    +0.000 NA
ATOM      5  C   UNL     1       1.537   9.126  18.792  0.00  0.00    +0.000 A 
ENDROOT
BRANCH   5   6
ATOM      6  C   UNL     1       1.183  10.560  18.706  0.00  0.00    +0.000 A 
ATOM      7  C   UNL     1       2.104  11.596  18.523  0.00  0.00    +0.000 A 
ATOM      8  C   UNL     1       1.662  12.912  18.465  0.00  0.00    +0.000 A 
ATOM      9  N   UNL     1       0.373  13.271  18.584  0.00  0.00    +0.000 NA
ATOM     10  C   UNL     1      -0.510  12.273  18.787  0.00  0.00    +0.000 A 
ATOM     11  C   UNL     1      -0.159  10.931  18.855  0.00  0.00    +0.000 A 
ENDBRANCH   5   6
BRANCH   1  12
ATOM     12  C   UNL     1       1.295   8.659  21.281  0.00  0.00    +0.000 C 
BRANCH  12  14
ATOM     13  C   UNL     1      -0.571   9.433  22.783  0.00  0.00    +0.000 C 
ATOM     14  C   UNL     1      -0.195   8.540  21.612  0.00  0.00    +0.000 C 
ENDBRANCH  12  14
ENDBRANCH   1  12
BRANCH   2  15
ATOM     15  S   UNL     1       2.246   5.686  20.484  0.00  0.00    +0.000 S 
BRANCH  15  16
ATOM     16  C   UNL     1       2.222   4.306  19.296  0.00  0.00    +0.000 C 
BRANCH  16  17
ATOM     17  C   UNL     1       3.650   4.004  18.840  0.00  0.00    +0.000 C 
ATOM     18  O   UNL     1       4.392   3.251  19.467  0.00  0.00    +0.000 OA
ATOM     19  N   UNL     1       4.038   4.632  17.673  0.00  0.00    +0.000 N 
ATOM     20  H   UNL     1       3.366   5.191  17.164  0.00  0.00    +0.000 HD
BRANCH  19  21
ATOM     21  C   UNL     1       5.337   4.429  17.063  0.00  0.00    +0.000 C 
BRANCH  21  22
ATOM     22  C   UNL     1       6.332   5.460  17.532  0.00  0.00    +0.000 A 
ATOM     23  C   UNL     1       7.175   5.184  18.620  0.00  0.00    +0.000 A 
ATOM     24  C   UNL     1       8.096   6.133  19.067  0.00  0.00    +0.000 A 
ATOM     25  C   UNL     1       8.185   7.372  18.435  0.00  0.00    +0.000 A 
ATOM     26  C   UNL     1       7.353   7.663  17.354  0.00  0.00    +0.000 A 
ATOM     27  C   UNL     1       6.429   6.712  16.905  0.00  0.00    +0.000 A 
ENDBRANCH  21  22
ENDBRANCH  19  21
ENDBRANCH  16  17
ENDBRANCH  15  16
ENDBRANCH   2  15
TORSDOF 8
ENDMDL
MODEL 5
REMARK VINA RESULT:      -6.8      2.918      6.892
REMARK  Name = 
REMARK  9 active torsions:
REMARK  status: ('A' for Active; 'I' for Inactive)
REMARK    1  A    between atoms: C_1  and  C_2
REMARK    2  A    between atoms: C_2  and  C_3
REMARK    3  A    between atoms: C_3  and  N_4
REMARK    4  A    between atoms: C_5  and  S_6
REMARK    5  A    between atoms: S_6  and  C_7
REMARK    6  A    between atoms: C_7  and  C_8
REMARK    7  A    between atoms: N_10  and  C_11
REMARK    8  A    between atoms: C_11  and  C_12
REMARK    9  A    between atoms: C_20  and  C_21
REMARK                            x       y       z     vdW  Elec       q    Type
REMARK                         _______ _______ _______ _____ _____    ______ ____
ROOT
ATOM      1  N   UNL     1       1.575   8.364  19.967  0.00  0.00    +0.000 N 
ATOM      2  C   UNL     1       2.233   7.301  19.390  0.00  0.00    +0.000 A 
ATOM      3  N   UNL     1       2.352   7.506  18.103  0.00  0.00    +0.000 NA
ATOM      4  N   UNL     1       1.786   8.727  17.823  0.00  0.00    +0.000 NA
ATOM      5  C   UNL     1       1.304   9.260  18.939  0.00  0.00    +0.000 A 
ENDROOT
BRANCH   5   6
ATOM      6  C   UNL     1       0.656  10.589  19.004  0.00  0.00    +0.000 A 
ATOM      7  C   UNL     1      -0.650  10.858  18.583  0.00  0.00    +0.000 A 
ATOM      8  C   UNL     1      -1.157  12.147  18.681  0.00  0.00    +0.000 A 
ATOM      9  N   UNL     1      -0.456  13.189  19.159  0.00  0.00    +0.000 NA
ATOM     10  C   UNL     1       0.812  12.933  19.540  0.00  0.00    +0.000 A 
ATOM     11  C   UNL     1       1.399  11.676  19.481  0.00  0.00    +0.000 A 
ENDBRANCH   5   6
BRANCH   1  12
ATOM     12  C   UNL     1       1.289   8.535  21.377  0.00  0.00    +0.000 C 
BRANCH  12  14
ATOM     13  C   UNL     1      -0.600   9.532  22.709  0.00  0.00    +0.000 C 
ATOM     14  C   UNL     1      -0.212   8.490  21.674  0.00  0.00    +0.000 C 
ENDBRANCH  12  14
ENDBRANCH   1  12
BRANCH   2  15
ATOM     15  S   UNL     1       2.793   5.912  20.267  0.00  0.00    +0.000 S 
BRANCH  15  16
ATOM     16  C   UNL     1       1.484   4.687  19.949  0.00  0.00    +0.000 C 
BRANCH  16  17
ATOM     17  C   UNL     1       1.791   3.940  18.650  0.00  0.00    +0.000 C 
ATOM     18  O   UNL     1       0.984   3.175  18.128  0.00  0.00    +0.000 OA
ATOM     19  N   UNL     1       3.035   4.197  18.106  0.00  0.00    +0.000 N 
ATOM     20  H   UNL     1       3.634   4.884  18.543  0.00  0.00    +0.000 HD
BRANCH  19  21
ATOM     21  C   UNL     1       3.482   3.619  16.855  0.00  0.00    +0.000 C 
BRANCH  21  22
ATOM     22  C   UNL     1       4.874   4.082  16.502  0.00  0.00    +0.000 A 
ATOM     23  C   UNL     1       5.775   4.442  17.516  0.00  0.00    +0.000 A 
ATOM     24  C   UNL     1       7.064   4.877  17.202  0.00  0.00    +0.000 A 
ATOM     25  C   UNL     1       7.468   4.962  15.871  0.00  0.00    +0.000 A 
ATOM     26  C   UNL     1       6.583   4.610  14.852  0.00  0.00    +0.000 A 
ATOM     27  C   UNL     1       5.290   4.173  15.165  0.00  0.00    +0.000 A 
ENDBRANCH  21  22
ENDBRANCH  19  21
ENDBRANCH  16  17
ENDBRANCH  15  16
ENDBRANCH   2  15
TORSDOF 8
ENDMDL
MODEL 6
REMARK VINA RESULT:      -6.8      2.779      6.733
REMARK  Name = 
REMARK  9 active torsions:
REMARK  status: ('A' for Active; 'I' for Inactive)
REMARK    1  A    between atoms: C_1  and  C_2
REMARK    2  A    between atoms: C_2  and  C_3
REMARK    3  A    between atoms: C_3  and  N_4
REMARK    4  A    between atoms: C_5  and  S_6
REMARK    5  A    between atoms: S_6  and  C_7
REMARK    6  A    between atoms: C_7  and  C_8
REMARK    7  A    between atoms: N_10  and  C_11
REMARK    8  A    between atoms: C_11  and  C_12
REMARK    9  A    between atoms: C_20  and  C_21
REMARK                            x       y       z     vdW  Elec       q    Type
REMARK                         _______ _______ _______ _____ _____    ______ ____
ROOT
ATOM      1  N   UNL     1       1.297   8.108  19.964  0.00  0.00    +0.000 N 
ATOM      2  C   UNL     1       2.115   7.046  19.648  0.00  0.00    +0.000 A 
ATOM      3  N   UNL     1       2.754   7.301  18.535  0.00  0.00    +0.000 NA
ATOM      4  N   UNL     1       2.372   8.553  18.115  0.00  0.00    +0.000 NA
ATOM      5  C   UNL     1       1.484   9.056  18.964  0.00  0.00    +0.000 A 
ENDROOT
BRANCH   5   6
ATOM      6  C   UNL     1       0.889  10.405  18.831  0.00  0.00    +0.000 A 
ATOM      7  C   UNL     1       1.591  11.603  18.997  0.00  0.00    +0.000 A 
ATOM      8  C   UNL     1       0.931  12.817  18.856  0.00  0.00    +0.000 A 
ATOM      9  N   UNL     1      -0.378  12.924  18.571  0.00  0.00    +0.000 NA
ATOM     10  C   UNL     1      -1.058  11.768  18.437  0.00  0.00    +0.000 A 
ATOM     11  C   UNL     1      -0.480  10.511  18.556  0.00  0.00    +0.000 A 
ENDBRANCH   5   6
BRANCH   1  12
ATOM     12  C   UNL     1       0.463   8.230  21.142  0.00  0.00    +0.000 C 
BRANCH  12  14
ATOM     13  C   UNL     1       0.002   9.801  23.054  0.00  0.00    +0.000 C 
ATOM     14  C   UNL     1       1.076   9.157  22.193  0.00  0.00    +0.000 C 
ENDBRANCH  12  14
ENDBRANCH   1  12
BRANCH   2  15
ATOM     15  S   UNL     1       2.245   5.601  20.601  0.00  0.00    +0.000 S 
BRANCH  15  16
ATOM     16  C   UNL     1       2.163   4.288  19.343  0.00  0.00    +0.000 C 
BRANCH  16  17
ATOM     17  C   UNL     1       3.572   3.990  18.827  0.00  0.00    +0.000 C 
ATOM     18  O   UNL     1       4.315   3.183  19.382  0.00  0.00    +0.000 OA
ATOM     19  N   UNL     1       3.940   4.685  17.692  0.00  0.00    +0.000 N 
ATOM     20  H   UNL     1       3.265   5.287  17.240  0.00  0.00    +0.000 HD
BRANCH  19  21
ATOM     21  C   UNL     1       5.217   4.497  17.033  0.00  0.00    +0.000 C 
BRANCH  21  22
ATOM     22  C   UNL     1       6.239   5.494  17.520  0.00  0.00    +0.000 A 
ATOM     23  C   UNL     1       6.375   6.735  16.879  0.00  0.00    +0.000 A 
ATOM     24  C   UNL     1       7.321   7.664  17.317  0.00  0.00    +0.000 A 
ATOM     25  C   UNL     1       8.146   7.363  18.400  0.00  0.00    +0.000 A 
ATOM     26  C   UNL     1       8.024   6.134  19.046  0.00  0.00    +0.000 A 
ATOM     27  C   UNL     1       7.076   5.201  18.608  0.00  0.00    +0.000 A 
ENDBRANCH  21  22
ENDBRANCH  19  21
ENDBRANCH  16  17
ENDBRANCH  15  16
ENDBRANCH   2  15
TORSDOF 8
ENDMDL
MODEL 7
REMARK VINA RESULT:      -6.8      4.077      7.112
REMARK  Name = 
REMARK  9 active torsions:
REMARK  status: ('A' for Active; 'I' for Inactive)
REMARK    1  A    between atoms: C_1  and  C_2
REMARK    2  A    between atoms: C_2  and  C_3
REMARK    3  A    between atoms: C_3  and  N_4
REMARK    4  A    between atoms: C_5  and  S_6
REMARK    5  A    between atoms: S_6  and  C_7
REMARK    6  A    between atoms: C_7  and  C_8
REMARK    7  A    between atoms: N_10  and  C_11
REMARK    8  A    between atoms: C_11  and  C_12
REMARK    9  A    between atoms: C_20  and  C_21
REMARK                            x       y       z     vdW  Elec       q    Type
REMARK                         _______ _______ _______ _____ _____    ______ ____
ROOT
ATOM      1  N   UNL     1       4.962   5.572  18.062  0.00  0.00    +0.000 N 
ATOM      2  C   UNL     1       6.316   5.735  18.256  0.00  0.00    +0.000 A 
ATOM      3  N   UNL     1       6.727   4.912  19.187  0.00  0.00    +0.000 NA
ATOM      4  N   UNL     1       5.640   4.179  19.602  0.00  0.00    +0.000 NA
ATOM      5  C   UNL     1       4.561   4.569  18.937  0.00  0.00    +0.000 A 
ENDROOT
BRANCH   5   6
ATOM      6  C   UNL     1       3.221   3.963  19.113  0.00  0.00    +0.000 A 
ATOM      7  C   UNL     1       2.640   3.050  18.228  0.00  0.00    +0.000 A 
ATOM      8  C   UNL     1       1.370   2.549  18.487  0.00  0.00    +0.000 A 
ATOM      9  N   UNL     1       0.636   2.897  19.557  0.00  0.00    +0.000 NA
ATOM     10  C   UNL     1       1.188   3.797  20.396  0.00  0.00    +0.000 A 
ATOM     11  C   UNL     1       2.451   4.347  20.218  0.00  0.00    +0.000 A 
ENDBRANCH   5   6
BRANCH   1  12
ATOM     12  C   UNL     1       4.144   6.265  17.088  0.00  0.00    +0.000 C 
BRANCH  12  14
ATOM     13  C   UNL     1       2.292   7.515  18.247  0.00  0.00    +0.000 C 
ATOM     14  C   UNL     1       3.662   7.625  17.599  0.00  0.00    +0.000 C 
ENDBRANCH  12  14
ENDBRANCH   1  12
BRANCH   2  15
ATOM     15  S   UNL     1       7.293   6.877  17.388  0.00  0.00    +0.000 S 
BRANCH  15  16
ATOM     16  C   UNL     1       8.309   7.614  18.707  0.00  0.00    +0.000 C 
BRANCH  16  17
ATOM     17  C   UNL     1       8.501   9.105  18.426  0.00  0.00    +0.000 C 
ATOM     18  O   UNL     1       7.873   9.693  17.548  0.00  0.00    +0.000 OA
ATOM     19  N   UNL     1       9.423   9.741  19.236  0.00  0.00    +0.000 N 
ATOM     20  H   UNL     1       9.863   9.224  19.985  0.00  0.00    +0.000 HD
BRANCH  19  21
ATOM     21  C   UNL     1       9.702  11.160  19.149  0.00  0.00    +0.000 C 
BRANCH  21  22
ATOM     22  C   UNL     1       9.390  11.862  20.446  0.00  0.00    +0.000 A 
ATOM     23  C   UNL     1       8.788  11.160  21.502  0.00  0.00    +0.000 A 
ATOM     24  C   UNL     1       8.489  11.800  22.706  0.00  0.00    +0.000 A 
ATOM     25  C   UNL     1       8.784  13.152  22.870  0.00  0.00    +0.000 A 
ATOM     26  C   UNL     1       9.380  13.865  21.830  0.00  0.00    +0.000 A 
ATOM     27  C   UNL     1       9.680  13.224  20.622  0.00  0.00    +0.000 A 
ENDBRANCH  21  22
ENDBRANCH  19  21
ENDBRANCH  16  17
ENDBRANCH  15  16
ENDBRANCH   2  15
TORSDOF 8
ENDMDL
MODEL 8
REMARK VINA RESULT:      -6.7      4.045      7.063
REMARK  Name = 
REMARK  9 active torsions:
REMARK  status: ('A' for Active; 'I' for Inactive)
REMARK    1  A    between atoms: C_1  and  C_2
REMARK    2  A    between atoms: C_2  and  C_3
REMARK    3  A    between atoms: C_3  and  N_4
REMARK    4  A    between atoms: C_5  and  S_6
REMARK    5  A    between atoms: S_6  and  C_7
REMARK    6  A    between atoms: C_7  and  C_8
REMARK    7  A    between atoms: N_10  and  C_11
REMARK    8  A    between atoms: C_11  and  C_12
REMARK    9  A    between atoms: C_20  and  C_21
REMARK                            x       y       z     vdW  Elec       q    Type
REMARK                         _______ _______ _______ _____ _____    ______ ____
ROOT
ATOM      1  N   UNL     1       4.810   5.758  18.150  0.00  0.00    +0.000 N 
ATOM      2  C   UNL     1       6.186   5.833  18.139  0.00  0.00    +0.000 A 
ATOM      3  N   UNL     1       6.683   4.853  18.849  0.00  0.00    +0.000 NA
ATOM      4  N   UNL     1       5.630   4.107  19.322  0.00  0.00    +0.000 NA
ATOM      5  C   UNL     1       4.487   4.644  18.914  0.00  0.00    +0.000 A 
ENDROOT
BRANCH   5   6
ATOM      6  C   UNL     1       3.155   4.072  19.216  0.00  0.00    +0.000 A 
ATOM      7  C   UNL     1       2.451   4.283  20.405  0.00  0.00    +0.000 A 
ATOM      8  C   UNL     1       1.208   3.690  20.588  0.00  0.00    +0.000 A 
ATOM      9  N   UNL     1       0.621   2.895  19.678  0.00  0.00    +0.000 NA
ATOM     10  C   UNL     1       1.313   2.672  18.543  0.00  0.00    +0.000 A 
ATOM     11  C   UNL     1       2.558   3.225  18.273  0.00  0.00    +0.000 A 
ENDBRANCH   5   6
BRANCH   1  12
ATOM     12  C   UNL     1       3.897   6.634  17.445  0.00  0.00    +0.000 C 
BRANCH  12  14
ATOM     13  C   UNL     1       2.312   8.572  17.713  0.00  0.00    +0.000 C 
ATOM     14  C   UNL     1       2.956   7.377  18.396  0.00  0.00    +0.000 C 
ENDBRANCH  12  14
ENDBRANCH   1  12
BRANCH   2  15
ATOM     15  S   UNL     1       7.087   7.061  17.307  0.00  0.00    +0.000 S 
BRANCH  15  16
ATOM     16  C   UNL     1       8.229   7.657  18.594  0.00  0.00    +0.000 C 
BRANCH  16  17
ATOM     17  C   UNL     1       8.479   9.153  18.399  0.00  0.00    +0.000 C 
ATOM     18  O   UNL     1       7.860   9.817  17.570  0.00  0.00    +0.000 OA
ATOM     19  N   UNL     1       9.441   9.700  19.224  0.00  0.00    +0.000 N 
ATOM     20  H   UNL     1       9.873   9.121  19.932  0.00  0.00    +0.000 HD
BRANCH  19  21
ATOM     21  C   UNL     1       9.779  11.109  19.216  0.00  0.00    +0.000 C 
BRANCH  21  22
ATOM     22  C   UNL     1       9.201  11.820  20.414  0.00  0.00    +0.000 A 
ATOM     23  C   UNL     1       8.910  11.104  21.586  0.00  0.00    +0.000 A 
ATOM     24  C   UNL     1       8.370  11.750  22.700  0.00  0.00    +0.000 A 
ATOM     25  C   UNL     1       8.110  13.118  22.656  0.00  0.00    +0.000 A 
ATOM     26  C   UNL     1       8.391  13.843  21.498  0.00  0.00    +0.000 A 
ATOM     27  C   UNL     1       8.933  13.197  20.380  0.00  0.00    +0.000 A 
ENDBRANCH  21  22
ENDBRANCH  19  21
ENDBRANCH  16  17
ENDBRANCH  15  16
ENDBRANCH   2  15
TORSDOF 8
ENDMDL
MODEL 9
REMARK VINA RESULT:      -6.7      1.831      5.345
REMARK  Name = 
REMARK  9 active torsions:
REMARK  status: ('A' for Active; 'I' for Inactive)
REMARK    1  A    between atoms: C_1  and  C_2
REMARK    2  A    between atoms: C_2  and  C_3
REMARK    3  A    between atoms: C_3  and  N_4
REMARK    4  A    between atoms: C_5  and  S_6
REMARK    5  A    between atoms: S_6  and  C_7
REMARK    6  A    between atoms: C_7  and  C_8
REMARK    7  A    between atoms: N_10  and  C_11
REMARK    8  A    between atoms: C_11  and  C_12
REMARK    9  A    between atoms: C_20  and  C_21
REMARK                            x       y       z     vdW  Elec       q    Type
REMARK                         _______ _______ _______ _____ _____    ______ ____
ROOT
ATOM      1  N   UNL     1       2.820   4.732  19.315  0.00  0.00    +0.000 N 
ATOM      2  C   UNL     1       3.961   3.974  19.453  0.00  0.00    +0.000 A 
ATOM      3  N   UNL     1       4.998   4.762  19.585  0.00  0.00    +0.000 NA
ATOM      4  N   UNL     1       4.540   6.058  19.552  0.00  0.00    +0.000 NA
ATOM      5  C   UNL     1       3.224   6.060  19.383  0.00  0.00    +0.000 A 
ENDROOT
BRANCH   5   6
ATOM      6  C   UNL     1       2.402   7.291  19.337  0.00  0.00    +0.000 A 
ATOM      7  C   UNL     1       2.218   8.081  18.198  0.00  0.00    +0.000 A 
ATOM      8  C   UNL     1       1.431   9.224  18.269  0.00  0.00    +0.000 A 
ATOM      9  N   UNL     1       0.821   9.639  19.391  0.00  0.00    +0.000 NA
ATOM     10  C   UNL     1       1.020   8.890  20.494  0.00  0.00    +0.000 A 
ATOM     11  C   UNL     1       1.787   7.732  20.515  0.00  0.00    +0.000 A 
ENDBRANCH   5   6
BRANCH   1  12
ATOM     12  C   UNL     1       1.466   4.232  19.190  0.00  0.00    +0.000 C 
BRANCH  12  14
ATOM     13  C   UNL     1       1.207   2.941  21.336  0.00  0.00    +0.000 C 
ATOM     14  C   UNL     1       0.751   4.153  20.541  0.00  0.00    +0.000 C 
ENDBRANCH  12  14
ENDBRANCH   1  12
BRANCH   2  15
ATOM     15  S   UNL     1       3.984   2.238  19.441  0.00  0.00    +0.000 S 
BRANCH  15  16
ATOM     16  C   UNL     1       3.633   1.849  17.697  0.00  0.00    +0.000 C 
BRANCH  16  17
ATOM     17  C   UNL     1       4.136   2.991  16.811  0.00  0.00    +0.000 C 
ATOM     18  O   UNL     1       3.371   3.791  16.277  0.00  0.00    +0.000 OA
ATOM     19  N   UNL     1       5.508   3.059  16.664  0.00  0.00    +0.000 N 
ATOM     20  H   UNL     1       6.093   2.413  17.178  0.00  0.00    +0.000 HD
BRANCH  19  21
ATOM     21  C   UNL     1       6.168   4.100  15.903  0.00  0.00    +0.000 C 
BRANCH  21  22
ATOM     22  C   UNL     1       6.805   5.123  16.809  0.00  0.00    +0.000 A 
ATOM     23  C   UNL     1       6.594   6.492  16.585  0.00  0.00    +0.000 A 
ATOM     24  C   UNL     1       7.183   7.450  17.414  0.00  0.00    +0.000 A 
ATOM     25  C   UNL     1       7.994   7.051  18.475  0.00  0.00    +0.000 A 
ATOM     26  C   UNL     1       8.216   5.695  18.709  0.00  0.00    +0.000 A 
ATOM     27  C   UNL     1       7.626   4.733  17.879  0.00  0.00    +0.000 A 
ENDBRANCH  21  22
ENDBRANCH  19  21
ENDBRANCH  16  17
ENDBRANCH  15  16
ENDBRANCH   2  15
TORSDOF 8
ENDMDL
