MODEL 1
REMARK VINA RESULT:      -8.3      0.000      0.000
REMARK  Name = 
REMARK  8 active torsions:
REMARK  status: ('A' for Active; 'I' for Inactive)
REMARK    1  A    between atoms: C_1  and  C_2
REMARK    2  A    between atoms: N_10  and  C_11
REMARK    3  A    between atoms: N_14  and  C_15
REMARK    4  A    between atoms: C_15  and  C_16
REMARK    5  A    between atoms: C_16  and  C_17
REMARK    6  A    between atoms: C_17  and  N_18
REMARK    7  A    between atoms: C_17  and  C_25
REMARK    8  A    between atoms: C_19  and  C_21
REMARK                            x       y       z     vdW  Elec       q    Type
REMARK                         _______ _______ _______ _____ _____    ______ ____
ROOT
ATOM      1  C   UNL     1       2.605   7.579  17.943  0.00  0.00    +0.000 C 
ENDROOT
BRANCH   1   5
ATOM      2  C   UNL     1       4.573   4.289  18.415  0.00  0.00    +0.000 C 
ATOM      3  C   UNL     1       3.075   4.161  18.403  0.00  0.00    +0.000 C 
ATOM      4  C   UNL     1       2.090   5.174  17.910  0.00  0.00    +0.000 C 
ATOM      5  N   UNL     1       2.241   6.390  18.730  0.00  0.00    +0.000 NA
ATOM      6  C   UNL     1       3.243   6.124  19.793  0.00  0.00    +0.000 C 
ATOM      7  C   UNL     1       3.759   4.736  19.595  0.00  0.00    +0.000 C 
BRANCH   2  17
ATOM      8  C   UNL     1       7.037   5.662  19.516  0.00  0.00    +0.000 C 
ATOM      9  C   UNL     1       6.684   5.530  18.081  0.00  0.00    +0.000 A 
ATOM     10  N   UNL     1       7.555   5.631  17.097  0.00  0.00    +0.000 NA
ATOM     11  C   UNL     1       6.905   5.165  15.988  0.00  0.00    +0.000 A 
ATOM     12  C   UNL     1       7.436   4.842  14.733  0.00  0.00    +0.000 A 
ATOM     13  C   UNL     1       6.583   4.308  13.761  0.00  0.00    +0.000 A 
ATOM     14  C   UNL     1       5.218   4.173  14.012  0.00  0.00    +0.000 A 
ATOM     15  C   UNL     1       4.670   4.492  15.260  0.00  0.00    +0.000 A 
ATOM     16  C   UNL     1       5.556   4.937  16.250  0.00  0.00    +0.000 A 
ATOM     17  N   UNL     1       5.440   5.131  17.612  0.00  0.00    +0.000 N 
ENDBRANCH   2  17
ENDBRANCH   1   5
BRANCH   1  18
ATOM     18  C   UNL     1       2.026   8.979  18.293  0.00  0.00    +0.000 C 
BRANCH  18  19
ATOM     19  C   UNL     1       0.499   9.204  18.515  0.00  0.00    +0.000 C 
BRANCH  19  20
ATOM     20  C   UNL     1       0.256   9.653  19.975  0.00  0.00    +0.000 A 
ATOM     21  C   UNL     1       0.066   8.704  20.998  0.00  0.00    +0.000 A 
ATOM     22  C   UNL     1      -0.155   9.108  22.320  0.00  0.00    +0.000 A 
ATOM     23  C   UNL     1      -0.181  10.460  22.648  0.00  0.00    +0.000 A 
ATOM     24  C   UNL     1       0.040  11.404  21.672  0.00  0.00    +0.000 A 
ATOM     25  C   UNL     1       0.263  11.012  20.345  0.00  0.00    +0.000 A 
ENDBRANCH  19  20
BRANCH  19  26
ATOM     26  N   UNL     1      -0.314  10.031  17.598  0.00  0.00    +0.000 N 
ATOM     27  C   UNL     1      -1.696  10.059  17.519  0.00  0.00    +0.000 C 
ATOM     28  O   UNL     1      -2.395   9.621  18.439  0.00  0.00    +0.000 OA
ATOM     29  H   UNL     1       0.171  10.289  16.753  0.00  0.00    +0.000 HD
BRANCH  27  30
ATOM     30  C   UNL     1      -2.328  10.606  16.187  0.00  0.00    +0.000 C 
ATOM     31  C   UNL     1      -2.633   9.563  15.068  0.00  0.00    +0.000 C 
ATOM     32  C   UNL     1      -3.751  10.499  14.575  0.00  0.00    +0.000 C 
ATOM     33  C   UNL     1      -3.813  11.051  16.018  0.00  0.00    +0.000 C 
ENDBRANCH  27  30
ENDBRANCH  19  26
ENDBRANCH  18  19
ENDBRANCH   1  18
TORSDOF 7
ENDMDL
MODEL 2
REMARK VINA RESULT:      -7.7      2.863      8.774
REMARK  Name = 
REMARK  8 active torsions:
REMARK  status: ('A' for Active; 'I' for Inactive)
REMARK    1  A    between atoms: C_1  and  C_2
REMARK    2  A    between atoms: N_10  and  C_11
REMARK    3  A    between atoms: N_14  and  C_15
REMARK    4  A    between atoms: C_15  and  C_16
REMARK    5  A    between atoms: C_16  and  C_17
REMARK    6  A    between atoms: C_17  and  N_18
REMARK    7  A    between atoms: C_17  and  C_25
REMARK    8  A    between atoms: C_19  and  C_21
REMARK                            x       y       z     vdW  Elec       q    Type
REMARK                         _______ _______ _______ _____ _____    ______ ____
ROOT
ATOM      1  C   UNL     1       1.822   8.703  19.214  0.00  0.00    +0.000 C 
ENDROOT
BRANCH   1   5
ATOM      2  C   UNL     1      -0.161  11.377  21.173  0.00  0.00    +0.000 C 
ATOM      3  C   UNL     1       0.610  10.391  22.006  0.00  0.00    +0.000 C 
ATOM      4  C   UNL     1       1.709   9.487  21.542  0.00  0.00    +0.000 C 
ATOM      5  N   UNL     1       1.152   8.584  20.519  0.00  0.00    +0.000 NA
ATOM      6  C   UNL     1      -0.304   8.844  20.400  0.00  0.00    +0.000 C 
ATOM      7  C   UNL     1      -0.645   9.964  21.328  0.00  0.00    +0.000 C 
BRANCH   2  17
ATOM      8  C   UNL     1      -2.067  11.649  18.837  0.00  0.00    +0.000 C 
ATOM      9  C   UNL     1      -0.766  12.349  18.984  0.00  0.00    +0.000 A 
ATOM     10  N   UNL     1      -0.449  13.455  18.340  0.00  0.00    +0.000 NA
ATOM     11  C   UNL     1       0.675  13.924  18.958  0.00  0.00    +0.000 A 
ATOM     12  C   UNL     1       1.293  15.175  18.823  0.00  0.00    +0.000 A 
ATOM     13  C   UNL     1       2.405  15.464  19.620  0.00  0.00    +0.000 A 
ATOM     14  C   UNL     1       2.935  14.498  20.475  0.00  0.00    +0.000 A 
ATOM     15  C   UNL     1       2.332  13.243  20.622  0.00  0.00    +0.000 A 
ATOM     16  C   UNL     1       1.165  13.007  19.885  0.00  0.00    +0.000 A 
ATOM     17  N   UNL     1       0.200  12.020  19.924  0.00  0.00    +0.000 N 
ENDBRANCH   2  17
ENDBRANCH   1   5
BRANCH   1  18
ATOM     18  C   UNL     1       1.992   7.467  18.285  0.00  0.00    +0.000 C 
BRANCH  18  19
ATOM     19  C   UNL     1       3.043   6.353  18.584  0.00  0.00    +0.000 C 
BRANCH  19  20
ATOM     20  C   UNL     1       2.333   5.145  19.238  0.00  0.00    +0.000 A 
ATOM     21  C   UNL     1       2.345   4.973  20.636  0.00  0.00    +0.000 A 
ATOM     22  C   UNL     1       1.705   3.878  21.230  0.00  0.00    +0.000 A 
ATOM     23  C   UNL     1       1.036   2.944  20.446  0.00  0.00    +0.000 A 
ATOM     24  C   UNL     1       0.979   3.112  19.082  0.00  0.00    +0.000 A 
ATOM     25  C   UNL     1       1.615   4.204  18.475  0.00  0.00    +0.000 A 
ENDBRANCH  19  20
BRANCH  19  26
ATOM     26  N   UNL     1       3.995   5.878  17.558  0.00  0.00    +0.000 N 
ATOM     27  C   UNL     1       5.369   5.781  17.691  0.00  0.00    +0.000 C 
ATOM     28  O   UNL     1       5.903   5.786  18.805  0.00  0.00    +0.000 OA
ATOM     29  H   UNL     1       3.660   5.994  16.614  0.00  0.00    +0.000 HD
BRANCH  27  30
ATOM     30  C   UNL     1       6.217   5.734  16.367  0.00  0.00    +0.000 C 
ATOM     31  C   UNL     1       7.040   4.436  16.101  0.00  0.00    +0.000 C 
ATOM     32  C   UNL     1       6.920   4.734  14.595  0.00  0.00    +0.000 C 
ATOM     33  C   UNL     1       5.634   5.522  14.937  0.00  0.00    +0.000 C 
ENDBRANCH  27  30
ENDBRANCH  19  26
ENDBRANCH  18  19
ENDBRANCH   1  18
TORSDOF 7
ENDMDL
MODEL 3
REMARK VINA RESULT:      -7.7      2.682      4.351
REMARK  Name = 
REMARK  8 active torsions:
REMARK  status: ('A' for Active; 'I' for Inactive)
REMARK    1  A    between atoms: C_1  and  C_2
REMARK    2  A    between atoms: N_10  and  C_11
REMARK    3  A    between atoms: N_14  and  C_15
REMARK    4  A    between atoms: C_15  and  C_16
REMARK    5  A    between atoms: C_16  and  C_17
REMARK    6  A    between atoms: C_17  and  N_18
REMARK    7  A    between atoms: C_17  and  C_25
REMARK    8  A    between atoms: C_19  and  C_21
REMARK                            x       y       z     vdW  Elec       q    Type
REMARK                         _______ _______ _______ _____ _____    ______ ____
ROOT
ATOM      1  C   UNL     1       3.512   6.516  17.760  0.00  0.00    +0.000 C 
ENDROOT
BRANCH   1   5
ATOM      2  C   UNL     1       5.487   3.412  16.583  0.00  0.00    +0.000 C 
ATOM      3  C   UNL     1       4.109   3.146  17.122  0.00  0.00    +0.000 C 
ATOM      4  C   UNL     1       3.014   4.147  17.323  0.00  0.00    +0.000 C 
ATOM      5  N   UNL     1       3.487   5.147  18.299  0.00  0.00    +0.000 NA
ATOM      6  C   UNL     1       4.829   4.737  18.784  0.00  0.00    +0.000 C 
ATOM      7  C   UNL     1       5.215   3.490  18.057  0.00  0.00    +0.000 C 
BRANCH   2  17
ATOM      8  C   UNL     1       7.436   5.516  17.552  0.00  0.00    +0.000 C 
ATOM      9  C   UNL     1       7.039   5.283  16.140  0.00  0.00    +0.000 A 
ATOM     10  N   UNL     1       7.752   5.671  15.102  0.00  0.00    +0.000 NA
ATOM     11  C   UNL     1       7.210   5.023  14.028  0.00  0.00    +0.000 A 
ATOM     12  C   UNL     1       7.721   4.900  12.729  0.00  0.00    +0.000 A 
ATOM     13  C   UNL     1       7.022   4.119  11.803  0.00  0.00    +0.000 A 
ATOM     14  C   UNL     1       5.800   3.539  12.145  0.00  0.00    +0.000 A 
ATOM     15  C   UNL     1       5.274   3.652  13.437  0.00  0.00    +0.000 A 
ATOM     16  C   UNL     1       6.035   4.360  14.375  0.00  0.00    +0.000 A 
ATOM     17  N   UNL     1       5.965   4.498  15.748  0.00  0.00    +0.000 N 
ENDBRANCH   2  17
ENDBRANCH   1   5
BRANCH   1  18
ATOM     18  C   UNL     1       2.795   7.681  18.499  0.00  0.00    +0.000 C 
BRANCH  18  19
ATOM     19  C   UNL     1       2.015   7.452  19.831  0.00  0.00    +0.000 C 
BRANCH  19  20
ATOM     20  C   UNL     1       1.098   8.667  20.100  0.00  0.00    +0.000 A 
ATOM     21  C   UNL     1       0.579   8.906  21.387  0.00  0.00    +0.000 A 
ATOM     22  C   UNL     1      -0.253  10.005  21.633  0.00  0.00    +0.000 A 
ATOM     23  C   UNL     1      -0.576  10.887  20.607  0.00  0.00    +0.000 A 
ATOM     24  C   UNL     1      -0.050  10.695  19.350  0.00  0.00    +0.000 A 
ATOM     25  C   UNL     1       0.785   9.599  19.092  0.00  0.00    +0.000 A 
ENDBRANCH  19  20
BRANCH  19  26
ATOM     26  N   UNL     1       1.277   6.199  20.102  0.00  0.00    +0.000 N 
ATOM     27  C   UNL     1       1.731   5.119  20.839  0.00  0.00    +0.000 C 
ATOM     28  O   UNL     1       2.687   5.232  21.613  0.00  0.00    +0.000 OA
ATOM     29  H   UNL     1       0.580   5.984  19.406  0.00  0.00    +0.000 HD
BRANCH  27  30
ATOM     30  C   UNL     1       1.023   3.735  20.596  0.00  0.00    +0.000 C 
ATOM     31  C   UNL     1       0.487   3.458  19.158  0.00  0.00    +0.000 C 
ATOM     32  C   UNL     1       0.677   1.956  19.435  0.00  0.00    +0.000 C 
ATOM     33  C   UNL     1       1.757   2.365  20.464  0.00  0.00    +0.000 C 
ENDBRANCH  27  30
ENDBRANCH  19  26
ENDBRANCH  18  19
ENDBRANCH   1  18
TORSDOF 7
ENDMDL
MODEL 4
REMARK VINA RESULT:      -7.6      1.296      1.826
REMARK  Name = 
REMARK  8 active torsions:
REMARK  status: ('A' for Active; 'I' for Inactive)
REMARK    1  A    between atoms: C_1  and  C_2
REMARK    2  A    between atoms: N_10  and  C_11
REMARK    3  A    between atoms: N_14  and  C_15
REMARK    4  A    between atoms: C_15  and  C_16
REMARK    5  A    between atoms: C_16  and  C_17
REMARK    6  A    between atoms: C_17  and  N_18
REMARK    7  A    between atoms: C_17  and  C_25
REMARK    8  A    between atoms: C_19  and  C_21
REMARK                            x       y       z     vdW  Elec       q    Type
REMARK                         _______ _______ _______ _____ _____    ______ ____
ROOT
ATOM      1  C   UNL     1       2.440   7.510  17.516  0.00  0.00    +0.000 C 
ENDROOT
BRANCH   1   5
ATOM      2  C   UNL     1       4.585   4.482  18.589  0.00  0.00    +0.000 C 
ATOM      3  C   UNL     1       3.102   4.241  18.511  0.00  0.00    +0.000 C 
ATOM      4  C   UNL     1       2.088   5.094  17.816  0.00  0.00    +0.000 C 
ATOM      5  N   UNL     1       2.103   6.426  18.451  0.00  0.00    +0.000 NA
ATOM      6  C   UNL     1       3.046   6.393  19.597  0.00  0.00    +0.000 C 
ATOM      7  C   UNL     1       3.665   5.034  19.640  0.00  0.00    +0.000 C 
BRANCH   2  17
ATOM      8  C   UNL     1       7.115   5.840  19.546  0.00  0.00    +0.000 C 
ATOM      9  C   UNL     1       6.714   5.648  18.130  0.00  0.00    +0.000 A 
ATOM     10  N   UNL     1       7.556   5.677  17.116  0.00  0.00    +0.000 NA
ATOM     11  C   UNL     1       6.860   5.176  16.053  0.00  0.00    +0.000 A 
ATOM     12  C   UNL     1       7.342   4.778  14.799  0.00  0.00    +0.000 A 
ATOM     13  C   UNL     1       6.446   4.220  13.881  0.00  0.00    +0.000 A 
ATOM     14  C   UNL     1       5.086   4.135  14.180  0.00  0.00    +0.000 A 
ATOM     15  C   UNL     1       4.587   4.528  15.427  0.00  0.00    +0.000 A 
ATOM     16  C   UNL     1       5.514   4.997  16.366  0.00  0.00    +0.000 A 
ATOM     17  N   UNL     1       5.446   5.260  17.720  0.00  0.00    +0.000 N 
ENDBRANCH   2  17
ENDBRANCH   1   5
BRANCH   1  18
ATOM     18  C   UNL     1       2.495   8.990  17.992  0.00  0.00    +0.000 C 
BRANCH  18  19
ATOM     19  C   UNL     1       1.210   9.762  18.423  0.00  0.00    +0.000 C 
BRANCH  19  20
ATOM     20  C   UNL     1       1.605  11.166  18.934  0.00  0.00    +0.000 A 
ATOM     21  C   UNL     1       1.280  11.575  20.242  0.00  0.00    +0.000 A 
ATOM     22  C   UNL     1       1.636  12.848  20.706  0.00  0.00    +0.000 A 
ATOM     23  C   UNL     1       2.328  13.729  19.882  0.00  0.00    +0.000 A 
ATOM     24  C   UNL     1       2.690  13.337  18.614  0.00  0.00    +0.000 A 
ATOM     25  C   UNL     1       2.341  12.066  18.138  0.00  0.00    +0.000 A 
ENDBRANCH  19  20
BRANCH  19  26
ATOM     26  N   UNL     1       0.026   9.866  17.544  0.00  0.00    +0.000 N 
ATOM     27  C   UNL     1      -1.274  10.127  17.939  0.00  0.00    +0.000 C 
ATOM     28  O   UNL     1      -1.517  10.617  19.048  0.00  0.00    +0.000 OA
ATOM     29  H   UNL     1       0.119   9.351  16.681  0.00  0.00    +0.000 HD
BRANCH  27  30
ATOM     30  C   UNL     1      -2.424   9.713  16.950  0.00  0.00    +0.000 C 
ATOM     31  C   UNL     1      -3.601  10.720  16.771  0.00  0.00    +0.000 C 
ATOM     32  C   UNL     1      -3.810  10.142  15.359  0.00  0.00    +0.000 C 
ATOM     33  C   UNL     1      -2.318   9.735  15.394  0.00  0.00    +0.000 C 
ENDBRANCH  27  30
ENDBRANCH  19  26
ENDBRANCH  18  19
ENDBRANCH   1  18
TORSDOF 7
ENDMDL
MODEL 5
REMARK VINA RESULT:      -7.5      2.248      2.596
REMARK  Name = 
REMARK  8 active torsions:
REMARK  status: ('A' for Active; 'I' for Inactive)
REMARK    1  A    between atoms: C_1  and  C_2
REMARK    2  A    between atoms: N_10  and  C_11
REMARK    3  A    between atoms: N_14  and  C_15
REMARK    4  A    between atoms: C_15  and  C_16
REMARK    5  A    between atoms: C_16  and  C_17
REMARK    6  A    between atoms: C_17  and  N_18
REMARK    7  A    between atoms: C_17  and  C_25
REMARK    8  A    between atoms: C_19  and  C_21
REMARK                            x       y       z     vdW  Elec       q    Type
REMARK                         _______ _______ _______ _____ _____    ______ ____
ROOT
ATOM      1  C   UNL     1       2.454   7.382  17.886  0.00  0.00    +0.000 C 
ENDROOT
BRANCH   1   5
ATOM      2  C   UNL     1       4.592   4.207  18.397  0.00  0.00    +0.000 C 
ATOM      3  C   UNL     1       3.103   3.998  18.376  0.00  0.00    +0.000 C 
ATOM      4  C   UNL     1       2.069   4.953  17.868  0.00  0.00    +0.000 C 
ATOM      5  N   UNL     1       2.149   6.182  18.680  0.00  0.00    +0.000 NA
ATOM      6  C   UNL     1       3.156   5.977  19.751  0.00  0.00    +0.000 C 
ATOM      7  C   UNL     1       3.747   4.618  19.567  0.00  0.00    +0.000 C 
BRANCH   2  17
ATOM      8  C   UNL     1       6.997   5.682  19.494  0.00  0.00    +0.000 C 
ATOM      9  C   UNL     1       6.645   5.539  18.059  0.00  0.00    +0.000 A 
ATOM     10  N   UNL     1       7.508   5.680  17.072  0.00  0.00    +0.000 NA
ATOM     11  C   UNL     1       6.875   5.190  15.965  0.00  0.00    +0.000 A 
ATOM     12  C   UNL     1       7.415   4.893  14.706  0.00  0.00    +0.000 A 
ATOM     13  C   UNL     1       6.583   4.325  13.736  0.00  0.00    +0.000 A 
ATOM     14  C   UNL     1       5.225   4.131  13.992  0.00  0.00    +0.000 A 
ATOM     15  C   UNL     1       4.669   4.422  15.243  0.00  0.00    +0.000 A 
ATOM     16  C   UNL     1       5.538   4.903  16.230  0.00  0.00    +0.000 A 
ATOM     17  N   UNL     1       5.419   5.088  17.593  0.00  0.00    +0.000 N 
ENDBRANCH   2  17
ENDBRANCH   1   5
BRANCH   1  18
ATOM     18  C   UNL     1       2.409   8.799  18.525  0.00  0.00    +0.000 C 
BRANCH  18  19
ATOM     19  C   UNL     1       1.066   9.567  18.726  0.00  0.00    +0.000 C 
BRANCH  19  20
ATOM     20  C   UNL     1       0.682   9.542  20.223  0.00  0.00    +0.000 A 
ATOM     21  C   UNL     1       1.484   8.863  21.161  0.00  0.00    +0.000 A 
ATOM     22  C   UNL     1       1.137   8.838  22.518  0.00  0.00    +0.000 A 
ATOM     23  C   UNL     1      -0.006   9.493  22.964  0.00  0.00    +0.000 A 
ATOM     24  C   UNL     1      -0.784  10.194  22.072  0.00  0.00    +0.000 A 
ATOM     25  C   UNL     1      -0.447  10.228  20.712  0.00  0.00    +0.000 A 
ENDBRANCH  19  20
BRANCH  19  26
ATOM     26  N   UNL     1       0.849  10.923  18.178  0.00  0.00    +0.000 N 
ATOM     27  C   UNL     1       1.474  12.087  18.589  0.00  0.00    +0.000 C 
ATOM     28  O   UNL     1       2.518  12.052  19.249  0.00  0.00    +0.000 OA
ATOM     29  H   UNL     1      -0.059  11.046  17.757  0.00  0.00    +0.000 HD
BRANCH  27  30
ATOM     30  C   UNL     1       0.763  13.446  18.239  0.00  0.00    +0.000 C 
ATOM     31  C   UNL     1      -0.604  13.729  18.932  0.00  0.00    +0.000 C 
ATOM     32  C   UNL     1      -0.303  15.232  18.794  0.00  0.00    +0.000 C 
ATOM     33  C   UNL     1       1.195  14.846  18.773  0.00  0.00    +0.000 C 
ENDBRANCH  27  30
ENDBRANCH  19  26
ENDBRANCH  18  19
ENDBRANCH   1  18
TORSDOF 7
ENDMDL
MODEL 6
REMARK VINA RESULT:      -7.5      9.208     11.023
REMARK  Name = 
REMARK  8 active torsions:
REMARK  status: ('A' for Active; 'I' for Inactive)
REMARK    1  A    between atoms: C_1  and  C_2
REMARK    2  A    between atoms: N_10  and  C_11
REMARK    3  A    between atoms: N_14  and  C_15
REMARK    4  A    between atoms: C_15  and  C_16
REMARK    5  A    between atoms: C_16  and  C_17
REMARK    6  A    between atoms: C_17  and  N_18
REMARK    7  A    between atoms: C_17  and  C_25
REMARK    8  A    between atoms: C_19  and  C_21
REMARK                            x       y       z     vdW  Elec       q    Type
REMARK                         _______ _______ _______ _____ _____    ______ ____
ROOT
ATOM      1  C   UNL     1       8.318  12.407  17.681  0.00  0.00    +0.000 C 
ENDROOT
BRANCH   1   5
ATOM      2  C   UNL     1      10.970  12.097  20.472  0.00  0.00    +0.000 C 
ATOM      3  C   UNL     1      11.379  11.585  19.119  0.00  0.00    +0.000 C 
ATOM      4  C   UNL     1      10.716  11.875  17.810  0.00  0.00    +0.000 C 
ATOM      5  N   UNL     1       9.335  11.362  17.876  0.00  0.00    +0.000 NA
ATOM      6  C   UNL     1       9.150  10.669  19.176  0.00  0.00    +0.000 C 
ATOM      7  C   UNL     1      10.422  10.802  19.949  0.00  0.00    +0.000 C 
BRANCH   2  17
ATOM      8  C   UNL     1       8.612  12.013  22.369  0.00  0.00    +0.000 C 
ATOM      9  C   UNL     1       9.291  13.239  21.881  0.00  0.00    +0.000 A 
ATOM     10  N   UNL     1       9.231  14.406  22.491  0.00  0.00    +0.000 NA
ATOM     11  C   UNL     1      10.201  15.170  21.907  0.00  0.00    +0.000 A 
ATOM     12  C   UNL     1      10.714  16.405  22.326  0.00  0.00    +0.000 A 
ATOM     13  C   UNL     1      11.768  16.974  21.603  0.00  0.00    +0.000 A 
ATOM     14  C   UNL     1      12.245  16.362  20.444  0.00  0.00    +0.000 A 
ATOM     15  C   UNL     1      11.744  15.129  20.011  0.00  0.00    +0.000 A 
ATOM     16  C   UNL     1      10.754  14.531  20.800  0.00  0.00    +0.000 A 
ATOM     17  N   UNL     1      10.191  13.269  20.825  0.00  0.00    +0.000 N 
ENDBRANCH   2  17
ENDBRANCH   1   5
BRANCH   1  18
ATOM     18  C   UNL     1       8.727  13.888  17.445  0.00  0.00    +0.000 C 
BRANCH  18  19
ATOM     19  C   UNL     1       8.167  15.045  18.330  0.00  0.00    +0.000 C 
BRANCH  19  20
ATOM     20  C   UNL     1       9.037  16.307  18.129  0.00  0.00    +0.000 A 
ATOM     21  C   UNL     1       8.797  17.475  18.879  0.00  0.00    +0.000 A 
ATOM     22  C   UNL     1       9.583  18.620  18.697  0.00  0.00    +0.000 A 
ATOM     23  C   UNL     1      10.624  18.619  17.775  0.00  0.00    +0.000 A 
ATOM     24  C   UNL     1      10.902  17.478  17.059  0.00  0.00    +0.000 A 
ATOM     25  C   UNL     1      10.124  16.325  17.233  0.00  0.00    +0.000 A 
ENDBRANCH  19  20
BRANCH  19  26
ATOM     26  N   UNL     1       6.737  15.418  18.321  0.00  0.00    +0.000 N 
ATOM     27  C   UNL     1       5.808  15.145  19.310  0.00  0.00    +0.000 C 
ATOM     28  O   UNL     1       6.165  14.835  20.452  0.00  0.00    +0.000 OA
ATOM     29  H   UNL     1       6.358  15.536  17.394  0.00  0.00    +0.000 HD
BRANCH  27  30
ATOM     30  C   UNL     1       4.290  15.180  18.899  0.00  0.00    +0.000 C 
ATOM     31  C   UNL     1       3.499  16.484  19.227  0.00  0.00    +0.000 C 
ATOM     32  C   UNL     1       2.576  16.158  18.038  0.00  0.00    +0.000 C 
ATOM     33  C   UNL     1       3.760  15.360  17.444  0.00  0.00    +0.000 C 
ENDBRANCH  27  30
ENDBRANCH  19  26
ENDBRANCH  18  19
ENDBRANCH   1  18
TORSDOF 7
ENDMDL
MODEL 7
REMARK VINA RESULT:      -7.5      2.296      8.662
REMARK  Name = 
REMARK  8 active torsions:
REMARK  status: ('A' for Active; 'I' for Inactive)
REMARK    1  A    between atoms: C_1  and  C_2
REMARK    2  A    between atoms: N_10  and  C_11
REMARK    3  A    between atoms: N_14  and  C_15
REMARK    4  A    between atoms: C_15  and  C_16
REMARK    5  A    between atoms: C_16  and  C_17
REMARK    6  A    between atoms: C_17  and  N_18
REMARK    7  A    between atoms: C_17  and  C_25
REMARK    8  A    between atoms: C_19  and  C_21
REMARK                            x       y       z     vdW  Elec       q    Type
REMARK                         _______ _______ _______ _____ _____    ______ ____
ROOT
ATOM      1  C   UNL     1       0.263   8.794  20.806  0.00  0.00    +0.000 C 
ENDROOT
BRANCH   1   5
ATOM      2  C   UNL     1      -0.221  12.198  19.047  0.00  0.00    +0.000 C 
ATOM      3  C   UNL     1       1.068  11.484  18.749  0.00  0.00    +0.000 C 
ATOM      4  C   UNL     1       1.375  10.041  19.002  0.00  0.00    +0.000 C 
ATOM      5  N   UNL     1       1.274   9.803  20.454  0.00  0.00    +0.000 NA
ATOM      6  C   UNL     1       0.999  11.096  21.128  0.00  0.00    +0.000 C 
ATOM      7  C   UNL     1       0.876  12.144  20.070  0.00  0.00    +0.000 C 
BRANCH   2  17
ATOM      8  C   UNL     1      -2.218  13.311  21.031  0.00  0.00    +0.000 C 
ATOM      9  C   UNL     1      -2.521  12.357  19.935  0.00  0.00    +0.000 A 
ATOM     10  N   UNL     1      -3.726  12.174  19.431  0.00  0.00    +0.000 NA
ATOM     11  C   UNL     1      -3.533  11.460  18.282  0.00  0.00    +0.000 A 
ATOM     12  C   UNL     1      -4.444  11.196  17.251  0.00  0.00    +0.000 A 
ATOM     13  C   UNL     1      -3.999  10.498  16.124  0.00  0.00    +0.000 A 
ATOM     14  C   UNL     1      -2.694  10.008  16.063  0.00  0.00    +0.000 A 
ATOM     15  C   UNL     1      -1.770  10.262  17.084  0.00  0.00    +0.000 A 
ATOM     16  C   UNL     1      -2.210  11.042  18.161  0.00  0.00    +0.000 A 
ATOM     17  N   UNL     1      -1.562  11.667  19.208  0.00  0.00    +0.000 N 
ENDBRANCH   2  17
ENDBRANCH   1   5
BRANCH   1  18
ATOM     18  C   UNL     1       0.501   7.285  20.516  0.00  0.00    +0.000 C 
BRANCH  18  19
ATOM     19  C   UNL     1       1.910   6.633  20.664  0.00  0.00    +0.000 C 
BRANCH  19  20
ATOM     20  C   UNL     1       1.760   5.094  20.697  0.00  0.00    +0.000 A 
ATOM     21  C   UNL     1       0.887   4.437  19.809  0.00  0.00    +0.000 A 
ATOM     22  C   UNL     1       0.748   3.044  19.837  0.00  0.00    +0.000 A 
ATOM     23  C   UNL     1       1.480   2.283  20.742  0.00  0.00    +0.000 A 
ATOM     24  C   UNL     1       2.368   2.899  21.593  0.00  0.00    +0.000 A 
ATOM     25  C   UNL     1       2.517   4.293  21.574  0.00  0.00    +0.000 A 
ENDBRANCH  19  20
BRANCH  19  26
ATOM     26  N   UNL     1       3.043   7.005  19.790  0.00  0.00    +0.000 N 
ATOM     27  C   UNL     1       3.088   6.901  18.411  0.00  0.00    +0.000 C 
ATOM     28  O   UNL     1       2.053   6.779  17.747  0.00  0.00    +0.000 OA
ATOM     29  H   UNL     1       3.937   6.972  20.255  0.00  0.00    +0.000 HD
BRANCH  27  30
ATOM     30  C   UNL     1       4.510   6.875  17.738  0.00  0.00    +0.000 C 
ATOM     31  C   UNL     1       5.518   5.804  18.255  0.00  0.00    +0.000 C 
ATOM     32  C   UNL     1       6.182   5.836  16.867  0.00  0.00    +0.000 C 
ATOM     33  C   UNL     1       4.818   6.314  16.316  0.00  0.00    +0.000 C 
ENDBRANCH  27  30
ENDBRANCH  19  26
ENDBRANCH  18  19
ENDBRANCH   1  18
TORSDOF 7
ENDMDL
MODEL 8
REMARK VINA RESULT:      -7.4      4.740      8.368
REMARK  Name = 
REMARK  8 active torsions:
REMARK  status: ('A' for Active; 'I' for Inactive)
REMARK    1  A    between atoms: C_1  and  C_2
REMARK    2  A    between atoms: N_10  and  C_11
REMARK    3  A    between atoms: N_14  and  C_15
REMARK    4  A    between atoms: C_15  and  C_16
REMARK    5  A    between atoms: C_16  and  C_17
REMARK    6  A    between atoms: C_17  and  N_18
REMARK    7  A    between atoms: C_17  and  C_25
REMARK    8  A    between atoms: C_19  and  C_21
REMARK                            x       y       z     vdW  Elec       q    Type
REMARK                         _______ _______ _______ _____ _____    ______ ____
ROOT
ATOM      1  C   UNL     1       1.304  13.825  20.009  0.00  0.00    +0.000 C 
ENDROOT
BRANCH   1   5
ATOM      2  C   UNL     1      -1.101  10.805  19.878  0.00  0.00    +0.000 C 
ATOM      3  C   UNL     1      -1.336  11.876  18.849  0.00  0.00    +0.000 C 
ATOM      4  C   UNL     1      -0.386  12.960  18.446  0.00  0.00    +0.000 C 
ATOM      5  N   UNL     1      -0.118  13.793  19.633  0.00  0.00    +0.000 NA
ATOM      6  C   UNL     1      -0.959  13.304  20.754  0.00  0.00    +0.000 C 
ATOM      7  C   UNL     1      -1.721  12.115  20.267  0.00  0.00    +0.000 C 
BRANCH   2  17
ATOM      8  C   UNL     1      -0.670  10.111  22.792  0.00  0.00    +0.000 C 
ATOM      9  C   UNL     1       0.219   9.729  21.667  0.00  0.00    +0.000 A 
ATOM     10  N   UNL     1       1.077   8.729  21.715  0.00  0.00    +0.000 NA
ATOM     11  C   UNL     1       1.472   8.529  20.422  0.00  0.00    +0.000 A 
ATOM     12  C   UNL     1       2.191   7.455  19.882  0.00  0.00    +0.000 A 
ATOM     13  C   UNL     1       2.419   7.426  18.502  0.00  0.00    +0.000 A 
ATOM     14  C   UNL     1       2.007   8.485  17.693  0.00  0.00    +0.000 A 
ATOM     15  C   UNL     1       1.287   9.566  18.215  0.00  0.00    +0.000 A 
ATOM     16  C   UNL     1       0.988   9.531  19.583  0.00  0.00    +0.000 A 
ATOM     17  N   UNL     1       0.145  10.268  20.391  0.00  0.00    +0.000 N 
ENDBRANCH   2  17
ENDBRANCH   1   5
BRANCH   1  18
ATOM     18  C   UNL     1       2.053  15.175  20.197  0.00  0.00    +0.000 C 
BRANCH  18  19
ATOM     19  C   UNL     1       1.293  16.497  20.526  0.00  0.00    +0.000 C 
BRANCH  19  20
ATOM     20  C   UNL     1       0.816  17.153  19.210  0.00  0.00    +0.000 A 
ATOM     21  C   UNL     1      -0.538  17.491  19.023  0.00  0.00    +0.000 A 
ATOM     22  C   UNL     1      -0.972  18.084  17.831  0.00  0.00    +0.000 A 
ATOM     23  C   UNL     1      -0.068  18.357  16.810  0.00  0.00    +0.000 A 
ATOM     24  C   UNL     1       1.267  18.070  16.985  0.00  0.00    +0.000 A 
ATOM     25  C   UNL     1       1.714  17.477  18.174  0.00  0.00    +0.000 A 
ENDBRANCH  19  20
BRANCH  19  26
ATOM     26  N   UNL     1       0.210  16.549  21.531  0.00  0.00    +0.000 N 
ATOM     27  C   UNL     1       0.335  16.322  22.890  0.00  0.00    +0.000 C 
ATOM     28  O   UNL     1       1.439  16.365  23.444  0.00  0.00    +0.000 OA
ATOM     29  H   UNL     1      -0.705  16.367  21.146  0.00  0.00    +0.000 HD
BRANCH  27  30
ATOM     30  C   UNL     1      -0.971  15.943  23.680  0.00  0.00    +0.000 C 
ATOM     31  C   UNL     1      -2.315  15.997  22.891  0.00  0.00    +0.000 C 
ATOM     32  C   UNL     1      -2.860  14.924  23.851  0.00  0.00    +0.000 C 
ATOM     33  C   UNL     1      -1.391  14.493  24.072  0.00  0.00    +0.000 C 
ENDBRANCH  27  30
ENDBRANCH  19  26
ENDBRANCH  18  19
ENDBRANCH   1  18
TORSDOF 7
ENDMDL
MODEL 9
REMARK VINA RESULT:      -7.4      4.678      8.228
REMARK  Name = 
REMARK  8 active torsions:
REMARK  status: ('A' for Active; 'I' for Inactive)
REMARK    1  A    between atoms: C_1  and  C_2
REMARK    2  A    between atoms: N_10  and  C_11
REMARK    3  A    between atoms: N_14  and  C_15
REMARK    4  A    between atoms: C_15  and  C_16
REMARK    5  A    between atoms: C_16  and  C_17
REMARK    6  A    between atoms: C_17  and  N_18
REMARK    7  A    between atoms: C_17  and  C_25
REMARK    8  A    between atoms: C_19  and  C_21
REMARK                            x       y       z     vdW  Elec       q    Type
REMARK                         _______ _______ _______ _____ _____    ______ ____
ROOT
ATOM      1  C   UNL     1       1.484  13.496  19.968  0.00  0.00    +0.000 C 
ENDROOT
BRANCH   1   5
ATOM      2  C   UNL     1      -0.942  10.496  19.801  0.00  0.00    +0.000 C 
ATOM      3  C   UNL     1      -1.161  11.574  18.776  0.00  0.00    +0.000 C 
ATOM      4  C   UNL     1      -0.199  12.652  18.386  0.00  0.00    +0.000 C 
ATOM      5  N   UNL     1       0.066  13.477  19.580  0.00  0.00    +0.000 NA
ATOM      6  C   UNL     1      -0.789  12.989  20.692  0.00  0.00    +0.000 C 
ATOM      7  C   UNL     1      -1.556  11.809  20.192  0.00  0.00    +0.000 C 
BRANCH   2  17
ATOM      8  C   UNL     1      -0.564   9.723  22.703  0.00  0.00    +0.000 C 
ATOM      9  C   UNL     1       0.347   9.373  21.584  0.00  0.00    +0.000 A 
ATOM     10  N   UNL     1       1.205   8.373  21.620  0.00  0.00    +0.000 NA
ATOM     11  C   UNL     1       1.623   8.209  20.330  0.00  0.00    +0.000 A 
ATOM     12  C   UNL     1       2.354   7.151  19.773  0.00  0.00    +0.000 A 
ATOM     13  C   UNL     1       2.608   7.160  18.398  0.00  0.00    +0.000 A 
ATOM     14  C   UNL     1       2.208   8.239  17.610  0.00  0.00    +0.000 A 
ATOM     15  C   UNL     1       1.477   9.305  18.149  0.00  0.00    +0.000 A 
ATOM     16  C   UNL     1       1.153   9.232  19.510  0.00  0.00    +0.000 A 
ATOM     17  N   UNL     1       0.295   9.946  20.322  0.00  0.00    +0.000 N 
ENDBRANCH   2  17
ENDBRANCH   1   5
BRANCH   1  18
ATOM     18  C   UNL     1       2.300  14.819  19.958  0.00  0.00    +0.000 C 
BRANCH  18  19
ATOM     19  C   UNL     1       1.634  16.197  20.261  0.00  0.00    +0.000 C 
BRANCH  19  20
ATOM     20  C   UNL     1       1.397  16.952  18.933  0.00  0.00    +0.000 A 
ATOM     21  C   UNL     1       2.377  16.957  17.922  0.00  0.00    +0.000 A 
ATOM     22  C   UNL     1       2.164  17.641  16.719  0.00  0.00    +0.000 A 
ATOM     23  C   UNL     1       0.973  18.324  16.499  0.00  0.00    +0.000 A 
ATOM     24  C   UNL     1      -0.015  18.303  17.457  0.00  0.00    +0.000 A 
ATOM     25  C   UNL     1       0.185  17.620  18.665  0.00  0.00    +0.000 A 
ENDBRANCH  19  20
BRANCH  19  26
ATOM     26  N   UNL     1       0.440  16.318  21.124  0.00  0.00    +0.000 N 
ATOM     27  C   UNL     1       0.375  16.060  22.482  0.00  0.00    +0.000 C 
ATOM     28  O   UNL     1       1.400  16.008  23.170  0.00  0.00    +0.000 OA
ATOM     29  H   UNL     1      -0.430  16.214  20.624  0.00  0.00    +0.000 HD
BRANCH  27  30
ATOM     30  C   UNL     1      -1.046  15.771  23.092  0.00  0.00    +0.000 C 
ATOM     31  C   UNL     1      -1.187  14.501  23.986  0.00  0.00    +0.000 C 
ATOM     32  C   UNL     1      -2.337  15.213  24.722  0.00  0.00    +0.000 C 
ATOM     33  C   UNL     1      -1.681  16.545  24.288  0.00  0.00    +0.000 C 
ENDBRANCH  27  30
ENDBRANCH  19  26
ENDBRANCH  18  19
ENDBRANCH   1  18
TORSDOF 7
ENDMDL
