MODEL 1
REMARK VINA RESULT:      -7.2      0.000      0.000
REMARK  Name = 
REMARK  6 active torsions:
REMARK  status: ('A' for Active; 'I' for Inactive)
REMARK    1  A    between atoms: C_1  and  C_2
REMARK    2  A    between atoms: C_2  and  C_3
REMARK    3  A    between atoms: N_6  and  C_7
REMARK    4  A    between atoms: C_10  and  C_11
REMARK    5  A    between atoms: N_18  and  C_19
REMARK    6  A    between atoms: C_19  and  C_20
REMARK                            x       y       z     vdW  Elec       q    Type
REMARK                         _______ _______ _______ _____ _____    ______ ____
ROOT
ATOM      1  C   UNL     1       3.999   2.906  19.370  0.00  0.00    +0.000 C 
ATOM      2  C   UNL     1       3.475   4.057  18.527  0.00  0.00    +0.000 C 
ATOM      3  C   UNL     1       2.413   3.584  17.522  0.00  0.00    +0.000 C 
ATOM      4  C   UNL     1       2.789   5.137  19.369  0.00  0.00    +0.000 C 
ATOM      5  O   UNL     1       2.101   4.894  20.354  0.00  0.00    +0.000 OA
ATOM      6  N   UNL     1       3.013   6.355  18.759  0.00  0.00    +0.000 N 
ATOM      7  C   UNL     1       4.104   6.236  17.922  0.00  0.00    +0.000 C 
ATOM      8  O   UNL     1       4.679   7.097  17.275  0.00  0.00    +0.000 OA
ATOM      9  N   UNL     1       4.489   4.896  17.912  0.00  0.00    +0.000 N 
ENDROOT
BRANCH   6  10
ATOM     10  C   UNL     1       2.225   7.518  18.965  0.00  0.00    +0.000 A 
ATOM     11  C   UNL     1       2.002   8.408  17.901  0.00  0.00    +0.000 A 
ATOM     12  C   UNL     1       1.301   9.604  18.081  0.00  0.00    +0.000 A 
ATOM     13  C   UNL     1       0.802   9.950  19.338  0.00  0.00    +0.000 A 
ATOM     14  C   UNL     1       1.013   9.076  20.411  0.00  0.00    +0.000 A 
ATOM     15  I   UNL     1       0.334   9.496  22.355  0.00  0.00    +0.000 I 
ATOM     16  C   UNL     1       1.717   7.871  20.223  0.00  0.00    +0.000 A 
BRANCH  13  17
ATOM     17  C   UNL     1       0.104  11.197  19.466  0.00  0.00    +0.000 C 
ATOM     18  N   UNL     1      -0.493  12.187  19.547  0.00  0.00    +0.000 NA
ENDBRANCH  13  17
ENDBRANCH   6  10
BRANCH   9  19
ATOM     19  C   UNL     1       5.609   4.412  17.108  0.00  0.00    +0.000 C 
BRANCH  19  20
ATOM     20  C   UNL     1       6.919   4.509  17.778  0.00  0.00    +0.000 C 
ATOM     21  N   UNL     1       7.934   4.612  18.324  0.00  0.00    +0.000 NA
ENDBRANCH  19  20
ENDBRANCH   9  19
TORSDOF 4
ENDMDL
MODEL 2
REMARK VINA RESULT:      -7.1      1.206      2.518
REMARK  Name = 
REMARK  6 active torsions:
REMARK  status: ('A' for Active; 'I' for Inactive)
REMARK    1  A    between atoms: C_1  and  C_2
REMARK    2  A    between atoms: C_2  and  C_3
REMARK    3  A    between atoms: N_6  and  C_7
REMARK    4  A    between atoms: C_10  and  C_11
REMARK    5  A    between atoms: N_18  and  C_19
REMARK    6  A    between atoms: C_19  and  C_20
REMARK                            x       y       z     vdW  Elec       q    Type
REMARK                         _______ _______ _______ _____ _____    ______ ____
ROOT
ATOM      1  C   UNL     1       5.771   4.342  16.903  0.00  0.00    +0.000 C 
ATOM      2  C   UNL     1       4.921   4.866  18.051  0.00  0.00    +0.000 C 
ATOM      3  C   UNL     1       5.768   5.128  19.307  0.00  0.00    +0.000 C 
ATOM      4  C   UNL     1       4.250   6.202  17.722  0.00  0.00    +0.000 C 
ATOM      5  O   UNL     1       4.784   7.085  17.062  0.00  0.00    +0.000 OA
ATOM      6  N   UNL     1       3.034   6.237  18.375  0.00  0.00    +0.000 N 
ATOM      7  C   UNL     1       2.663   4.943  18.687  0.00  0.00    +0.000 C 
ATOM      8  O   UNL     1       1.624   4.535  19.181  0.00  0.00    +0.000 OA
ATOM      9  N   UNL     1       3.719   4.102  18.340  0.00  0.00    +0.000 N 
ENDROOT
BRANCH   6  10
ATOM     10  C   UNL     1       2.312   7.421  18.677  0.00  0.00    +0.000 A 
ATOM     11  C   UNL     1       2.092   8.380  17.675  0.00  0.00    +0.000 A 
ATOM     12  C   UNL     1       1.458   9.596  17.950  0.00  0.00    +0.000 A 
ATOM     13  C   UNL     1       1.026   9.891  19.244  0.00  0.00    +0.000 A 
ATOM     14  C   UNL     1       1.236   8.948  20.257  0.00  0.00    +0.000 A 
ATOM     15  I   UNL     1       0.655   9.287  22.248  0.00  0.00    +0.000 I 
ATOM     16  C   UNL     1       1.872   7.725  19.973  0.00  0.00    +0.000 A 
BRANCH  13  17
ATOM     17  C   UNL     1       0.396  11.160  19.471  0.00  0.00    +0.000 C 
ATOM     18  N   UNL     1      -0.142  12.165  19.680  0.00  0.00    +0.000 NA
ENDBRANCH  13  17
ENDBRANCH   6  10
BRANCH   9  19
ATOM     19  C   UNL     1       3.670   2.658  18.553  0.00  0.00    +0.000 C 
BRANCH  19  20
ATOM     20  C   UNL     1       4.368   2.204  19.769  0.00  0.00    +0.000 C 
ATOM     21  N   UNL     1       4.935   1.877  20.725  0.00  0.00    +0.000 NA
ENDBRANCH  19  20
ENDBRANCH   9  19
TORSDOF 4
ENDMDL
MODEL 3
REMARK VINA RESULT:      -7.0      0.931      1.102
REMARK  Name = 
REMARK  6 active torsions:
REMARK  status: ('A' for Active; 'I' for Inactive)
REMARK    1  A    between atoms: C_1  and  C_2
REMARK    2  A    between atoms: C_2  and  C_3
REMARK    3  A    between atoms: N_6  and  C_7
REMARK    4  A    between atoms: C_10  and  C_11
REMARK    5  A    between atoms: N_18  and  C_19
REMARK    6  A    between atoms: C_19  and  C_20
REMARK                            x       y       z     vdW  Elec       q    Type
REMARK                         _______ _______ _______ _____ _____    ______ ____
ROOT
ATOM      1  C   UNL     1       4.371   2.771  19.231  0.00  0.00    +0.000 C 
ATOM      2  C   UNL     1       3.911   3.952  18.392  0.00  0.00    +0.000 C 
ATOM      3  C   UNL     1       3.012   3.504  17.229  0.00  0.00    +0.000 C 
ATOM      4  C   UNL     1       3.075   4.952  19.194  0.00  0.00    +0.000 C 
ATOM      5  O   UNL     1       2.275   4.625  20.063  0.00  0.00    +0.000 OA
ATOM      6  N   UNL     1       3.322   6.213  18.689  0.00  0.00    +0.000 N 
ATOM      7  C   UNL     1       4.518   6.186  17.999  0.00  0.00    +0.000 C 
ATOM      8  O   UNL     1       5.134   7.106  17.484  0.00  0.00    +0.000 OA
ATOM      9  N   UNL     1       4.959   4.864  17.965  0.00  0.00    +0.000 N 
ENDROOT
BRANCH   6  10
ATOM     10  C   UNL     1       2.463   7.332  18.852  0.00  0.00    +0.000 A 
ATOM     11  C   UNL     1       2.167   8.152  17.751  0.00  0.00    +0.000 A 
ATOM     12  C   UNL     1       1.392   9.309  17.886  0.00  0.00    +0.000 A 
ATOM     13  C   UNL     1       0.891   9.683  19.134  0.00  0.00    +0.000 A 
ATOM     14  C   UNL     1       1.175   8.878  20.244  0.00  0.00    +0.000 A 
ATOM     15  I   UNL     1       0.499   9.350  22.177  0.00  0.00    +0.000 I 
ATOM     16  C   UNL     1       1.953   7.714  20.101  0.00  0.00    +0.000 A 
BRANCH  13  17
ATOM     17  C   UNL     1       0.116  10.887  19.215  0.00  0.00    +0.000 C 
ATOM     18  N   UNL     1      -0.543  11.837  19.300  0.00  0.00    +0.000 NA
ENDBRANCH  13  17
ENDBRANCH   6  10
BRANCH   9  19
ATOM     19  C   UNL     1       6.196   4.471  17.293  0.00  0.00    +0.000 C 
BRANCH  19  20
ATOM     20  C   UNL     1       6.041   4.210  15.850  0.00  0.00    +0.000 C 
ATOM     21  N   UNL     1       5.899   3.977  14.725  0.00  0.00    +0.000 NA
ENDBRANCH  19  20
ENDBRANCH   9  19
TORSDOF 4
ENDMDL
MODEL 4
REMARK VINA RESULT:      -6.4      1.880      3.121
REMARK  Name = 
REMARK  6 active torsions:
REMARK  status: ('A' for Active; 'I' for Inactive)
REMARK    1  A    between atoms: C_1  and  C_2
REMARK    2  A    between atoms: C_2  and  C_3
REMARK    3  A    between atoms: N_6  and  C_7
REMARK    4  A    between atoms: C_10  and  C_11
REMARK    5  A    between atoms: N_18  and  C_19
REMARK    6  A    between atoms: C_19  and  C_20
REMARK                            x       y       z     vdW  Elec       q    Type
REMARK                         _______ _______ _______ _____ _____    ______ ____
ROOT
ATOM      1  C   UNL     1       4.555   5.052  16.732  0.00  0.00    +0.000 C 
ATOM      2  C   UNL     1       4.121   5.385  18.151  0.00  0.00    +0.000 C 
ATOM      3  C   UNL     1       5.327   5.514  19.096  0.00  0.00    +0.000 C 
ATOM      4  C   UNL     1       3.386   6.725  18.241  0.00  0.00    +0.000 C 
ATOM      5  O   UNL     1       3.683   7.709  17.574  0.00  0.00    +0.000 OA
ATOM      6  N   UNL     1       2.443   6.624  19.245  0.00  0.00    +0.000 N 
ATOM      7  C   UNL     1       2.187   5.287  19.478  0.00  0.00    +0.000 C 
ATOM      8  O   UNL     1       1.359   4.776  20.215  0.00  0.00    +0.000 OA
ATOM      9  N   UNL     1       3.072   4.543  18.699  0.00  0.00    +0.000 N 
ENDROOT
BRANCH   6  10
ATOM     10  C   UNL     1       1.862   7.728  19.921  0.00  0.00    +0.000 A 
ATOM     11  C   UNL     1       1.830   7.750  21.325  0.00  0.00    +0.000 A 
ATOM     12  C   UNL     1       1.195   8.779  22.028  0.00  0.00    +0.000 A 
ATOM     13  C   UNL     1       0.566   9.821  21.343  0.00  0.00    +0.000 A 
ATOM     14  C   UNL     1       0.588   9.817  19.944  0.00  0.00    +0.000 A 
ATOM     15  I   UNL     1      -0.344  11.315  18.801  0.00  0.00    +0.000 I 
ATOM     16  C   UNL     1       1.231   8.781  19.242  0.00  0.00    +0.000 A 
BRANCH  13  17
ATOM     17  C   UNL     1      -0.082  10.840  22.117  0.00  0.00    +0.000 C 
ATOM     18  N   UNL     1      -0.572  11.663  22.770  0.00  0.00    +0.000 NA
ENDBRANCH  13  17
ENDBRANCH   6  10
BRANCH   9  19
ATOM     19  C   UNL     1       3.088   3.081  18.716  0.00  0.00    +0.000 C 
BRANCH  19  20
ATOM     20  C   UNL     1       4.051   2.500  19.668  0.00  0.00    +0.000 C 
ATOM     21  N   UNL     1       4.830   2.035  20.388  0.00  0.00    +0.000 NA
ENDBRANCH  19  20
ENDBRANCH   9  19
TORSDOF 4
ENDMDL
MODEL 5
REMARK VINA RESULT:      -6.3      1.959      3.155
REMARK  Name = 
REMARK  6 active torsions:
REMARK  status: ('A' for Active; 'I' for Inactive)
REMARK    1  A    between atoms: C_1  and  C_2
REMARK    2  A    between atoms: C_2  and  C_3
REMARK    3  A    between atoms: N_6  and  C_7
REMARK    4  A    between atoms: C_10  and  C_11
REMARK    5  A    between atoms: N_18  and  C_19
REMARK    6  A    between atoms: C_19  and  C_20
REMARK                            x       y       z     vdW  Elec       q    Type
REMARK                         _______ _______ _______ _____ _____    ______ ____
ROOT
ATOM      1  C   UNL     1       5.143   4.954  16.049  0.00  0.00    +0.000 C 
ATOM      2  C   UNL     1       4.425   5.000  17.389  0.00  0.00    +0.000 C 
ATOM      3  C   UNL     1       5.359   4.608  18.544  0.00  0.00    +0.000 C 
ATOM      4  C   UNL     1       3.914   6.402  17.733  0.00  0.00    +0.000 C 
ATOM      5  O   UNL     1       4.523   7.431  17.465  0.00  0.00    +0.000 OA
ATOM      6  N   UNL     1       2.746   6.261  18.456  0.00  0.00    +0.000 N 
ATOM      7  C   UNL     1       2.230   5.002  18.220  0.00  0.00    +0.000 C 
ATOM      8  O   UNL     1       1.172   4.519  18.593  0.00  0.00    +0.000 OA
ATOM      9  N   UNL     1       3.151   4.303  17.442  0.00  0.00    +0.000 N 
ENDROOT
BRANCH   6  10
ATOM     10  C   UNL     1       2.198   7.256  19.307  0.00  0.00    +0.000 A 
ATOM     11  C   UNL     1       1.934   6.957  20.653  0.00  0.00    +0.000 A 
ATOM     12  C   UNL     1       1.319   7.881  21.503  0.00  0.00    +0.000 A 
ATOM     13  C   UNL     1       0.945   9.140  21.028  0.00  0.00    +0.000 A 
ATOM     14  C   UNL     1       1.201   9.458  19.689  0.00  0.00    +0.000 A 
ATOM     15  I   UNL     1       0.662  11.308  18.850  0.00  0.00    +0.000 I 
ATOM     16  C   UNL     1       1.822   8.524  18.839  0.00  0.00    +0.000 A 
BRANCH  13  17
ATOM     17  C   UNL     1       0.305  10.042  21.941  0.00  0.00    +0.000 C 
ATOM     18  N   UNL     1      -0.179  10.798  22.675  0.00  0.00    +0.000 NA
ENDBRANCH  13  17
ENDBRANCH   6  10
BRANCH   9  19
ATOM     19  C   UNL     1       2.929   2.922  17.020  0.00  0.00    +0.000 C 
BRANCH  19  20
ATOM     20  C   UNL     1       3.396   1.913  17.988  0.00  0.00    +0.000 C 
ATOM     21  N   UNL     1       3.784   1.145  18.763  0.00  0.00    +0.000 NA
ENDBRANCH  19  20
ENDBRANCH   9  19
TORSDOF 4
ENDMDL
MODEL 6
REMARK VINA RESULT:      -6.3      2.783      6.838
REMARK  Name = 
REMARK  6 active torsions:
REMARK  status: ('A' for Active; 'I' for Inactive)
REMARK    1  A    between atoms: C_1  and  C_2
REMARK    2  A    between atoms: C_2  and  C_3
REMARK    3  A    between atoms: N_6  and  C_7
REMARK    4  A    between atoms: C_10  and  C_11
REMARK    5  A    between atoms: N_18  and  C_19
REMARK    6  A    between atoms: C_19  and  C_20
REMARK                            x       y       z     vdW  Elec       q    Type
REMARK                         _______ _______ _______ _____ _____    ______ ____
ROOT
ATOM      1  C   UNL     1       0.531  11.575  19.102  0.00  0.00    +0.000 C 
ATOM      2  C   UNL     1       0.496  10.061  18.963  0.00  0.00    +0.000 C 
ATOM      3  C   UNL     1      -0.648   9.604  18.045  0.00  0.00    +0.000 C 
ATOM      4  C   UNL     1       1.774   9.500  18.336  0.00  0.00    +0.000 C 
ATOM      5  O   UNL     1       2.395  10.062  17.441  0.00  0.00    +0.000 OA
ATOM      6  N   UNL     1       2.006   8.255  18.887  0.00  0.00    +0.000 N 
ATOM      7  C   UNL     1       1.313   8.164  20.078  0.00  0.00    +0.000 C 
ATOM      8  O   UNL     1       1.323   7.271  20.911  0.00  0.00    +0.000 OA
ATOM      9  N   UNL     1       0.541   9.316  20.210  0.00  0.00    +0.000 N 
ENDROOT
BRANCH   6  10
ATOM     10  C   UNL     1       2.812   7.247  18.296  0.00  0.00    +0.000 A 
ATOM     11  C   UNL     1       3.956   7.606  17.564  0.00  0.00    +0.000 A 
ATOM     12  C   UNL     1       4.731   6.651  16.900  0.00  0.00    +0.000 A 
ATOM     13  C   UNL     1       4.381   5.300  16.945  0.00  0.00    +0.000 A 
ATOM     14  C   UNL     1       3.245   4.922  17.669  0.00  0.00    +0.000 A 
ATOM     15  I   UNL     1       2.602   2.925  17.790  0.00  0.00    +0.000 I 
ATOM     16  C   UNL     1       2.470   5.888  18.339  0.00  0.00    +0.000 A 
BRANCH  13  17
ATOM     17  C   UNL     1       5.205   4.367  16.231  0.00  0.00    +0.000 C 
ATOM     18  N   UNL     1       5.853   3.581  15.678  0.00  0.00    +0.000 NA
ENDBRANCH  13  17
ENDBRANCH   6  10
BRANCH   9  19
ATOM     19  C   UNL     1      -0.337   9.541  21.357  0.00  0.00    +0.000 C 
BRANCH  19  20
ATOM     20  C   UNL     1       0.365   9.592  22.652  0.00  0.00    +0.000 C 
ATOM     21  N   UNL     1       0.944   9.617  23.655  0.00  0.00    +0.000 NA
ENDBRANCH  19  20
ENDBRANCH   9  19
TORSDOF 4
ENDMDL
MODEL 7
REMARK VINA RESULT:      -6.2      1.545      1.944
REMARK  Name = 
REMARK  6 active torsions:
REMARK  status: ('A' for Active; 'I' for Inactive)
REMARK    1  A    between atoms: C_1  and  C_2
REMARK    2  A    between atoms: C_2  and  C_3
REMARK    3  A    between atoms: N_6  and  C_7
REMARK    4  A    between atoms: C_10  and  C_11
REMARK    5  A    between atoms: N_18  and  C_19
REMARK    6  A    between atoms: C_19  and  C_20
REMARK                            x       y       z     vdW  Elec       q    Type
REMARK                         _______ _______ _______ _____ _____    ______ ____
ROOT
ATOM      1  C   UNL     1       3.389   3.105  19.119  0.00  0.00    +0.000 C 
ATOM      2  C   UNL     1       2.777   4.411  18.637  0.00  0.00    +0.000 C 
ATOM      3  C   UNL     1       1.516   4.166  17.792  0.00  0.00    +0.000 C 
ATOM      4  C   UNL     1       2.328   5.311  19.791  0.00  0.00    +0.000 C 
ATOM      5  O   UNL     1       1.831   4.887  20.828  0.00  0.00    +0.000 OA
ATOM      6  N   UNL     1       2.498   6.623  19.396  0.00  0.00    +0.000 N 
ATOM      7  C   UNL     1       3.399   6.656  18.350  0.00  0.00    +0.000 C 
ATOM      8  O   UNL     1       3.885   7.620  17.779  0.00  0.00    +0.000 OA
ATOM      9  N   UNL     1       3.698   5.339  18.004  0.00  0.00    +0.000 N 
ENDROOT
BRANCH   6  10
ATOM     10  C   UNL     1       1.830   7.734  19.975  0.00  0.00    +0.000 A 
ATOM     11  C   UNL     1       1.833   7.902  21.370  0.00  0.00    +0.000 A 
ATOM     12  C   UNL     1       1.121   8.936  21.985  0.00  0.00    +0.000 A 
ATOM     13  C   UNL     1       0.377   9.836  21.219  0.00  0.00    +0.000 A 
ATOM     14  C   UNL     1       0.363   9.685  19.828  0.00  0.00    +0.000 A 
ATOM     15  I   UNL     1      -0.739  10.960  18.571  0.00  0.00    +0.000 I 
ATOM     16  C   UNL     1       1.084   8.645  19.214  0.00  0.00    +0.000 A 
BRANCH  13  17
ATOM     17  C   UNL     1      -0.346  10.867  21.906  0.00  0.00    +0.000 C 
ATOM     18  N   UNL     1      -0.949  11.669  22.486  0.00  0.00    +0.000 NA
ENDBRANCH  13  17
ENDBRANCH   6  10
BRANCH   9  19
ATOM     19  C   UNL     1       4.614   5.006  16.915  0.00  0.00    +0.000 C 
BRANCH  19  20
ATOM     20  C   UNL     1       6.002   4.766  17.346  0.00  0.00    +0.000 C 
ATOM     21  N   UNL     1       7.081   4.564  17.715  0.00  0.00    +0.000 NA
ENDBRANCH  19  20
ENDBRANCH   9  19
TORSDOF 4
ENDMDL
MODEL 8
REMARK VINA RESULT:      -6.1      2.055      3.595
REMARK  Name = 
REMARK  6 active torsions:
REMARK  status: ('A' for Active; 'I' for Inactive)
REMARK    1  A    between atoms: C_1  and  C_2
REMARK    2  A    between atoms: C_2  and  C_3
REMARK    3  A    between atoms: N_6  and  C_7
REMARK    4  A    between atoms: C_10  and  C_11
REMARK    5  A    between atoms: N_18  and  C_19
REMARK    6  A    between atoms: C_19  and  C_20
REMARK                            x       y       z     vdW  Elec       q    Type
REMARK                         _______ _______ _______ _____ _____    ______ ____
ROOT
ATOM      1  C   UNL     1       4.304   4.929  16.997  0.00  0.00    +0.000 C 
ATOM      2  C   UNL     1       3.897   5.345  18.402  0.00  0.00    +0.000 C 
ATOM      3  C   UNL     1       5.115   5.466  19.331  0.00  0.00    +0.000 C 
ATOM      4  C   UNL     1       3.219   6.717  18.435  0.00  0.00    +0.000 C 
ATOM      5  O   UNL     1       3.552   7.656  17.721  0.00  0.00    +0.000 OA
ATOM      6  N   UNL     1       2.282   6.703  19.449  0.00  0.00    +0.000 N 
ATOM      7  C   UNL     1       1.973   5.390  19.745  0.00  0.00    +0.000 C 
ATOM      8  O   UNL     1       1.130   4.948  20.511  0.00  0.00    +0.000 OA
ATOM      9  N   UNL     1       2.818   4.573  18.996  0.00  0.00    +0.000 N 
ENDROOT
BRANCH   6  10
ATOM     10  C   UNL     1       1.754   7.860  20.078  0.00  0.00    +0.000 A 
ATOM     11  C   UNL     1       1.739   7.949  21.479  0.00  0.00    +0.000 A 
ATOM     12  C   UNL     1       1.154   9.035  22.139  0.00  0.00    +0.000 A 
ATOM     13  C   UNL     1       0.560  10.068  21.412  0.00  0.00    +0.000 A 
ATOM     14  C   UNL     1       0.566   9.998  20.014  0.00  0.00    +0.000 A 
ATOM     15  I   UNL     1      -0.318  11.477  18.810  0.00  0.00    +0.000 I 
ATOM     16  C   UNL     1       1.158   8.904  19.355  0.00  0.00    +0.000 A 
BRANCH  13  17
ATOM     17  C   UNL     1      -0.037  11.149  22.142  0.00  0.00    +0.000 C 
ATOM     18  N   UNL     1      -0.559  12.004  22.724  0.00  0.00    +0.000 NA
ENDBRANCH  13  17
ENDBRANCH   6  10
BRANCH   9  19
ATOM     19  C   UNL     1       2.773   3.115  19.080  0.00  0.00    +0.000 C 
BRANCH  19  20
ATOM     20  C   UNL     1       1.469   2.530  18.724  0.00  0.00    +0.000 C 
ATOM     21  N   UNL     1       0.451   2.075  18.411  0.00  0.00    +0.000 NA
ENDBRANCH  19  20
ENDBRANCH   9  19
TORSDOF 4
ENDMDL
MODEL 9
REMARK VINA RESULT:      -6.1      1.829      2.104
REMARK  Name = 
REMARK  6 active torsions:
REMARK  status: ('A' for Active; 'I' for Inactive)
REMARK    1  A    between atoms: C_1  and  C_2
REMARK    2  A    between atoms: C_2  and  C_3
REMARK    3  A    between atoms: N_6  and  C_7
REMARK    4  A    between atoms: C_10  and  C_11
REMARK    5  A    between atoms: N_18  and  C_19
REMARK    6  A    between atoms: C_19  and  C_20
REMARK                            x       y       z     vdW  Elec       q    Type
REMARK                         _______ _______ _______ _____ _____    ______ ____
ROOT
ATOM      1  C   UNL     1       1.899   1.797  19.704  0.00  0.00    +0.000 C 
ATOM      2  C   UNL     1       2.341   3.098  19.053  0.00  0.00    +0.000 C 
ATOM      3  C   UNL     1       2.105   3.079  17.535  0.00  0.00    +0.000 C 
ATOM      4  C   UNL     1       1.563   4.309  19.574  0.00  0.00    +0.000 C 
ATOM      5  O   UNL     1       0.371   4.280  19.856  0.00  0.00    +0.000 OA
ATOM      6  N   UNL     1       2.413   5.397  19.560  0.00  0.00    +0.000 N 
ATOM      7  C   UNL     1       3.716   4.939  19.535  0.00  0.00    +0.000 C 
ATOM      8  O   UNL     1       4.759   5.570  19.606  0.00  0.00    +0.000 OA
ATOM      9  N   UNL     1       3.677   3.552  19.403  0.00  0.00    +0.000 N 
ENDROOT
BRANCH   6  10
ATOM     10  C   UNL     1       1.991   6.752  19.557  0.00  0.00    +0.000 A 
ATOM     11  C   UNL     1       2.232   7.556  18.430  0.00  0.00    +0.000 A 
ATOM     12  C   UNL     1       1.906   8.916  18.416  0.00  0.00    +0.000 A 
ATOM     13  C   UNL     1       1.329   9.516  19.537  0.00  0.00    +0.000 A 
ATOM     14  C   UNL     1       1.081   8.732  20.670  0.00  0.00    +0.000 A 
ATOM     15  I   UNL     1       0.242   9.525  22.426  0.00  0.00    +0.000 I 
ATOM     16  C   UNL     1       1.409   7.363  20.676  0.00  0.00    +0.000 A 
BRANCH  13  17
ATOM     17  C   UNL     1       1.030  10.918  19.471  0.00  0.00    +0.000 C 
ATOM     18  N   UNL     1       0.747  12.041  19.425  0.00  0.00    +0.000 NA
ENDBRANCH  13  17
ENDBRANCH   6  10
BRANCH   9  19
ATOM     19  C   UNL     1       4.889   2.740  19.324  0.00  0.00    +0.000 C 
BRANCH  19  20
ATOM     20  C   UNL     1       5.157   1.937  20.530  0.00  0.00    +0.000 C 
ATOM     21  N   UNL     1       5.386   1.283  21.458  0.00  0.00    +0.000 NA
ENDBRANCH  19  20
ENDBRANCH   9  19
TORSDOF 4
ENDMDL
