MODEL 1
REMARK VINA RESULT:      -6.3      0.000      0.000
REMARK  Name = 
REMARK  5 active torsions:
REMARK  status: ('A' for Active; 'I' for Inactive)
REMARK    1  A    between atoms: C_2  and  O_3
REMARK    2  A    between atoms: C_2  and  C_4
REMARK    3  A    between atoms: C_6  and  S_7
REMARK    4  A    between atoms: S_7  and  O_10
REMARK    5  A    between atoms: C_13  and  O_14
REMARK                            x       y       z     vdW  Elec       q    Type
REMARK                         _______ _______ _______ _____ _____    ______ ____
ROOT
ATOM      1  C   UNL     1       2.689   3.042  19.733  0.00  0.00    +0.000 A 
ATOM      2  C   UNL     1       3.863   3.810  19.683  0.00  0.00    +0.000 A 
ATOM      3  C   UNL     1       4.460   4.088  18.450  0.00  0.00    +0.000 A 
ATOM      4  C   UNL     1       3.920   3.592  17.262  0.00  0.00    +0.000 A 
ATOM      5  C   UNL     1       2.752   2.830  17.304  0.00  0.00    +0.000 A 
ATOM      6  C   UNL     1       2.140   2.562  18.533  0.00  0.00    +0.000 A 
ENDROOT
BRANCH   3   7
ATOM      7  S   UNL     1       5.950   5.044  18.399  0.00  0.00    +0.000 S 
ATOM      8  O   UNL     1       5.680   6.231  17.615  0.00  0.00    +0.000 OA
ATOM      9  O   UNL     1       6.468   5.107  19.746  0.00  0.00    +0.000 OA
BRANCH   7  10
ATOM     10  O   UNL     1       6.960   4.170  17.496  0.00  0.00    +0.000 OA
ATOM     11  H   UNL     1       6.923   4.519  16.580  0.00  0.00    +0.000 HD
ENDBRANCH   7  10
ENDBRANCH   3   7
BRANCH   1  13
ATOM     12  O   UNL     1       2.792   2.471  22.042  0.00  0.00    +0.000 OA
ATOM     13  C   UNL     1       2.102   2.780  21.081  0.00  0.00    +0.000 C 
BRANCH  13  14
ATOM     14  O   UNL     1       0.762   2.895  21.163  0.00  0.00    +0.000 OA
ATOM     15  H   UNL     1       0.342   3.048  20.287  0.00  0.00    +0.000 HD
ENDBRANCH  13  14
ENDBRANCH   1  13
BRANCH   6  16
ATOM     16  O   UNL     1       0.991   1.814  18.553  0.00  0.00    +0.000 OA
ATOM     17  H   UNL     1       0.407   2.111  17.829  0.00  0.00    +0.000 HD
ENDBRANCH   6  16
TORSDOF 5
ENDMDL
MODEL 2
REMARK VINA RESULT:      -6.3      2.804      5.963
REMARK  Name = 
REMARK  5 active torsions:
REMARK  status: ('A' for Active; 'I' for Inactive)
REMARK    1  A    between atoms: C_2  and  O_3
REMARK    2  A    between atoms: C_2  and  C_4
REMARK    3  A    between atoms: C_6  and  S_7
REMARK    4  A    between atoms: S_7  and  O_10
REMARK    5  A    between atoms: C_13  and  O_14
REMARK                            x       y       z     vdW  Elec       q    Type
REMARK                         _______ _______ _______ _____ _____    ______ ____
ROOT
ATOM      1  C   UNL     1       6.216   4.790  15.957  0.00  0.00    +0.000 A 
ATOM      2  C   UNL     1       5.185   3.912  16.330  0.00  0.00    +0.000 A 
ATOM      3  C   UNL     1       4.579   4.044  17.583  0.00  0.00    +0.000 A 
ATOM      4  C   UNL     1       5.000   5.023  18.485  0.00  0.00    +0.000 A 
ATOM      5  C   UNL     1       6.021   5.900  18.120  0.00  0.00    +0.000 A 
ATOM      6  C   UNL     1       6.621   5.784  16.862  0.00  0.00    +0.000 A 
ENDROOT
BRANCH   3   7
ATOM      7  S   UNL     1       3.290   2.922  18.050  0.00  0.00    +0.000 S 
ATOM      8  O   UNL     1       3.029   3.122  19.460  0.00  0.00    +0.000 OA
ATOM      9  O   UNL     1       2.253   3.017  17.049  0.00  0.00    +0.000 OA
BRANCH   7  10
ATOM     10  O   UNL     1       3.971   1.464  17.955  0.00  0.00    +0.000 OA
ATOM     11  H   UNL     1       3.595   0.910  18.673  0.00  0.00    +0.000 HD
ENDBRANCH   7  10
ENDBRANCH   3   7
BRANCH   1  13
ATOM     12  O   UNL     1       7.640   5.375  14.142  0.00  0.00    +0.000 OA
ATOM     13  C   UNL     1       6.822   4.594  14.606  0.00  0.00    +0.000 C 
BRANCH  13  14
ATOM     14  O   UNL     1       6.397   3.508  13.931  0.00  0.00    +0.000 OA
ATOM     15  H   UNL     1       6.902   3.359  13.100  0.00  0.00    +0.000 HD
ENDBRANCH  13  14
ENDBRANCH   1  13
BRANCH   6  16
ATOM     16  O   UNL     1       7.622   6.657  16.520  0.00  0.00    +0.000 OA
ATOM     17  H   UNL     1       8.027   7.010  17.335  0.00  0.00    +0.000 HD
ENDBRANCH   6  16
TORSDOF 5
ENDMDL
MODEL 3
REMARK VINA RESULT:      -6.2      2.578      5.321
REMARK  Name = 
REMARK  5 active torsions:
REMARK  status: ('A' for Active; 'I' for Inactive)
REMARK    1  A    between atoms: C_2  and  O_3
REMARK    2  A    between atoms: C_2  and  C_4
REMARK    3  A    between atoms: C_6  and  S_7
REMARK    4  A    between atoms: S_7  and  O_10
REMARK    5  A    between atoms: C_13  and  O_14
REMARK                            x       y       z     vdW  Elec       q    Type
REMARK                         _______ _______ _______ _____ _____    ______ ____
ROOT
ATOM      1  C   UNL     1       6.837   5.403  18.123  0.00  0.00    +0.000 A 
ATOM      2  C   UNL     1       5.972   4.550  18.827  0.00  0.00    +0.000 A 
ATOM      3  C   UNL     1       4.993   3.831  18.137  0.00  0.00    +0.000 A 
ATOM      4  C   UNL     1       4.842   3.964  16.755  0.00  0.00    +0.000 A 
ATOM      5  C   UNL     1       5.700   4.808  16.049  0.00  0.00    +0.000 A 
ATOM      6  C   UNL     1       6.693   5.519  16.731  0.00  0.00    +0.000 A 
ENDROOT
BRANCH   3   7
ATOM      7  S   UNL     1       3.896   2.769  19.035  0.00  0.00    +0.000 S 
ATOM      8  O   UNL     1       3.184   3.587  19.993  0.00  0.00    +0.000 OA
ATOM      9  O   UNL     1       3.214   1.938  18.070  0.00  0.00    +0.000 OA
BRANCH   7  10
ATOM     10  O   UNL     1       4.870   1.840  19.922  0.00  0.00    +0.000 OA
ATOM     11  H   UNL     1       4.779   0.917  19.601  0.00  0.00    +0.000 HD
ENDBRANCH   7  10
ENDBRANCH   3   7
BRANCH   1  13
ATOM     12  O   UNL     1       8.245   7.262  18.605  0.00  0.00    +0.000 OA
ATOM     13  C   UNL     1       7.860   6.145  18.919  0.00  0.00    +0.000 C 
BRANCH  13  14
ATOM     14  O   UNL     1       8.339   5.494  19.998  0.00  0.00    +0.000 OA
ATOM     15  H   UNL     1       9.074   4.881  19.773  0.00  0.00    +0.000 HD
ENDBRANCH  13  14
ENDBRANCH   1  13
BRANCH   6  16
ATOM     16  O   UNL     1       7.529   6.341  16.020  0.00  0.00    +0.000 OA
ATOM     17  H   UNL     1       8.040   5.802  15.386  0.00  0.00    +0.000 HD
ENDBRANCH   6  16
TORSDOF 5
ENDMDL
MODEL 4
REMARK VINA RESULT:      -6.2      2.394      5.180
REMARK  Name = 
REMARK  5 active torsions:
REMARK  status: ('A' for Active; 'I' for Inactive)
REMARK    1  A    between atoms: C_2  and  O_3
REMARK    2  A    between atoms: C_2  and  C_4
REMARK    3  A    between atoms: C_6  and  S_7
REMARK    4  A    between atoms: S_7  and  O_10
REMARK    5  A    between atoms: C_13  and  O_14
REMARK                            x       y       z     vdW  Elec       q    Type
REMARK                         _______ _______ _______ _____ _____    ______ ____
ROOT
ATOM      1  C   UNL     1       6.582   5.233  18.235  0.00  0.00    +0.000 A 
ATOM      2  C   UNL     1       5.627   4.464  18.918  0.00  0.00    +0.000 A 
ATOM      3  C   UNL     1       4.653   3.764  18.199  0.00  0.00    +0.000 A 
ATOM      4  C   UNL     1       4.599   3.836  16.806  0.00  0.00    +0.000 A 
ATOM      5  C   UNL     1       5.547   4.596  16.120  0.00  0.00    +0.000 A 
ATOM      6  C   UNL     1       6.533   5.286  16.832  0.00  0.00    +0.000 A 
ENDROOT
BRANCH   3   7
ATOM      7  S   UNL     1       3.442   2.810  19.072  0.00  0.00    +0.000 S 
ATOM      8  O   UNL     1       4.066   2.314  20.280  0.00  0.00    +0.000 OA
ATOM      9  O   UNL     1       2.220   3.580  19.091  0.00  0.00    +0.000 OA
BRANCH   7  10
ATOM     10  O   UNL     1       3.219   1.505  18.152  0.00  0.00    +0.000 OA
ATOM     11  H   UNL     1       3.546   0.726  18.651  0.00  0.00    +0.000 HD
ENDBRANCH   7  10
ENDBRANCH   3   7
BRANCH   1  13
ATOM     12  O   UNL     1       8.181   6.947  18.650  0.00  0.00    +0.000 OA
ATOM     13  C   UNL     1       7.593   5.957  19.061  0.00  0.00    +0.000 C 
BRANCH  13  14
ATOM     14  O   UNL     1       7.822   5.439  20.284  0.00  0.00    +0.000 OA
ATOM     15  H   UNL     1       8.758   5.540  20.568  0.00  0.00    +0.000 HD
ENDBRANCH  13  14
ENDBRANCH   1  13
BRANCH   6  16
ATOM     16  O   UNL     1       7.458   6.024  16.140  0.00  0.00    +0.000 OA
ATOM     17  H   UNL     1       7.167   6.956  16.117  0.00  0.00    +0.000 HD
ENDBRANCH   6  16
TORSDOF 5
ENDMDL
MODEL 5
REMARK VINA RESULT:      -6.2      2.635      5.242
REMARK  Name = 
REMARK  5 active torsions:
REMARK  status: ('A' for Active; 'I' for Inactive)
REMARK    1  A    between atoms: C_2  and  O_3
REMARK    2  A    between atoms: C_2  and  C_4
REMARK    3  A    between atoms: C_6  and  S_7
REMARK    4  A    between atoms: S_7  and  O_10
REMARK    5  A    between atoms: C_13  and  O_14
REMARK                            x       y       z     vdW  Elec       q    Type
REMARK                         _______ _______ _______ _____ _____    ______ ____
ROOT
ATOM      1  C   UNL     1       6.620   5.326  18.130  0.00  0.00    +0.000 A 
ATOM      2  C   UNL     1       5.599   4.452  18.536  0.00  0.00    +0.000 A 
ATOM      3  C   UNL     1       4.684   3.967  17.596  0.00  0.00    +0.000 A 
ATOM      4  C   UNL     1       4.753   4.358  16.258  0.00  0.00    +0.000 A 
ATOM      5  C   UNL     1       5.767   5.224  15.847  0.00  0.00    +0.000 A 
ATOM      6  C   UNL     1       6.695   5.701  16.778  0.00  0.00    +0.000 A 
ENDROOT
BRANCH   3   7
ATOM      7  S   UNL     1       3.390   2.877  18.121  0.00  0.00    +0.000 S 
ATOM      8  O   UNL     1       3.165   3.115  19.531  0.00  0.00    +0.000 OA
ATOM      9  O   UNL     1       2.331   2.964  17.142  0.00  0.00    +0.000 OA
BRANCH   7  10
ATOM     10  O   UNL     1       4.046   1.407  18.046  0.00  0.00    +0.000 OA
ATOM     11  H   UNL     1       5.021   1.510  18.099  0.00  0.00    +0.000 HD
ENDBRANCH   7  10
ENDBRANCH   3   7
BRANCH   1  13
ATOM     12  O   UNL     1       7.693   5.233  20.252  0.00  0.00    +0.000 OA
ATOM     13  C   UNL     1       7.563   5.809  19.182  0.00  0.00    +0.000 C 
BRANCH  13  14
ATOM     14  O   UNL     1       8.249   6.928  18.877  0.00  0.00    +0.000 OA
ATOM     15  H   UNL     1       8.668   7.340  19.665  0.00  0.00    +0.000 HD
ENDBRANCH  13  14
ENDBRANCH   1  13
BRANCH   6  16
ATOM     16  O   UNL     1       7.686   6.549  16.355  0.00  0.00    +0.000 OA
ATOM     17  H   UNL     1       7.763   7.288  16.988  0.00  0.00    +0.000 HD
ENDBRANCH   6  16
TORSDOF 5
ENDMDL
MODEL 6
REMARK VINA RESULT:      -6.2      2.631      5.543
REMARK  Name = 
REMARK  5 active torsions:
REMARK  status: ('A' for Active; 'I' for Inactive)
REMARK    1  A    between atoms: C_2  and  O_3
REMARK    2  A    between atoms: C_2  and  C_4
REMARK    3  A    between atoms: C_6  and  S_7
REMARK    4  A    between atoms: S_7  and  O_10
REMARK    5  A    between atoms: C_13  and  O_14
REMARK                            x       y       z     vdW  Elec       q    Type
REMARK                         _______ _______ _______ _____ _____    ______ ____
ROOT
ATOM      1  C   UNL     1       5.582   4.826  16.011  0.00  0.00    +0.000 A 
ATOM      2  C   UNL     1       5.200   3.767  16.850  0.00  0.00    +0.000 A 
ATOM      3  C   UNL     1       4.267   3.989  17.867  0.00  0.00    +0.000 A 
ATOM      4  C   UNL     1       3.723   5.257  18.080  0.00  0.00    +0.000 A 
ATOM      5  C   UNL     1       4.097   6.313  17.248  0.00  0.00    +0.000 A 
ATOM      6  C   UNL     1       5.018   6.095  16.219  0.00  0.00    +0.000 A 
ENDROOT
BRANCH   3   7
ATOM      7  S   UNL     1       3.802   2.651  18.931  0.00  0.00    +0.000 S 
ATOM      8  O   UNL     1       2.869   3.173  19.907  0.00  0.00    +0.000 OA
ATOM      9  O   UNL     1       3.490   1.520  18.089  0.00  0.00    +0.000 OA
BRANCH   7  10
ATOM     10  O   UNL     1       5.139   2.319  19.769  0.00  0.00    +0.000 OA
ATOM     11  H   UNL     1       4.944   2.472  20.718  0.00  0.00    +0.000 HD
ENDBRANCH   7  10
ENDBRANCH   3   7
BRANCH   1  13
ATOM     12  O   UNL     1       7.563   5.231  14.754  0.00  0.00    +0.000 OA
ATOM     13  C   UNL     1       6.584   4.524  14.946  0.00  0.00    +0.000 C 
BRANCH  13  14
ATOM     14  O   UNL     1       6.330   3.428  14.204  0.00  0.00    +0.000 OA
ATOM     15  H   UNL     1       6.888   3.382  13.395  0.00  0.00    +0.000 HD
ENDBRANCH  13  14
ENDBRANCH   1  13
BRANCH   6  16
ATOM     16  O   UNL     1       5.370   7.144  15.409  0.00  0.00    +0.000 OA
ATOM     17  H   UNL     1       6.221   6.939  14.977  0.00  0.00    +0.000 HD
ENDBRANCH   6  16
TORSDOF 5
ENDMDL
MODEL 7
REMARK VINA RESULT:      -6.2      2.304      3.167
REMARK  Name = 
REMARK  5 active torsions:
REMARK  status: ('A' for Active; 'I' for Inactive)
REMARK    1  A    between atoms: C_2  and  O_3
REMARK    2  A    between atoms: C_2  and  C_4
REMARK    3  A    between atoms: C_6  and  S_7
REMARK    4  A    between atoms: S_7  and  O_10
REMARK    5  A    between atoms: C_13  and  O_14
REMARK                            x       y       z     vdW  Elec       q    Type
REMARK                         _______ _______ _______ _____ _____    ______ ____
ROOT
ATOM      1  C   UNL     1       3.551   3.711  17.744  0.00  0.00    +0.000 A 
ATOM      2  C   UNL     1       4.797   3.757  17.099  0.00  0.00    +0.000 A 
ATOM      3  C   UNL     1       5.463   4.978  16.960  0.00  0.00    +0.000 A 
ATOM      4  C   UNL     1       4.897   6.163  17.433  0.00  0.00    +0.000 A 
ATOM      5  C   UNL     1       3.661   6.125  18.078  0.00  0.00    +0.000 A 
ATOM      6  C   UNL     1       2.996   4.904  18.234  0.00  0.00    +0.000 A 
ENDROOT
BRANCH   3   7
ATOM      7  S   UNL     1       7.027   5.028  16.130  0.00  0.00    +0.000 S 
ATOM      8  O   UNL     1       6.897   4.264  14.908  0.00  0.00    +0.000 OA
ATOM      9  O   UNL     1       7.476   6.401  16.140  0.00  0.00    +0.000 OA
BRANCH   7  10
ATOM     10  O   UNL     1       8.008   4.155  17.065  0.00  0.00    +0.000 OA
ATOM     11  H   UNL     1       7.507   3.899  17.869  0.00  0.00    +0.000 HD
ENDBRANCH   7  10
ENDBRANCH   3   7
BRANCH   1  13
ATOM     12  O   UNL     1       1.677   2.244  17.799  0.00  0.00    +0.000 OA
ATOM     13  C   UNL     1       2.891   2.376  17.858  0.00  0.00    +0.000 C 
BRANCH  13  14
ATOM     14  O   UNL     1       3.722   1.331  18.043  0.00  0.00    +0.000 OA
ATOM     15  H   UNL     1       4.629   1.612  18.297  0.00  0.00    +0.000 HD
ENDBRANCH  13  14
ENDBRANCH   1  13
BRANCH   6  16
ATOM     16  O   UNL     1       1.783   4.886  18.874  0.00  0.00    +0.000 OA
ATOM     17  H   UNL     1       1.226   5.606  18.519  0.00  0.00    +0.000 HD
ENDBRANCH   6  16
TORSDOF 5
ENDMDL
MODEL 8
REMARK VINA RESULT:      -6.1      2.345      5.082
REMARK  Name = 
REMARK  5 active torsions:
REMARK  status: ('A' for Active; 'I' for Inactive)
REMARK    1  A    between atoms: C_2  and  O_3
REMARK    2  A    between atoms: C_2  and  C_4
REMARK    3  A    between atoms: C_6  and  S_7
REMARK    4  A    between atoms: S_7  and  O_10
REMARK    5  A    between atoms: C_13  and  O_14
REMARK                            x       y       z     vdW  Elec       q    Type
REMARK                         _______ _______ _______ _____ _____    ______ ____
ROOT
ATOM      1  C   UNL     1       6.502   5.192  18.576  0.00  0.00    +0.000 A 
ATOM      2  C   UNL     1       5.320   5.061  19.322  0.00  0.00    +0.000 A 
ATOM      3  C   UNL     1       4.212   4.421  18.761  0.00  0.00    +0.000 A 
ATOM      4  C   UNL     1       4.251   3.927  17.455  0.00  0.00    +0.000 A 
ATOM      5  C   UNL     1       5.423   4.052  16.709  0.00  0.00    +0.000 A 
ATOM      6  C   UNL     1       6.541   4.678  17.270  0.00  0.00    +0.000 A 
ENDROOT
BRANCH   3   7
ATOM      7  S   UNL     1       2.720   4.274  19.705  0.00  0.00    +0.000 S 
ATOM      8  O   UNL     1       1.608   4.398  18.786  0.00  0.00    +0.000 OA
ATOM      9  O   UNL     1       2.875   3.137  20.582  0.00  0.00    +0.000 OA
BRANCH   7  10
ATOM     10  O   UNL     1       2.674   5.615  20.598  0.00  0.00    +0.000 OA
ATOM     11  H   UNL     1       2.575   6.378  19.989  0.00  0.00    +0.000 HD
ENDBRANCH   7  10
ENDBRANCH   3   7
BRANCH   1  13
ATOM     12  O   UNL     1       8.224   6.831  18.708  0.00  0.00    +0.000 OA
ATOM     13  C   UNL     1       7.649   5.888  19.232  0.00  0.00    +0.000 C 
BRANCH  13  14
ATOM     14  O   UNL     1       8.015   5.399  20.434  0.00  0.00    +0.000 OA
ATOM     15  H   UNL     1       7.388   5.649  21.149  0.00  0.00    +0.000 HD
ENDBRANCH  13  14
ENDBRANCH   1  13
BRANCH   6  16
ATOM     16  O   UNL     1       7.685   4.788  16.522  0.00  0.00    +0.000 OA
ATOM     17  H   UNL     1       7.461   5.175  15.654  0.00  0.00    +0.000 HD
ENDBRANCH   6  16
TORSDOF 5
ENDMDL
MODEL 9
REMARK VINA RESULT:      -6.1      2.112      2.697
REMARK  Name = 
REMARK  5 active torsions:
REMARK  status: ('A' for Active; 'I' for Inactive)
REMARK    1  A    between atoms: C_2  and  O_3
REMARK    2  A    between atoms: C_2  and  C_4
REMARK    3  A    between atoms: C_6  and  S_7
REMARK    4  A    between atoms: S_7  and  O_10
REMARK    5  A    between atoms: C_13  and  O_14
REMARK                            x       y       z     vdW  Elec       q    Type
REMARK                         _______ _______ _______ _____ _____    ______ ____
ROOT
ATOM      1  C   UNL     1       4.192   3.830  19.049  0.00  0.00    +0.000 A 
ATOM      2  C   UNL     1       5.373   3.909  18.294  0.00  0.00    +0.000 A 
ATOM      3  C   UNL     1       5.531   4.933  17.356  0.00  0.00    +0.000 A 
ATOM      4  C   UNL     1       4.520   5.872  17.139  0.00  0.00    +0.000 A 
ATOM      5  C   UNL     1       3.345   5.801  17.889  0.00  0.00    +0.000 A 
ATOM      6  C   UNL     1       3.186   4.788  18.839  0.00  0.00    +0.000 A 
ENDROOT
BRANCH   3   7
ATOM      7  S   UNL     1       7.017   5.015  16.396  0.00  0.00    +0.000 S 
ATOM      8  O   UNL     1       6.787   4.280  15.171  0.00  0.00    +0.000 OA
ATOM      9  O   UNL     1       7.459   6.390  16.403  0.00  0.00    +0.000 OA
BRANCH   7  10
ATOM     10  O   UNL     1       8.080   4.126  17.221  0.00  0.00    +0.000 OA
ATOM     11  H   UNL     1       8.736   3.774  16.583  0.00  0.00    +0.000 HD
ENDBRANCH   7  10
ENDBRANCH   3   7
BRANCH   1  13
ATOM     12  O   UNL     1       3.132   2.600  20.790  0.00  0.00    +0.000 OA
ATOM     13  C   UNL     1       4.085   2.711  20.032  0.00  0.00    +0.000 C 
BRANCH  13  14
ATOM     14  O   UNL     1       5.114   1.840  20.035  0.00  0.00    +0.000 OA
ATOM     15  H   UNL     1       5.004   1.129  20.706  0.00  0.00    +0.000 HD
ENDBRANCH  13  14
ENDBRANCH   1  13
BRANCH   6  16
ATOM     16  O   UNL     1       2.026   4.737  19.569  0.00  0.00    +0.000 OA
ATOM     17  H   UNL     1       2.168   4.168  20.350  0.00  0.00    +0.000 HD
ENDBRANCH   6  16
TORSDOF 5
ENDMDL
