MODEL 1
REMARK VINA RESULT:      -8.0      0.000      0.000
REMARK  Name = 
REMARK  9 active torsions:
REMARK  status: ('A' for Active; 'I' for Inactive)
REMARK    1  A    between atoms: C_1  and  C_2
REMARK    2  A    between atoms: C_2  and  C_3
REMARK    3  A    between atoms: C_2  and  N_9
REMARK    4  A    between atoms: C_13  and  C_14
REMARK    5  A    between atoms: C_13  and  C_21
REMARK    6  A    between atoms: C_14  and  C_15
REMARK    7  A    between atoms: N_23  and  C_24
REMARK    8  A    between atoms: C_24  and  C_25
REMARK    9  A    between atoms: C_25  and  C_26
REMARK                            x       y       z     vdW  Elec       q    Type
REMARK                         _______ _______ _______ _____ _____    ______ ____
ROOT
ATOM      1  N   UNL     1       1.544   9.015  19.131  0.00  0.00    +0.000 N 
ATOM      2  C   UNL     1       1.479   8.300  20.284  0.00  0.00    +0.000 C 
ATOM      3  O   UNL     1       1.086   8.694  21.367  0.00  0.00    +0.000 OA
ATOM      4  O   UNL     1       1.906   7.020  20.079  0.00  0.00    +0.000 OA
ATOM      5  C   UNL     1       2.408   6.903  18.744  0.00  0.00    +0.000 C 
ATOM      6  C   UNL     1       2.224   8.287  18.208  0.00  0.00    +0.000 C 
ATOM      7  O   UNL     1       2.640   8.657  17.115  0.00  0.00    +0.000 OA
ENDROOT
BRANCH   5   8
ATOM      8  C   UNL     1       3.902   6.515  18.770  0.00  0.00    +0.000 C 
ATOM      9  O   UNL     1       4.434   5.998  19.751  0.00  0.00    +0.000 OA
ATOM     10  N   UNL     1       4.610   6.746  17.601  0.00  0.00    +0.000 N 
ATOM     11  H   UNL     1       4.247   7.424  16.936  0.00  0.00    +0.000 HD
BRANCH  10  12
ATOM     12  C   UNL     1       6.011   6.371  17.480  0.00  0.00    +0.000 C 
BRANCH  12  13
ATOM     13  C   UNL     1       6.191   4.865  17.268  0.00  0.00    +0.000 C 
BRANCH  13  14
ATOM     14  C   UNL     1       6.329   4.514  15.827  0.00  0.00    +0.000 A 
ATOM     15  C   UNL     1       7.068   5.190  14.830  0.00  0.00    +0.000 A 
ATOM     16  N   UNL     1       6.988   4.594  13.638  0.00  0.00    +0.000 NA
ATOM     17  N   UNL     1       6.192   3.536  13.865  0.00  0.00    +0.000 N 
ATOM     18  C   UNL     1       5.772   3.444  15.159  0.00  0.00    +0.000 A 
ATOM     19  H   UNL     1       5.979   2.915  13.089  0.00  0.00    +0.000 HD
ENDBRANCH  13  14
ENDBRANCH  12  13
ENDBRANCH  10  12
ENDBRANCH   5   8
BRANCH   1  21
ATOM     20  C   UNL     1       1.373  11.239  20.231  0.00  0.00    +0.000 C 
ATOM     21  C   UNL     1       1.068  10.395  18.987  0.00  0.00    +0.000 C 
BRANCH  21  22
ATOM     22  C   UNL     1      -0.405  10.494  18.608  0.00  0.00    +0.000 A 
ATOM     23  C   UNL     1      -0.944   9.711  17.577  0.00  0.00    +0.000 A 
ATOM     24  C   UNL     1      -2.254   9.904  17.139  0.00  0.00    +0.000 A 
ATOM     25  C   UNL     1      -3.076  10.826  17.778  0.00  0.00    +0.000 A 
ATOM     26  C   UNL     1      -2.597  11.531  18.879  0.00  0.00    +0.000 A 
ATOM     27  C   UNL     1      -1.266  11.376  19.285  0.00  0.00    +0.000 A 
ENDBRANCH  21  22
ENDBRANCH   1  21
BRANCH   5  28
ATOM     28  C   UNL     1       1.619   5.851  17.933  0.00  0.00    +0.000 C 
BRANCH  28  29
ATOM     29  C   UNL     1       1.815   4.381  18.262  0.00  0.00    +0.000 A 
ATOM     30  C   UNL     1       1.204   3.798  19.386  0.00  0.00    +0.000 A 
ATOM     31  C   UNL     1       1.333   2.429  19.641  0.00  0.00    +0.000 A 
ATOM     32  C   UNL     1       2.045   1.615  18.761  0.00  0.00    +0.000 A 
ATOM     33  C   UNL     1       2.651   2.179  17.642  0.00  0.00    +0.000 A 
ATOM     34  C   UNL     1       2.550   3.554  17.402  0.00  0.00    +0.000 A 
ENDBRANCH  28  29
ENDBRANCH   5  28
TORSDOF 8
ENDMDL
MODEL 2
REMARK VINA RESULT:      -7.9      0.201      1.370
REMARK  Name = 
REMARK  9 active torsions:
REMARK  status: ('A' for Active; 'I' for Inactive)
REMARK    1  A    between atoms: C_1  and  C_2
REMARK    2  A    between atoms: C_2  and  C_3
REMARK    3  A    between atoms: C_2  and  N_9
REMARK    4  A    between atoms: C_13  and  C_14
REMARK    5  A    between atoms: C_13  and  C_21
REMARK    6  A    between atoms: C_14  and  C_15
REMARK    7  A    between atoms: N_23  and  C_24
REMARK    8  A    between atoms: C_24  and  C_25
REMARK    9  A    between atoms: C_25  and  C_26
REMARK                            x       y       z     vdW  Elec       q    Type
REMARK                         _______ _______ _______ _____ _____    ______ ____
ROOT
ATOM      1  N   UNL     1       1.558   8.950  19.259  0.00  0.00    +0.000 N 
ATOM      2  C   UNL     1       1.485   8.191  20.383  0.00  0.00    +0.000 C 
ATOM      3  O   UNL     1       1.109   8.548  21.484  0.00  0.00    +0.000 OA
ATOM      4  O   UNL     1       1.882   6.911  20.123  0.00  0.00    +0.000 OA
ATOM      5  C   UNL     1       2.372   6.837  18.780  0.00  0.00    +0.000 C 
ATOM      6  C   UNL     1       2.215   8.246  18.302  0.00  0.00    +0.000 C 
ATOM      7  O   UNL     1       2.631   8.650  17.222  0.00  0.00    +0.000 OA
ENDROOT
BRANCH   5   8
ATOM      8  C   UNL     1       3.857   6.415  18.778  0.00  0.00    +0.000 C 
ATOM      9  O   UNL     1       4.390   5.867  19.742  0.00  0.00    +0.000 OA
ATOM     10  N   UNL     1       4.555   6.654  17.605  0.00  0.00    +0.000 N 
ATOM     11  H   UNL     1       4.198   7.353  16.959  0.00  0.00    +0.000 HD
BRANCH  10  12
ATOM     12  C   UNL     1       5.945   6.250  17.458  0.00  0.00    +0.000 C 
BRANCH  12  13
ATOM     13  C   UNL     1       6.083   4.766  17.104  0.00  0.00    +0.000 C 
BRANCH  13  14
ATOM     14  C   UNL     1       6.270   4.553  15.643  0.00  0.00    +0.000 A 
ATOM     15  C   UNL     1       5.480   3.779  14.763  0.00  0.00    +0.000 A 
ATOM     16  N   UNL     1       5.923   3.818  13.505  0.00  0.00    +0.000 NA
ATOM     17  N   UNL     1       7.003   4.612  13.573  0.00  0.00    +0.000 N 
ATOM     18  C   UNL     1       7.253   5.078  14.830  0.00  0.00    +0.000 A 
ATOM     19  H   UNL     1       7.523   4.797  12.719  0.00  0.00    +0.000 HD
ENDBRANCH  13  14
ENDBRANCH  12  13
ENDBRANCH  10  12
ENDBRANCH   5   8
BRANCH   1  21
ATOM     20  C   UNL     1       1.293  11.086  20.506  0.00  0.00    +0.000 C 
ATOM     21  C   UNL     1       1.112  10.345  19.175  0.00  0.00    +0.000 C 
BRANCH  21  22
ATOM     22  C   UNL     1      -0.313  10.498  18.655  0.00  0.00    +0.000 A 
ATOM     23  C   UNL     1      -1.207  11.404  19.244  0.00  0.00    +0.000 A 
ATOM     24  C   UNL     1      -2.548  11.441  18.859  0.00  0.00    +0.000 A 
ATOM     25  C   UNL     1      -3.000  10.632  17.823  0.00  0.00    +0.000 A 
ATOM     26  C   UNL     1      -2.103   9.809  17.147  0.00  0.00    +0.000 A 
ATOM     27  C   UNL     1      -0.770   9.732  17.568  0.00  0.00    +0.000 A 
ENDBRANCH  21  22
ENDBRANCH   1  21
BRANCH   5  28
ATOM     28  C   UNL     1       1.554   5.837  17.933  0.00  0.00    +0.000 C 
BRANCH  28  29
ATOM     29  C   UNL     1       1.728   4.350  18.194  0.00  0.00    +0.000 A 
ATOM     30  C   UNL     1       2.503   3.547  17.341  0.00  0.00    +0.000 A 
ATOM     31  C   UNL     1       2.715   2.194  17.628  0.00  0.00    +0.000 A 
ATOM     32  C   UNL     1       2.183   1.631  18.787  0.00  0.00    +0.000 A 
ATOM     33  C   UNL     1       1.417   2.418  19.643  0.00  0.00    +0.000 A 
ATOM     34  C   UNL     1       1.178   3.763  19.341  0.00  0.00    +0.000 A 
ENDBRANCH  28  29
ENDBRANCH   5  28
TORSDOF 8
ENDMDL
MODEL 3
REMARK VINA RESULT:      -7.9      3.547      6.926
REMARK  Name = 
REMARK  9 active torsions:
REMARK  status: ('A' for Active; 'I' for Inactive)
REMARK    1  A    between atoms: C_1  and  C_2
REMARK    2  A    between atoms: C_2  and  C_3
REMARK    3  A    between atoms: C_2  and  N_9
REMARK    4  A    between atoms: C_13  and  C_14
REMARK    5  A    between atoms: C_13  and  C_21
REMARK    6  A    between atoms: C_14  and  C_15
REMARK    7  A    between atoms: N_23  and  C_24
REMARK    8  A    between atoms: C_24  and  C_25
REMARK    9  A    between atoms: C_25  and  C_26
REMARK                            x       y       z     vdW  Elec       q    Type
REMARK                         _______ _______ _______ _____ _____    ______ ____
ROOT
ATOM      1  N   UNL     1       3.994   5.158  17.558  0.00  0.00    +0.000 N 
ATOM      2  C   UNL     1       4.795   4.059  17.567  0.00  0.00    +0.000 C 
ATOM      3  O   UNL     1       4.475   2.925  17.869  0.00  0.00    +0.000 OA
ATOM      4  O   UNL     1       6.057   4.384  17.161  0.00  0.00    +0.000 OA
ATOM      5  C   UNL     1       6.144   5.803  16.993  0.00  0.00    +0.000 C 
ATOM      6  C   UNL     1       4.768   6.256  17.364  0.00  0.00    +0.000 C 
ATOM      7  O   UNL     1       4.443   7.434  17.470  0.00  0.00    +0.000 OA
ENDROOT
BRANCH   5   8
ATOM      8  C   UNL     1       7.199   6.389  17.956  0.00  0.00    +0.000 C 
ATOM      9  O   UNL     1       7.756   5.712  18.818  0.00  0.00    +0.000 OA
ATOM     10  N   UNL     1       7.515   7.725  17.769  0.00  0.00    +0.000 N 
ATOM     11  H   UNL     1       6.854   8.319  17.276  0.00  0.00    +0.000 HD
BRANCH  10  12
ATOM     12  C   UNL     1       8.536   8.379  18.575  0.00  0.00    +0.000 C 
BRANCH  12  13
ATOM     13  C   UNL     1       8.711   9.854  18.203  0.00  0.00    +0.000 C 
BRANCH  13  14
ATOM     14  C   UNL     1       9.492  10.601  19.228  0.00  0.00    +0.000 A 
ATOM     15  C   UNL     1      10.705  11.306  19.060  0.00  0.00    +0.000 A 
ATOM     16  N   UNL     1      11.127  11.878  20.189  0.00  0.00    +0.000 NA
ATOM     17  N   UNL     1      10.189  11.538  21.088  0.00  0.00    +0.000 N 
ATOM     18  C   UNL     1       9.190  10.775  20.563  0.00  0.00    +0.000 A 
ATOM     19  H   UNL     1      10.294  11.865  22.044  0.00  0.00    +0.000 HD
ENDBRANCH  13  14
ENDBRANCH  12  13
ENDBRANCH  10  12
ENDBRANCH   5   8
BRANCH   1  21
ATOM     20  C   UNL     1       1.944   6.539  17.829  0.00  0.00    +0.000 C 
ATOM     21  C   UNL     1       2.556   5.133  17.848  0.00  0.00    +0.000 C 
BRANCH  21  22
ATOM     22  C   UNL     1       2.208   4.404  19.140  0.00  0.00    +0.000 A 
ATOM     23  C   UNL     1       2.659   4.873  20.382  0.00  0.00    +0.000 A 
ATOM     24  C   UNL     1       2.459   4.129  21.546  0.00  0.00    +0.000 A 
ATOM     25  C   UNL     1       1.733   2.944  21.501  0.00  0.00    +0.000 A 
ATOM     26  C   UNL     1       1.177   2.520  20.298  0.00  0.00    +0.000 A 
ATOM     27  C   UNL     1       1.423   3.238  19.121  0.00  0.00    +0.000 A 
ENDBRANCH  21  22
ENDBRANCH   1  21
BRANCH   5  28
ATOM     28  C   UNL     1       6.512   6.178  15.540  0.00  0.00    +0.000 C 
BRANCH  28  29
ATOM     29  C   UNL     1       6.361   5.125  14.455  0.00  0.00    +0.000 A 
ATOM     30  C   UNL     1       5.156   4.422  14.284  0.00  0.00    +0.000 A 
ATOM     31  C   UNL     1       5.004   3.505  13.238  0.00  0.00    +0.000 A 
ATOM     32  C   UNL     1       6.040   3.301  12.329  0.00  0.00    +0.000 A 
ATOM     33  C   UNL     1       7.237   3.994  12.485  0.00  0.00    +0.000 A 
ATOM     34  C   UNL     1       7.402   4.888  13.548  0.00  0.00    +0.000 A 
ENDBRANCH  28  29
ENDBRANCH   5  28
TORSDOF 8
ENDMDL
MODEL 4
REMARK VINA RESULT:      -7.8      3.501      6.823
REMARK  Name = 
REMARK  9 active torsions:
REMARK  status: ('A' for Active; 'I' for Inactive)
REMARK    1  A    between atoms: C_1  and  C_2
REMARK    2  A    between atoms: C_2  and  C_3
REMARK    3  A    between atoms: C_2  and  N_9
REMARK    4  A    between atoms: C_13  and  C_14
REMARK    5  A    between atoms: C_13  and  C_21
REMARK    6  A    between atoms: C_14  and  C_15
REMARK    7  A    between atoms: N_23  and  C_24
REMARK    8  A    between atoms: C_24  and  C_25
REMARK    9  A    between atoms: C_25  and  C_26
REMARK                            x       y       z     vdW  Elec       q    Type
REMARK                         _______ _______ _______ _____ _____    ______ ____
ROOT
ATOM      1  N   UNL     1       4.537   5.765  18.107  0.00  0.00    +0.000 N 
ATOM      2  C   UNL     1       5.100   5.245  19.229  0.00  0.00    +0.000 C 
ATOM      3  O   UNL     1       4.520   4.854  20.225  0.00  0.00    +0.000 OA
ATOM      4  O   UNL     1       6.458   5.192  19.102  0.00  0.00    +0.000 OA
ATOM      5  C   UNL     1       6.839   5.829  17.878  0.00  0.00    +0.000 C 
ATOM      6  C   UNL     1       5.522   6.266  17.320  0.00  0.00    +0.000 C 
ATOM      7  O   UNL     1       5.404   6.966  16.319  0.00  0.00    +0.000 OA
ENDROOT
BRANCH   5   8
ATOM      8  C   UNL     1       7.747   7.043  18.170  0.00  0.00    +0.000 C 
ATOM      9  O   UNL     1       8.646   7.010  19.009  0.00  0.00    +0.000 OA
ATOM     10  N   UNL     1       7.516   8.172  17.401  0.00  0.00    +0.000 N 
ATOM     11  H   UNL     1       6.613   8.279  16.949  0.00  0.00    +0.000 HD
BRANCH  10  12
ATOM     12  C   UNL     1       8.343   9.362  17.541  0.00  0.00    +0.000 C 
BRANCH  12  13
ATOM     13  C   UNL     1       8.833   9.563  18.978  0.00  0.00    +0.000 C 
BRANCH  13  14
ATOM     14  C   UNL     1       9.662  10.791  19.121  0.00  0.00    +0.000 A 
ATOM     15  C   UNL     1       9.949  11.521  20.296  0.00  0.00    +0.000 A 
ATOM     16  N   UNL     1      10.743  12.570  20.070  0.00  0.00    +0.000 NA
ATOM     17  N   UNL     1      10.964  12.520  18.747  0.00  0.00    +0.000 N 
ATOM     18  C   UNL     1      10.340  11.475  18.133  0.00  0.00    +0.000 A 
ATOM     19  H   UNL     1      11.555  13.233  18.328  0.00  0.00    +0.000 HD
ENDBRANCH  13  14
ENDBRANCH  12  13
ENDBRANCH  10  12
ENDBRANCH   5   8
BRANCH   1  21
ATOM     20  C   UNL     1       2.487   7.088  18.590  0.00  0.00    +0.000 C 
ATOM     21  C   UNL     1       3.091   5.869  17.882  0.00  0.00    +0.000 C 
BRANCH  21  22
ATOM     22  C   UNL     1       2.327   4.598  18.236  0.00  0.00    +0.000 A 
ATOM     23  C   UNL     1       1.392   4.580  19.282  0.00  0.00    +0.000 A 
ATOM     24  C   UNL     1       0.800   3.386  19.694  0.00  0.00    +0.000 A 
ATOM     25  C   UNL     1       1.068   2.203  19.015  0.00  0.00    +0.000 A 
ATOM     26  C   UNL     1       1.902   2.219  17.901  0.00  0.00    +0.000 A 
ATOM     27  C   UNL     1       2.539   3.406  17.520  0.00  0.00    +0.000 A 
ENDBRANCH  21  22
ENDBRANCH   1  21
BRANCH   5  28
ATOM     28  C   UNL     1       7.578   4.851  16.938  0.00  0.00    +0.000 C 
BRANCH  28  29
ATOM     29  C   UNL     1       6.981   4.565  15.570  0.00  0.00    +0.000 A 
ATOM     30  C   UNL     1       7.553   5.093  14.401  0.00  0.00    +0.000 A 
ATOM     31  C   UNL     1       7.038   4.767  13.141  0.00  0.00    +0.000 A 
ATOM     32  C   UNL     1       5.966   3.884  13.029  0.00  0.00    +0.000 A 
ATOM     33  C   UNL     1       5.393   3.350  14.180  0.00  0.00    +0.000 A 
ATOM     34  C   UNL     1       5.886   3.700  15.441  0.00  0.00    +0.000 A 
ENDBRANCH  28  29
ENDBRANCH   5  28
TORSDOF 8
ENDMDL
MODEL 5
REMARK VINA RESULT:      -7.8      3.586      6.880
REMARK  Name = 
REMARK  9 active torsions:
REMARK  status: ('A' for Active; 'I' for Inactive)
REMARK    1  A    between atoms: C_1  and  C_2
REMARK    2  A    between atoms: C_2  and  C_3
REMARK    3  A    between atoms: C_2  and  N_9
REMARK    4  A    between atoms: C_13  and  C_14
REMARK    5  A    between atoms: C_13  and  C_21
REMARK    6  A    between atoms: C_14  and  C_15
REMARK    7  A    between atoms: N_23  and  C_24
REMARK    8  A    between atoms: C_24  and  C_25
REMARK    9  A    between atoms: C_25  and  C_26
REMARK                            x       y       z     vdW  Elec       q    Type
REMARK                         _______ _______ _______ _____ _____    ______ ____
ROOT
ATOM      1  N   UNL     1       4.423   5.860  17.717  0.00  0.00    +0.000 N 
ATOM      2  C   UNL     1       5.142   5.611  18.844  0.00  0.00    +0.000 C 
ATOM      3  O   UNL     1       4.706   5.446  19.968  0.00  0.00    +0.000 OA
ATOM      4  O   UNL     1       6.475   5.545  18.555  0.00  0.00    +0.000 OA
ATOM      5  C   UNL     1       6.675   5.896  17.183  0.00  0.00    +0.000 C 
ATOM      6  C   UNL     1       5.283   6.183  16.717  0.00  0.00    +0.000 C 
ATOM      7  O   UNL     1       5.014   6.640  15.612  0.00  0.00    +0.000 OA
ENDROOT
BRANCH   5   8
ATOM      8  C   UNL     1       7.564   7.154  17.079  0.00  0.00    +0.000 C 
ATOM      9  O   UNL     1       8.489   7.245  16.274  0.00  0.00    +0.000 OA
ATOM     10  N   UNL     1       7.235   8.201  17.924  0.00  0.00    +0.000 N 
ATOM     11  H   UNL     1       6.687   8.003  18.757  0.00  0.00    +0.000 HD
BRANCH  10  12
ATOM     12  C   UNL     1       7.960   9.462  17.882  0.00  0.00    +0.000 C 
BRANCH  12  13
ATOM     13  C   UNL     1       9.034   9.551  18.971  0.00  0.00    +0.000 C 
BRANCH  13  14
ATOM     14  C   UNL     1       9.694  10.885  19.000  0.00  0.00    +0.000 A 
ATOM     15  C   UNL     1      10.233  11.570  20.112  0.00  0.00    +0.000 A 
ATOM     16  N   UNL     1      10.768  12.747  19.781  0.00  0.00    +0.000 NA
ATOM     17  N   UNL     1      10.569  12.824  18.456  0.00  0.00    +0.000 N 
ATOM     18  C   UNL     1       9.930  11.736  17.941  0.00  0.00    +0.000 A 
ATOM     19  H   UNL     1      10.898  13.651  17.965  0.00  0.00    +0.000 HD
ENDBRANCH  13  14
ENDBRANCH  12  13
ENDBRANCH  10  12
ENDBRANCH   5   8
BRANCH   1  21
ATOM     20  C   UNL     1       2.395   7.192  18.263  0.00  0.00    +0.000 C 
ATOM     21  C   UNL     1       2.958   5.896  17.665  0.00  0.00    +0.000 C 
BRANCH  21  22
ATOM     22  C   UNL     1       2.296   4.674  18.291  0.00  0.00    +0.000 A 
ATOM     23  C   UNL     1       2.419   3.404  17.710  0.00  0.00    +0.000 A 
ATOM     24  C   UNL     1       1.699   2.316  18.204  0.00  0.00    +0.000 A 
ATOM     25  C   UNL     1       0.907   2.459  19.338  0.00  0.00    +0.000 A 
ATOM     26  C   UNL     1       0.862   3.683  19.999  0.00  0.00    +0.000 A 
ATOM     27  C   UNL     1       1.542   4.789  19.473  0.00  0.00    +0.000 A 
ENDBRANCH  21  22
ENDBRANCH   1  21
BRANCH   5  28
ATOM     28  C   UNL     1       7.329   4.740  16.393  0.00  0.00    +0.000 C 
BRANCH  28  29
ATOM     29  C   UNL     1       6.979   4.574  14.923  0.00  0.00    +0.000 A 
ATOM     30  C   UNL     1       7.729   5.209  13.920  0.00  0.00    +0.000 A 
ATOM     31  C   UNL     1       7.443   4.994  12.567  0.00  0.00    +0.000 A 
ATOM     32  C   UNL     1       6.427   4.115  12.197  0.00  0.00    +0.000 A 
ATOM     33  C   UNL     1       5.679   3.475  13.182  0.00  0.00    +0.000 A 
ATOM     34  C   UNL     1       5.943   3.714  14.534  0.00  0.00    +0.000 A 
ENDBRANCH  28  29
ENDBRANCH   5  28
TORSDOF 8
ENDMDL
MODEL 6
REMARK VINA RESULT:      -7.7      0.881      1.079
REMARK  Name = 
REMARK  9 active torsions:
REMARK  status: ('A' for Active; 'I' for Inactive)
REMARK    1  A    between atoms: C_1  and  C_2
REMARK    2  A    between atoms: C_2  and  C_3
REMARK    3  A    between atoms: C_2  and  N_9
REMARK    4  A    between atoms: C_13  and  C_14
REMARK    5  A    between atoms: C_13  and  C_21
REMARK    6  A    between atoms: C_14  and  C_15
REMARK    7  A    between atoms: N_23  and  C_24
REMARK    8  A    between atoms: C_24  and  C_25
REMARK    9  A    between atoms: C_25  and  C_26
REMARK                            x       y       z     vdW  Elec       q    Type
REMARK                         _______ _______ _______ _____ _____    ______ ____
ROOT
ATOM      1  N   UNL     1       1.480   9.115  19.222  0.00  0.00    +0.000 N 
ATOM      2  C   UNL     1       1.618   8.375  20.353  0.00  0.00    +0.000 C 
ATOM      3  O   UNL     1       1.380   8.730  21.493  0.00  0.00    +0.000 OA
ATOM      4  O   UNL     1       2.058   7.119  20.052  0.00  0.00    +0.000 OA
ATOM      5  C   UNL     1       2.355   7.049  18.654  0.00  0.00    +0.000 C 
ATOM      6  C   UNL     1       2.039   8.434  18.188  0.00  0.00    +0.000 C 
ATOM      7  O   UNL     1       2.270   8.843  17.055  0.00  0.00    +0.000 OA
ENDROOT
BRANCH   5   8
ATOM      8  C   UNL     1       3.850   6.722  18.444  0.00  0.00    +0.000 C 
ATOM      9  O   UNL     1       4.543   7.307  17.613  0.00  0.00    +0.000 OA
ATOM     10  N   UNL     1       4.382   5.752  19.277  0.00  0.00    +0.000 N 
ATOM     11  H   UNL     1       3.751   5.094  19.726  0.00  0.00    +0.000 HD
BRANCH  10  12
ATOM     12  C   UNL     1       5.792   5.396  19.216  0.00  0.00    +0.000 C 
BRANCH  12  13
ATOM     13  C   UNL     1       6.041   4.154  18.355  0.00  0.00    +0.000 C 
BRANCH  13  14
ATOM     14  C   UNL     1       6.319   4.505  16.934  0.00  0.00    +0.000 A 
ATOM     15  C   UNL     1       5.469   4.359  15.815  0.00  0.00    +0.000 A 
ATOM     16  N   UNL     1       6.031   4.790  14.683  0.00  0.00    +0.000 NA
ATOM     17  N   UNL     1       7.245   5.209  15.072  0.00  0.00    +0.000 N 
ATOM     18  C   UNL     1       7.467   5.060  16.408  0.00  0.00    +0.000 A 
ATOM     19  H   UNL     1       7.874   5.589  14.369  0.00  0.00    +0.000 HD
ENDBRANCH  13  14
ENDBRANCH  12  13
ENDBRANCH  10  12
ENDBRANCH   5   8
BRANCH   1  21
ATOM     20  C   UNL     1       1.113  11.199  20.529  0.00  0.00    +0.000 C 
ATOM     21  C   UNL     1       0.935  10.477  19.188  0.00  0.00    +0.000 C 
BRANCH  21  22
ATOM     22  C   UNL     1      -0.514  10.541  18.721  0.00  0.00    +0.000 A 
ATOM     23  C   UNL     1      -0.975   9.735  17.670  0.00  0.00    +0.000 A 
ATOM     24  C   UNL     1      -2.261   9.896  17.153  0.00  0.00    +0.000 A 
ATOM     25  C   UNL     1      -3.137  10.807  17.731  0.00  0.00    +0.000 A 
ATOM     26  C   UNL     1      -2.739  11.534  18.849  0.00  0.00    +0.000 A 
ATOM     27  C   UNL     1      -1.432  11.412  19.335  0.00  0.00    +0.000 A 
ENDBRANCH  21  22
ENDBRANCH   1  21
BRANCH   5  28
ATOM     28  C   UNL     1       1.493   5.982  17.944  0.00  0.00    +0.000 C 
BRANCH  28  29
ATOM     29  C   UNL     1       1.674   4.524  18.332  0.00  0.00    +0.000 A 
ATOM     30  C   UNL     1       1.175   4.026  19.547  0.00  0.00    +0.000 A 
ATOM     31  C   UNL     1       1.284   2.667  19.863  0.00  0.00    +0.000 A 
ATOM     32  C   UNL     1       1.863   1.780  18.956  0.00  0.00    +0.000 A 
ATOM     33  C   UNL     1       2.357   2.261  17.746  0.00  0.00    +0.000 A 
ATOM     34  C   UNL     1       2.277   3.624  17.443  0.00  0.00    +0.000 A 
ENDBRANCH  28  29
ENDBRANCH   5  28
TORSDOF 8
ENDMDL
MODEL 7
REMARK VINA RESULT:      -7.5      2.176      4.273
REMARK  Name = 
REMARK  9 active torsions:
REMARK  status: ('A' for Active; 'I' for Inactive)
REMARK    1  A    between atoms: C_1  and  C_2
REMARK    2  A    between atoms: C_2  and  C_3
REMARK    3  A    between atoms: C_2  and  N_9
REMARK    4  A    between atoms: C_13  and  C_14
REMARK    5  A    between atoms: C_13  and  C_21
REMARK    6  A    between atoms: C_14  and  C_15
REMARK    7  A    between atoms: N_23  and  C_24
REMARK    8  A    between atoms: C_24  and  C_25
REMARK    9  A    between atoms: C_25  and  C_26
REMARK                            x       y       z     vdW  Elec       q    Type
REMARK                         _______ _______ _______ _____ _____    ______ ____
ROOT
ATOM      1  N   UNL     1       1.847   8.421  19.460  0.00  0.00    +0.000 N 
ATOM      2  C   UNL     1       2.252   8.365  18.164  0.00  0.00    +0.000 C 
ATOM      3  O   UNL     1       2.194   9.259  17.341  0.00  0.00    +0.000 OA
ATOM      4  O   UNL     1       2.773   7.136  17.880  0.00  0.00    +0.000 OA
ATOM      5  C   UNL     1       2.593   6.277  19.009  0.00  0.00    +0.000 C 
ATOM      6  C   UNL     1       1.888   7.169  19.982  0.00  0.00    +0.000 C 
ATOM      7  O   UNL     1       1.435   6.785  21.055  0.00  0.00    +0.000 OA
ENDROOT
BRANCH   5   8
ATOM      8  C   UNL     1       1.709   5.071  18.625  0.00  0.00    +0.000 C 
ATOM      9  O   UNL     1       1.369   4.844  17.465  0.00  0.00    +0.000 OA
ATOM     10  N   UNL     1       1.349   4.227  19.663  0.00  0.00    +0.000 N 
ATOM     11  H   UNL     1       1.381   4.582  20.615  0.00  0.00    +0.000 HD
BRANCH  10  12
ATOM     12  C   UNL     1       0.566   3.024  19.421  0.00  0.00    +0.000 C 
BRANCH  12  13
ATOM     13  C   UNL     1       1.437   1.844  18.980  0.00  0.00    +0.000 C 
BRANCH  13  14
ATOM     14  C   UNL     1       2.833   1.959  19.486  0.00  0.00    +0.000 A 
ATOM     15  C   UNL     1       3.266   2.283  20.791  0.00  0.00    +0.000 A 
ATOM     16  N   UNL     1       4.596   2.283  20.907  0.00  0.00    +0.000 NA
ATOM     17  N   UNL     1       5.021   1.965  19.674  0.00  0.00    +0.000 N 
ATOM     18  C   UNL     1       4.006   1.761  18.788  0.00  0.00    +0.000 A 
ATOM     19  H   UNL     1       6.022   1.901  19.508  0.00  0.00    +0.000 HD
ENDBRANCH  13  14
ENDBRANCH  12  13
ENDBRANCH  10  12
ENDBRANCH   5   8
BRANCH   1  21
ATOM     20  C   UNL     1       0.848   9.350  21.540  0.00  0.00    +0.000 C 
ATOM     21  C   UNL     1       1.330   9.630  20.111  0.00  0.00    +0.000 C 
BRANCH  21  22
ATOM     22  C   UNL     1       0.253  10.344  19.302  0.00  0.00    +0.000 A 
ATOM     23  C   UNL     1       0.400  11.686  18.923  0.00  0.00    +0.000 A 
ATOM     24  C   UNL     1      -0.644  12.376  18.306  0.00  0.00    +0.000 A 
ATOM     25  C   UNL     1      -1.824  11.715  17.984  0.00  0.00    +0.000 A 
ATOM     26  C   UNL     1      -1.947  10.353  18.247  0.00  0.00    +0.000 A 
ATOM     27  C   UNL     1      -0.920   9.673  18.913  0.00  0.00    +0.000 A 
ENDBRANCH  21  22
ENDBRANCH   1  21
BRANCH   5  28
ATOM     28  C   UNL     1       3.945   5.768  19.556  0.00  0.00    +0.000 C 
BRANCH  28  29
ATOM     29  C   UNL     1       5.015   5.338  18.566  0.00  0.00    +0.000 A 
ATOM     30  C   UNL     1       4.677   4.893  17.277  0.00  0.00    +0.000 A 
ATOM     31  C   UNL     1       5.673   4.566  16.349  0.00  0.00    +0.000 A 
ATOM     32  C   UNL     1       7.018   4.709  16.684  0.00  0.00    +0.000 A 
ATOM     33  C   UNL     1       7.365   5.153  17.957  0.00  0.00    +0.000 A 
ATOM     34  C   UNL     1       6.372   5.450  18.896  0.00  0.00    +0.000 A 
ENDBRANCH  28  29
ENDBRANCH   5  28
TORSDOF 8
ENDMDL
MODEL 8
REMARK VINA RESULT:      -7.5      3.576      6.779
REMARK  Name = 
REMARK  9 active torsions:
REMARK  status: ('A' for Active; 'I' for Inactive)
REMARK    1  A    between atoms: C_1  and  C_2
REMARK    2  A    between atoms: C_2  and  C_3
REMARK    3  A    between atoms: C_2  and  N_9
REMARK    4  A    between atoms: C_13  and  C_14
REMARK    5  A    between atoms: C_13  and  C_21
REMARK    6  A    between atoms: C_14  and  C_15
REMARK    7  A    between atoms: N_23  and  C_24
REMARK    8  A    between atoms: C_24  and  C_25
REMARK    9  A    between atoms: C_25  and  C_26
REMARK                            x       y       z     vdW  Elec       q    Type
REMARK                         _______ _______ _______ _____ _____    ______ ____
ROOT
ATOM      1  N   UNL     1       4.364   5.835  17.749  0.00  0.00    +0.000 N 
ATOM      2  C   UNL     1       5.086   5.640  18.884  0.00  0.00    +0.000 C 
ATOM      3  O   UNL     1       4.654   5.544  20.018  0.00  0.00    +0.000 OA
ATOM      4  O   UNL     1       6.416   5.541  18.594  0.00  0.00    +0.000 OA
ATOM      5  C   UNL     1       6.613   5.812  17.203  0.00  0.00    +0.000 C 
ATOM      6  C   UNL     1       5.222   6.091  16.729  0.00  0.00    +0.000 C 
ATOM      7  O   UNL     1       4.953   6.489  15.601  0.00  0.00    +0.000 OA
ENDROOT
BRANCH   5   8
ATOM      8  C   UNL     1       7.517   7.051  17.025  0.00  0.00    +0.000 C 
ATOM      9  O   UNL     1       8.280   7.181  16.069  0.00  0.00    +0.000 OA
ATOM     10  N   UNL     1       7.393   8.036  17.991  0.00  0.00    +0.000 N 
ATOM     11  H   UNL     1       7.002   7.788  18.895  0.00  0.00    +0.000 HD
BRANCH  10  12
ATOM     12  C   UNL     1       8.148   9.278  17.904  0.00  0.00    +0.000 C 
BRANCH  12  13
ATOM     13  C   UNL     1       9.007   9.523  19.148  0.00  0.00    +0.000 C 
BRANCH  13  14
ATOM     14  C   UNL     1       9.740  10.817  19.078  0.00  0.00    +0.000 A 
ATOM     15  C   UNL     1      10.133  11.538  17.928  0.00  0.00    +0.000 A 
ATOM     16  N   UNL     1      10.763  12.676  18.225  0.00  0.00    +0.000 NA
ATOM     17  N   UNL     1      10.782  12.687  19.567  0.00  0.00    +0.000 N 
ATOM     18  C   UNL     1      10.183  11.597  20.126  0.00  0.00    +0.000 A 
ATOM     19  H   UNL     1      11.220  13.474  20.039  0.00  0.00    +0.000 HD
ENDBRANCH  13  14
ENDBRANCH  12  13
ENDBRANCH  10  12
ENDBRANCH   5   8
BRANCH   1  21
ATOM     20  C   UNL     1       2.355   7.219  18.234  0.00  0.00    +0.000 C 
ATOM     21  C   UNL     1       2.899   5.887  17.702  0.00  0.00    +0.000 C 
BRANCH  21  22
ATOM     22  C   UNL     1       2.225   4.708  18.393  0.00  0.00    +0.000 A 
ATOM     23  C   UNL     1       2.256   3.423  17.832  0.00  0.00    +0.000 A 
ATOM     24  C   UNL     1       1.522   2.377  18.393  0.00  0.00    +0.000 A 
ATOM     25  C   UNL     1       0.810   2.576  19.570  0.00  0.00    +0.000 A 
ATOM     26  C   UNL     1       0.860   3.813  20.207  0.00  0.00    +0.000 A 
ATOM     27  C   UNL     1       1.553   4.877  19.617  0.00  0.00    +0.000 A 
ENDBRANCH  21  22
ENDBRANCH   1  21
BRANCH   5  28
ATOM     28  C   UNL     1       7.248   4.606  16.476  0.00  0.00    +0.000 C 
BRANCH  28  29
ATOM     29  C   UNL     1       6.944   4.403  15.001  0.00  0.00    +0.000 A 
ATOM     30  C   UNL     1       5.846   3.633  14.583  0.00  0.00    +0.000 A 
ATOM     31  C   UNL     1       5.534   3.510  13.224  0.00  0.00    +0.000 A 
ATOM     32  C   UNL     1       6.292   4.180  12.267  0.00  0.00    +0.000 A 
ATOM     33  C   UNL     1       7.381   4.950  12.669  0.00  0.00    +0.000 A 
ATOM     34  C   UNL     1       7.714   5.049  14.024  0.00  0.00    +0.000 A 
ENDBRANCH  28  29
ENDBRANCH   5  28
TORSDOF 8
ENDMDL
MODEL 9
REMARK VINA RESULT:      -7.4      3.505      6.815
REMARK  Name = 
REMARK  9 active torsions:
REMARK  status: ('A' for Active; 'I' for Inactive)
REMARK    1  A    between atoms: C_1  and  C_2
REMARK    2  A    between atoms: C_2  and  C_3
REMARK    3  A    between atoms: C_2  and  N_9
REMARK    4  A    between atoms: C_13  and  C_14
REMARK    5  A    between atoms: C_13  and  C_21
REMARK    6  A    between atoms: C_14  and  C_15
REMARK    7  A    between atoms: N_23  and  C_24
REMARK    8  A    between atoms: C_24  and  C_25
REMARK    9  A    between atoms: C_25  and  C_26
REMARK                            x       y       z     vdW  Elec       q    Type
REMARK                         _______ _______ _______ _____ _____    ______ ____
ROOT
ATOM      1  N   UNL     1       4.516   5.820  17.881  0.00  0.00    +0.000 N 
ATOM      2  C   UNL     1       5.151   5.502  19.039  0.00  0.00    +0.000 C 
ATOM      3  O   UNL     1       4.636   5.302  20.124  0.00  0.00    +0.000 OA
ATOM      4  O   UNL     1       6.497   5.410  18.837  0.00  0.00    +0.000 OA
ATOM      5  C   UNL     1       6.798   5.813  17.497  0.00  0.00    +0.000 C 
ATOM      6  C   UNL     1       5.448   6.161  16.955  0.00  0.00    +0.000 C 
ATOM      7  O   UNL     1       5.266   6.672  15.855  0.00  0.00    +0.000 OA
ENDROOT
BRANCH   5   8
ATOM      8  C   UNL     1       7.724   7.048  17.508  0.00  0.00    +0.000 C 
ATOM      9  O   UNL     1       8.078   7.619  16.478  0.00  0.00    +0.000 OA
ATOM     10  N   UNL     1       8.109   7.508  18.758  0.00  0.00    +0.000 N 
ATOM     11  H   UNL     1       8.059   6.872  19.549  0.00  0.00    +0.000 HD
BRANCH  10  12
ATOM     12  C   UNL     1       8.933   8.698  18.903  0.00  0.00    +0.000 C 
BRANCH  12  13
ATOM     13  C   UNL     1       8.316   9.919  18.214  0.00  0.00    +0.000 C 
BRANCH  13  14
ATOM     14  C   UNL     1       9.180  11.126  18.334  0.00  0.00    +0.000 A 
ATOM     15  C   UNL     1      10.409  11.258  19.018  0.00  0.00    +0.000 A 
ATOM     16  N   UNL     1      10.930  12.482  18.910  0.00  0.00    +0.000 NA
ATOM     17  N   UNL     1      10.033  13.143  18.161  0.00  0.00    +0.000 N 
ATOM     18  C   UNL     1       8.968  12.377  17.791  0.00  0.00    +0.000 A 
ATOM     19  H   UNL     1      10.213  14.118  17.938  0.00  0.00    +0.000 HD
ENDBRANCH  13  14
ENDBRANCH  12  13
ENDBRANCH  10  12
ENDBRANCH   5   8
BRANCH   1  21
ATOM     20  C   UNL     1       2.482   7.147  18.417  0.00  0.00    +0.000 C 
ATOM     21  C   UNL     1       3.058   5.901  17.734  0.00  0.00    +0.000 C 
BRANCH  21  22
ATOM     22  C   UNL     1       2.330   4.642  18.190  0.00  0.00    +0.000 A 
ATOM     23  C   UNL     1       1.461   4.665  19.291  0.00  0.00    +0.000 A 
ATOM     24  C   UNL     1       0.907   3.487  19.792  0.00  0.00    +0.000 A 
ATOM     25  C   UNL     1       1.145   2.275  19.152  0.00  0.00    +0.000 A 
ATOM     26  C   UNL     1       1.910   2.247  17.990  0.00  0.00    +0.000 A 
ATOM     27  C   UNL     1       2.510   3.420  17.518  0.00  0.00    +0.000 A 
ENDBRANCH  21  22
ENDBRANCH   1  21
BRANCH   5  28
ATOM     28  C   UNL     1       7.473   4.674  16.701  0.00  0.00    +0.000 C 
BRANCH  28  29
ATOM     29  C   UNL     1       7.050   4.443  15.260  0.00  0.00    +0.000 A 
ATOM     30  C   UNL     1       5.915   3.677  14.948  0.00  0.00    +0.000 A 
ATOM     31  C   UNL     1       5.493   3.529  13.621  0.00  0.00    +0.000 A 
ATOM     32  C   UNL     1       6.179   4.171  12.592  0.00  0.00    +0.000 A 
ATOM     33  C   UNL     1       7.303   4.937  12.889  0.00  0.00    +0.000 A 
ATOM     34  C   UNL     1       7.744   5.060  14.211  0.00  0.00    +0.000 A 
ENDBRANCH  28  29
ENDBRANCH   5  28
TORSDOF 8
ENDMDL
