MODEL 1
REMARK VINA RESULT:      -6.0      0.000      0.000
REMARK  Name = 
REMARK  1 active torsions:
REMARK  status: ('A' for Active; 'I' for Inactive)
REMARK    1  A    between atoms: C_2  and  C_3
REMARK                            x       y       z     vdW  Elec       q    Type
REMARK                         _______ _______ _______ _____ _____    ______ ____
ROOT
ATOM      1  C   UNL     1       6.533   5.373  15.005  0.00  0.00    +0.000 C 
ATOM      2  C   UNL     1       5.198   5.870  15.563  0.00  0.00    +0.000 C 
ATOM      3  C   UNL     1       5.075   5.586  17.007  0.00  0.00    +0.000 A 
ATOM      4  S   UNL     1       3.660   5.957  17.864  0.00  0.00    +0.000 S 
ATOM      5  C   UNL     1       4.346   5.369  19.311  0.00  0.00    +0.000 A 
ATOM      6  C   UNL     1       5.630   4.893  19.125  0.00  0.00    +0.000 A 
ATOM      7  C   UNL     1       6.068   5.015  17.768  0.00  0.00    +0.000 A 
ATOM      8  C   UNL     1       7.322   4.648  17.133  0.00  0.00    +0.000 C 
ATOM      9  N   UNL     1       8.288   4.169  17.959  0.00  0.00    +0.000 N 
ATOM     10  N   UNL     1       7.528   4.774  15.882  0.00  0.00    +0.000 NA
ATOM     11  H   UNL     1       8.086   3.832  18.888  0.00  0.00    +0.000 HD
ATOM     12  H   UNL     1       9.081   3.746  17.486  0.00  0.00    +0.000 HD
ENDROOT
BRANCH   1  14
ATOM     13  C   UNL     1       5.993   3.478  12.983  0.00  0.00    +0.000 C 
ATOM     14  C   UNL     1       6.242   4.353  13.916  0.00  0.00    +0.000 C 
ENDBRANCH   1  14
TORSDOF 1
ENDMDL
MODEL 2
REMARK VINA RESULT:      -5.9      1.993      3.426
REMARK  Name = 
REMARK  1 active torsions:
REMARK  status: ('A' for Active; 'I' for Inactive)
REMARK    1  A    between atoms: C_2  and  C_3
REMARK                            x       y       z     vdW  Elec       q    Type
REMARK                         _______ _______ _______ _____ _____    ______ ____
ROOT
ATOM      1  C   UNL     1       7.502   5.607  18.099  0.00  0.00    +0.000 C 
ATOM      2  C   UNL     1       6.373   5.429  19.117  0.00  0.00    +0.000 C 
ATOM      3  C   UNL     1       5.211   4.738  18.522  0.00  0.00    +0.000 A 
ATOM      4  S   UNL     1       3.787   4.482  19.405  0.00  0.00    +0.000 S 
ATOM      5  C   UNL     1       3.072   3.682  18.079  0.00  0.00    +0.000 A 
ATOM      6  C   UNL     1       3.915   3.626  16.986  0.00  0.00    +0.000 A 
ATOM      7  C   UNL     1       5.180   4.249  17.237  0.00  0.00    +0.000 A 
ATOM      8  C   UNL     1       6.345   4.420  16.386  0.00  0.00    +0.000 C 
ATOM      9  N   UNL     1       6.278   3.840  15.161  0.00  0.00    +0.000 N 
ATOM     10  N   UNL     1       7.383   5.061  16.756  0.00  0.00    +0.000 NA
ATOM     11  H   UNL     1       5.404   3.545  14.751  0.00  0.00    +0.000 HD
ATOM     12  H   UNL     1       7.008   4.121  14.516  0.00  0.00    +0.000 HD
ENDROOT
BRANCH   1  14
ATOM     13  C   UNL     1       7.999   8.370  17.808  0.00  0.00    +0.000 C 
ATOM     14  C   UNL     1       7.769   7.095  17.942  0.00  0.00    +0.000 C 
ENDBRANCH   1  14
TORSDOF 1
ENDMDL
MODEL 3
REMARK VINA RESULT:      -5.7      2.730      4.046
REMARK  Name = 
REMARK  1 active torsions:
REMARK  status: ('A' for Active; 'I' for Inactive)
REMARK    1  A    between atoms: C_2  and  C_3
REMARK                            x       y       z     vdW  Elec       q    Type
REMARK                         _______ _______ _______ _____ _____    ______ ____
ROOT
ATOM      1  C   UNL     1       5.026   5.274  18.891  0.00  0.00    +0.000 C 
ATOM      2  C   UNL     1       3.664   5.759  19.394  0.00  0.00    +0.000 C 
ATOM      3  C   UNL     1       2.858   4.646  19.933  0.00  0.00    +0.000 A 
ATOM      4  S   UNL     1       1.273   4.887  20.484  0.00  0.00    +0.000 S 
ATOM      5  C   UNL     1       1.135   3.239  20.903  0.00  0.00    +0.000 A 
ATOM      6  C   UNL     1       2.284   2.529  20.614  0.00  0.00    +0.000 A 
ATOM      7  C   UNL     1       3.306   3.350  20.039  0.00  0.00    +0.000 A 
ATOM      8  C   UNL     1       4.649   3.027  19.589  0.00  0.00    +0.000 C 
ATOM      9  N   UNL     1       5.056   1.749  19.801  0.00  0.00    +0.000 N 
ATOM     10  N   UNL     1       5.418   3.881  19.038  0.00  0.00    +0.000 NA
ATOM     11  H   UNL     1       4.408   1.003  20.002  0.00  0.00    +0.000 HD
ATOM     12  H   UNL     1       5.912   1.489  19.320  0.00  0.00    +0.000 HD
ENDROOT
BRANCH   1  14
ATOM     13  C   UNL     1       5.218   5.881  16.141  0.00  0.00    +0.000 C 
ATOM     14  C   UNL     1       5.129   5.601  17.410  0.00  0.00    +0.000 C 
ENDBRANCH   1  14
TORSDOF 1
ENDMDL
MODEL 4
REMARK VINA RESULT:      -5.5      2.744      3.701
REMARK  Name = 
REMARK  1 active torsions:
REMARK  status: ('A' for Active; 'I' for Inactive)
REMARK    1  A    between atoms: C_2  and  C_3
REMARK                            x       y       z     vdW  Elec       q    Type
REMARK                         _______ _______ _______ _____ _____    ______ ____
ROOT
ATOM      1  C   UNL     1       5.384   4.954  18.442  0.00  0.00    +0.000 C 
ATOM      2  C   UNL     1       3.967   5.239  17.938  0.00  0.00    +0.000 C 
ATOM      3  C   UNL     1       3.034   4.155  18.301  0.00  0.00    +0.000 A 
ATOM      4  S   UNL     1       1.415   4.176  17.797  0.00  0.00    +0.000 S 
ATOM      5  C   UNL     1       1.112   2.705  18.607  0.00  0.00    +0.000 A 
ATOM      6  C   UNL     1       2.238   2.215  19.240  0.00  0.00    +0.000 A 
ATOM      7  C   UNL     1       3.378   3.063  19.063  0.00  0.00    +0.000 A 
ATOM      8  C   UNL     1       4.744   2.939  19.543  0.00  0.00    +0.000 C 
ATOM      9  N   UNL     1       4.993   1.883  20.359  0.00  0.00    +0.000 N 
ATOM     10  N   UNL     1       5.662   3.768  19.239  0.00  0.00    +0.000 NA
ATOM     11  H   UNL     1       4.372   1.090  20.421  0.00  0.00    +0.000 HD
ATOM     12  H   UNL     1       5.977   1.702  20.533  0.00  0.00    +0.000 HD
ENDROOT
BRANCH   1  14
ATOM     13  C   UNL     1       7.111   4.851  16.212  0.00  0.00    +0.000 C 
ATOM     14  C   UNL     1       6.314   4.899  17.241  0.00  0.00    +0.000 C 
ENDBRANCH   1  14
TORSDOF 1
ENDMDL
MODEL 5
REMARK VINA RESULT:      -5.5      1.568      1.875
REMARK  Name = 
REMARK  1 active torsions:
REMARK  status: ('A' for Active; 'I' for Inactive)
REMARK    1  A    between atoms: C_2  and  C_3
REMARK                            x       y       z     vdW  Elec       q    Type
REMARK                         _______ _______ _______ _____ _____    ______ ____
ROOT
ATOM      1  C   UNL     1       6.142   5.415  16.249  0.00  0.00    +0.000 C 
ATOM      2  C   UNL     1       5.141   6.568  16.348  0.00  0.00    +0.000 C 
ATOM      3  C   UNL     1       4.268   6.428  17.530  0.00  0.00    +0.000 A 
ATOM      4  S   UNL     1       3.013   7.526  17.838  0.00  0.00    +0.000 S 
ATOM      5  C   UNL     1       2.593   6.692  19.266  0.00  0.00    +0.000 A 
ATOM      6  C   UNL     1       3.399   5.592  19.485  0.00  0.00    +0.000 A 
ATOM      7  C   UNL     1       4.390   5.427  18.465  0.00  0.00    +0.000 A 
ATOM      8  C   UNL     1       5.428   4.424  18.296  0.00  0.00    +0.000 C 
ATOM      9  N   UNL     1       5.547   3.517  19.298  0.00  0.00    +0.000 N 
ATOM     10  N   UNL     1       6.200   4.392  17.282  0.00  0.00    +0.000 NA
ATOM     11  H   UNL     1       4.817   3.364  19.977  0.00  0.00    +0.000 HD
ATOM     12  H   UNL     1       6.140   2.721  19.084  0.00  0.00    +0.000 HD
ENDROOT
BRANCH   1  14
ATOM     13  C   UNL     1       5.699   4.071  13.806  0.00  0.00    +0.000 C 
ATOM     14  C   UNL     1       5.903   4.691  14.933  0.00  0.00    +0.000 C 
ENDBRANCH   1  14
TORSDOF 1
ENDMDL
MODEL 6
REMARK VINA RESULT:      -5.3      3.705      4.905
REMARK  Name = 
REMARK  1 active torsions:
REMARK  status: ('A' for Active; 'I' for Inactive)
REMARK    1  A    between atoms: C_2  and  C_3
REMARK                            x       y       z     vdW  Elec       q    Type
REMARK                         _______ _______ _______ _____ _____    ______ ____
ROOT
ATOM      1  C   UNL     1       3.475   6.005  17.707  0.00  0.00    +0.000 C 
ATOM      2  C   UNL     1       3.185   4.505  17.612  0.00  0.00    +0.000 C 
ATOM      3  C   UNL     1       2.486   4.011  18.814  0.00  0.00    +0.000 A 
ATOM      4  S   UNL     1       2.114   2.368  19.009  0.00  0.00    +0.000 S 
ATOM      5  C   UNL     1       1.370   2.683  20.511  0.00  0.00    +0.000 A 
ATOM      6  C   UNL     1       1.420   4.022  20.849  0.00  0.00    +0.000 A 
ATOM      7  C   UNL     1       2.078   4.813  19.854  0.00  0.00    +0.000 A 
ATOM      8  C   UNL     1       2.353   6.239  19.797  0.00  0.00    +0.000 C 
ATOM      9  N   UNL     1       1.849   6.983  20.814  0.00  0.00    +0.000 N 
ATOM     10  N   UNL     1       3.012   6.779  18.849  0.00  0.00    +0.000 NA
ATOM     11  H   UNL     1       1.544   6.572  21.684  0.00  0.00    +0.000 HD
ATOM     12  H   UNL     1       2.202   7.934  20.862  0.00  0.00    +0.000 HD
ENDROOT
BRANCH   1  14
ATOM     13  C   UNL     1       6.270   6.374  17.562  0.00  0.00    +0.000 C 
ATOM     14  C   UNL     1       4.980   6.203  17.629  0.00  0.00    +0.000 C 
ENDBRANCH   1  14
TORSDOF 1
ENDMDL
MODEL 7
REMARK VINA RESULT:      -5.3      3.447      4.958
REMARK  Name = 
REMARK  1 active torsions:
REMARK  status: ('A' for Active; 'I' for Inactive)
REMARK    1  A    between atoms: C_2  and  C_3
REMARK                            x       y       z     vdW  Elec       q    Type
REMARK                         _______ _______ _______ _____ _____    ______ ____
ROOT
ATOM      1  C   UNL     1       3.263   6.544  18.825  0.00  0.00    +0.000 C 
ATOM      2  C   UNL     1       2.274   5.763  19.692  0.00  0.00    +0.000 C 
ATOM      3  C   UNL     1       2.086   4.386  19.194  0.00  0.00    +0.000 A 
ATOM      4  S   UNL     1       0.981   3.325  19.921  0.00  0.00    +0.000 S 
ATOM      5  C   UNL     1       1.401   2.088  18.824  0.00  0.00    +0.000 A 
ATOM      6  C   UNL     1       2.362   2.495  17.920  0.00  0.00    +0.000 A 
ATOM      7  C   UNL     1       2.772   3.851  18.129  0.00  0.00    +0.000 A 
ATOM      8  C   UNL     1       3.739   4.675  17.424  0.00  0.00    +0.000 C 
ATOM      9  N   UNL     1       4.440   4.059  16.439  0.00  0.00    +0.000 N 
ATOM     10  N   UNL     1       3.941   5.901  17.710  0.00  0.00    +0.000 NA
ATOM     11  H   UNL     1       4.142   3.186  16.030  0.00  0.00    +0.000 HD
ATOM     12  H   UNL     1       4.969   4.683  15.838  0.00  0.00    +0.000 HD
ENDROOT
BRANCH   1  14
ATOM     13  C   UNL     1       1.921   8.791  17.765  0.00  0.00    +0.000 C 
ATOM     14  C   UNL     1       2.540   7.754  18.254  0.00  0.00    +0.000 C 
ENDBRANCH   1  14
TORSDOF 1
ENDMDL
MODEL 8
REMARK VINA RESULT:      -5.2      1.994      2.816
REMARK  Name = 
REMARK  1 active torsions:
REMARK  status: ('A' for Active; 'I' for Inactive)
REMARK    1  A    between atoms: C_2  and  C_3
REMARK                            x       y       z     vdW  Elec       q    Type
REMARK                         _______ _______ _______ _____ _____    ______ ____
ROOT
ATOM      1  C   UNL     1       5.768   5.234  17.538  0.00  0.00    +0.000 C 
ATOM      2  C   UNL     1       4.720   6.301  17.861  0.00  0.00    +0.000 C 
ATOM      3  C   UNL     1       3.749   5.820  18.864  0.00  0.00    +0.000 A 
ATOM      4  S   UNL     1       2.431   6.771  19.347  0.00  0.00    +0.000 S 
ATOM      5  C   UNL     1       1.915   5.560  20.431  0.00  0.00    +0.000 A 
ATOM      6  C   UNL     1       2.739   4.451  20.408  0.00  0.00    +0.000 A 
ATOM      7  C   UNL     1       3.824   4.595  19.485  0.00  0.00    +0.000 A 
ATOM      8  C   UNL     1       4.910   3.693  19.141  0.00  0.00    +0.000 C 
ATOM      9  N   UNL     1       4.971   2.538  19.851  0.00  0.00    +0.000 N 
ATOM     10  N   UNL     1       5.771   3.959  18.239  0.00  0.00    +0.000 NA
ATOM     11  H   UNL     1       4.189   2.190  20.385  0.00  0.00    +0.000 HD
ATOM     12  H   UNL     1       5.611   1.843  19.480  0.00  0.00    +0.000 HD
ENDROOT
BRANCH   1  14
ATOM     13  C   UNL     1       5.599   4.639  14.783  0.00  0.00    +0.000 C 
ATOM     14  C   UNL     1       5.677   4.914  16.055  0.00  0.00    +0.000 C 
ENDBRANCH   1  14
TORSDOF 1
ENDMDL
MODEL 9
REMARK VINA RESULT:      -5.2      2.052      4.260
REMARK  Name = 
REMARK  1 active torsions:
REMARK  status: ('A' for Active; 'I' for Inactive)
REMARK    1  A    between atoms: C_2  and  C_3
REMARK                            x       y       z     vdW  Elec       q    Type
REMARK                         _______ _______ _______ _____ _____    ______ ____
ROOT
ATOM      1  C   UNL     1       3.754   5.125  18.940  0.00  0.00    +0.000 C 
ATOM      2  C   UNL     1       3.738   4.741  17.459  0.00  0.00    +0.000 C 
ATOM      3  C   UNL     1       5.101   4.701  16.895  0.00  0.00    +0.000 A 
ATOM      4  S   UNL     1       5.370   4.381  15.251  0.00  0.00    +0.000 S 
ATOM      5  C   UNL     1       7.057   4.498  15.473  0.00  0.00    +0.000 A 
ATOM      6  C   UNL     1       7.394   4.784  16.782  0.00  0.00    +0.000 A 
ATOM      7  C   UNL     1       6.246   4.908  17.628  0.00  0.00    +0.000 A 
ATOM      8  C   UNL     1       6.134   5.199  19.047  0.00  0.00    +0.000 C 
ATOM      9  N   UNL     1       7.304   5.308  19.726  0.00  0.00    +0.000 N 
ATOM     10  N   UNL     1       5.013   5.332  19.639  0.00  0.00    +0.000 NA
ATOM     11  H   UNL     1       8.187   5.450  19.260  0.00  0.00    +0.000 HD
ATOM     12  H   UNL     1       7.219   5.691  20.662  0.00  0.00    +0.000 HD
ENDROOT
BRANCH   1  14
ATOM     13  C   UNL     1       2.257   7.498  19.252  0.00  0.00    +0.000 C 
ATOM     14  C   UNL     1       2.948   6.402  19.108  0.00  0.00    +0.000 C 
ENDBRANCH   1  14
TORSDOF 1
ENDMDL
