MODEL 1
REMARK VINA RESULT:      -9.3      0.000      0.000
REMARK  Name = 
REMARK  6 active torsions:
REMARK  status: ('A' for Active; 'I' for Inactive)
REMARK    1  A    between atoms: C_1  and  C_2
REMARK    2  A    between atoms: C_2  and  C_4
REMARK    3  A    between atoms: C_7  and  N_8
REMARK    4  A    between atoms: C_9  and  C_11
REMARK    5  A    between atoms: C_11  and  C_12
REMARK    6  A    between atoms: C_12  and  C_13
REMARK                            x       y       z     vdW  Elec       q    Type
REMARK                         _______ _______ _______ _____ _____    ______ ____
ROOT
ATOM      1  C   UNL     1       5.852   5.449  18.176  0.00  0.00    +0.000 A 
ATOM      2  N   UNL     1       6.139   4.183  18.418  0.00  0.00    +0.000 NA
ATOM      3  N   UNL     1       5.080   3.631  19.102  0.00  0.00    +0.000 NA
ATOM      4  C   UNL     1       4.177   4.571  19.268  0.00  0.00    +0.000 A 
ATOM      5  C   UNL     1       2.944   4.602  19.941  0.00  0.00    +0.000 A 
ATOM      6  C   UNL     1       2.256   5.749  19.968  0.00  0.00    +0.000 A 
ATOM      7  C   UNL     1       2.792   6.947  19.230  0.00  0.00    +0.000 A 
ATOM      8  N   UNL     1       2.012   8.089  19.221  0.00  0.00    +0.000 N 
ATOM      9  C   UNL     1       1.658   8.774  20.465  0.00  0.00    +0.000 C 
ATOM     10  C   UNL     1       0.202   9.204  20.378  0.00  0.00    +0.000 C 
ATOM     11  C   UNL     1      -0.027  10.082  19.147  0.00  0.00    +0.000 C 
ATOM     12  C   UNL     1       0.520   9.435  17.871  0.00  0.00    +0.000 C 
ATOM     13  C   UNL     1       1.961   8.965  18.049  0.00  0.00    +0.000 C 
ATOM     14  O   UNL     1       0.609  11.355  19.365  0.00  0.00    +0.000 OA
ATOM     15  C   UNL     1      -0.384  12.327  19.035  0.00  0.00    +0.000 C 
ATOM     16  C   UNL     1      -1.679  11.637  19.360  0.00  0.00    +0.000 C 
ATOM     17  O   UNL     1      -1.442  10.286  18.976  0.00  0.00    +0.000 OA
ATOM     18  N   UNL     1       3.929   6.926  18.586  0.00  0.00    +0.000 NA
ATOM     19  N   UNL     1       4.594   5.735  18.658  0.00  0.00    +0.000 N 
ENDROOT
BRANCH   1  20
ATOM     20  C   UNL     1       6.731   6.442  17.512  0.00  0.00    +0.000 C 
BRANCH  20  21
ATOM     21  C   UNL     1       7.910   6.843  18.389  0.00  0.00    +0.000 C 
BRANCH  21  23
ATOM     22  N   UNL     1       8.983   8.864  19.208  0.00  0.00    +0.000 N 
ATOM     23  C   UNL     1       8.176   8.315  18.221  0.00  0.00    +0.000 C 
ATOM     24  O   UNL     1       7.739   8.901  17.234  0.00  0.00    +0.000 OA
ATOM     25  H   UNL     1       9.416   8.228  19.870  0.00  0.00    +0.000 HD
BRANCH  22  29
ATOM     26  C   UNL     1      10.159  12.915  19.506  0.00  0.00    +0.000 A 
ATOM     27  C   UNL     1       9.935  12.346  18.255  0.00  0.00    +0.000 A 
ATOM     28  C   UNL     1       9.538  11.013  18.151  0.00  0.00    +0.000 A 
ATOM     29  C   UNL     1       9.358  10.222  19.288  0.00  0.00    +0.000 A 
ATOM     30  C   UNL     1       9.552  10.800  20.547  0.00  0.00    +0.000 A 
ATOM     31  C   UNL     1       9.964  12.137  20.656  0.00  0.00    +0.000 A 
BRANCH  26  33
ATOM     32  C   UNL     1       9.540  15.421  19.610  0.00  0.00    +0.000 C 
ATOM     33  C   UNL     1      10.593  14.340  19.640  0.00  0.00    +0.000 C 
ATOM     34  O   UNL     1      11.781  14.604  19.783  0.00  0.00    +0.000 OA
ENDBRANCH  26  33
ENDBRANCH  22  29
ENDBRANCH  21  23
ENDBRANCH  20  21
ENDBRANCH   1  20
TORSDOF 5
ENDMDL
MODEL 2
REMARK VINA RESULT:      -9.0      4.214      9.240
REMARK  Name = 
REMARK  6 active torsions:
REMARK  status: ('A' for Active; 'I' for Inactive)
REMARK    1  A    between atoms: C_1  and  C_2
REMARK    2  A    between atoms: C_2  and  C_4
REMARK    3  A    between atoms: C_7  and  N_8
REMARK    4  A    between atoms: C_9  and  C_11
REMARK    5  A    between atoms: C_11  and  C_12
REMARK    6  A    between atoms: C_12  and  C_13
REMARK                            x       y       z     vdW  Elec       q    Type
REMARK                         _______ _______ _______ _____ _____    ______ ____
ROOT
ATOM      1  C   UNL     1       9.627  10.860  18.838  0.00  0.00    +0.000 A 
ATOM      2  N   UNL     1      10.392  11.349  17.880  0.00  0.00    +0.000 NA
ATOM      3  N   UNL     1      10.631  12.675  18.161  0.00  0.00    +0.000 NA
ATOM      4  C   UNL     1      10.002  12.965  19.278  0.00  0.00    +0.000 A 
ATOM      5  C   UNL     1       9.835  14.162  19.996  0.00  0.00    +0.000 A 
ATOM      6  C   UNL     1       9.086  14.147  21.104  0.00  0.00    +0.000 A 
ATOM      7  C   UNL     1       8.495  12.845  21.576  0.00  0.00    +0.000 A 
ATOM      8  N   UNL     1       7.791  12.861  22.766  0.00  0.00    +0.000 N 
ATOM      9  C   UNL     1       6.590  13.683  22.923  0.00  0.00    +0.000 C 
ATOM     10  C   UNL     1       6.624  14.323  24.303  0.00  0.00    +0.000 C 
ATOM     11  C   UNL     1       6.741  13.253  25.389  0.00  0.00    +0.000 C 
ATOM     12  C   UNL     1       7.890  12.279  25.114  0.00  0.00    +0.000 C 
ATOM     13  C   UNL     1       7.836  11.728  23.691  0.00  0.00    +0.000 C 
ATOM     14  O   UNL     1       5.495  12.535  25.464  0.00  0.00    +0.000 OA
ATOM     15  C   UNL     1       5.159  12.518  26.852  0.00  0.00    +0.000 C 
ATOM     16  C   UNL     1       5.771  13.785  27.381  0.00  0.00    +0.000 C 
ATOM     17  O   UNL     1       6.991  13.897  26.653  0.00  0.00    +0.000 OA
ATOM     18  N   UNL     1       8.658  11.723  20.927  0.00  0.00    +0.000 NA
ATOM     19  N   UNL     1       9.386  11.838  19.778  0.00  0.00    +0.000 N 
ENDROOT
BRANCH   1  20
ATOM     20  C   UNL     1       9.077   9.485  18.913  0.00  0.00    +0.000 C 
BRANCH  20  21
ATOM     21  C   UNL     1       8.395   9.067  17.616  0.00  0.00    +0.000 C 
BRANCH  21  23
ATOM     22  N   UNL     1       6.460   7.684  17.115  0.00  0.00    +0.000 N 
ATOM     23  C   UNL     1       7.638   7.787  17.845  0.00  0.00    +0.000 C 
ATOM     24  O   UNL     1       8.114   6.922  18.576  0.00  0.00    +0.000 OA
ATOM     25  H   UNL     1       6.275   8.398  16.418  0.00  0.00    +0.000 HD
BRANCH  22  29
ATOM     26  C   UNL     1       3.834   4.375  17.295  0.00  0.00    +0.000 A 
ATOM     27  C   UNL     1       3.435   5.607  17.805  0.00  0.00    +0.000 A 
ATOM     28  C   UNL     1       4.293   6.705  17.741  0.00  0.00    +0.000 A 
ATOM     29  C   UNL     1       5.564   6.596  17.170  0.00  0.00    +0.000 A 
ATOM     30  C   UNL     1       5.955   5.367  16.628  0.00  0.00    +0.000 A 
ATOM     31  C   UNL     1       5.099   4.257  16.703  0.00  0.00    +0.000 A 
BRANCH  26  33
ATOM     32  C   UNL     1       3.467   1.907  17.965  0.00  0.00    +0.000 C 
ATOM     33  C   UNL     1       2.933   3.183  17.362  0.00  0.00    +0.000 C 
ATOM     34  O   UNL     1       1.784   3.264  16.943  0.00  0.00    +0.000 OA
ENDBRANCH  26  33
ENDBRANCH  22  29
ENDBRANCH  21  23
ENDBRANCH  20  21
ENDBRANCH   1  20
TORSDOF 5
ENDMDL
MODEL 3
REMARK VINA RESULT:      -8.7      1.141      1.505
REMARK  Name = 
REMARK  6 active torsions:
REMARK  status: ('A' for Active; 'I' for Inactive)
REMARK    1  A    between atoms: C_1  and  C_2
REMARK    2  A    between atoms: C_2  and  C_4
REMARK    3  A    between atoms: C_7  and  N_8
REMARK    4  A    between atoms: C_9  and  C_11
REMARK    5  A    between atoms: C_11  and  C_12
REMARK    6  A    between atoms: C_12  and  C_13
REMARK                            x       y       z     vdW  Elec       q    Type
REMARK                         _______ _______ _______ _____ _____    ______ ____
ROOT
ATOM      1  C   UNL     1       4.958   5.621  17.779  0.00  0.00    +0.000 A 
ATOM      2  N   UNL     1       5.243   4.379  18.128  0.00  0.00    +0.000 NA
ATOM      3  N   UNL     1       4.334   3.988  19.084  0.00  0.00    +0.000 NA
ATOM      4  C   UNL     1       3.522   4.998  19.301  0.00  0.00    +0.000 A 
ATOM      5  C   UNL     1       2.462   5.194  20.202  0.00  0.00    +0.000 A 
ATOM      6  C   UNL     1       1.838   6.376  20.212  0.00  0.00    +0.000 A 
ATOM      7  C   UNL     1       2.249   7.435  19.224  0.00  0.00    +0.000 A 
ATOM      8  N   UNL     1       1.527   8.615  19.218  0.00  0.00    +0.000 N 
ATOM      9  C   UNL     1       1.471   9.472  20.403  0.00  0.00    +0.000 C 
ATOM     10  C   UNL     1       0.046   9.981  20.558  0.00  0.00    +0.000 C 
ATOM     11  C   UNL     1      -0.406  10.710  19.292  0.00  0.00    +0.000 C 
ATOM     12  C   UNL     1      -0.166   9.874  18.032  0.00  0.00    +0.000 C 
ATOM     13  C   UNL     1       1.261   9.337  17.973  0.00  0.00    +0.000 C 
ATOM     14  O   UNL     1       0.308  11.957  19.199  0.00  0.00    +0.000 OA
ATOM     15  C   UNL     1      -0.695  12.942  18.950  0.00  0.00    +0.000 C 
ATOM     16  C   UNL     1      -1.917  12.383  19.625  0.00  0.00    +0.000 C 
ATOM     17  O   UNL     1      -1.817  10.982  19.389  0.00  0.00    +0.000 OA
ATOM     18  N   UNL     1       3.221   7.259  18.369  0.00  0.00    +0.000 NA
ATOM     19  N   UNL     1       3.842   6.046  18.465  0.00  0.00    +0.000 N 
ENDROOT
BRANCH   1  20
ATOM     20  C   UNL     1       5.712   6.463  16.819  0.00  0.00    +0.000 C 
BRANCH  20  21
ATOM     21  C   UNL     1       7.214   6.217  16.894  0.00  0.00    +0.000 C 
BRANCH  21  23
ATOM     22  N   UNL     1       7.848   8.516  17.361  0.00  0.00    +0.000 N 
ATOM     23  C   UNL     1       7.833   7.211  17.838  0.00  0.00    +0.000 C 
ATOM     24  O   UNL     1       8.212   6.842  18.947  0.00  0.00    +0.000 OA
ATOM     25  H   UNL     1       7.346   8.708  16.500  0.00  0.00    +0.000 HD
BRANCH  22  29
ATOM     26  C   UNL     1       9.413  11.880  19.390  0.00  0.00    +0.000 A 
ATOM     27  C   UNL     1       9.564  10.608  19.934  0.00  0.00    +0.000 A 
ATOM     28  C   UNL     1       9.058   9.493  19.266  0.00  0.00    +0.000 A 
ATOM     29  C   UNL     1       8.391   9.624  18.045  0.00  0.00    +0.000 A 
ATOM     30  C   UNL     1       8.266  10.897  17.480  0.00  0.00    +0.000 A 
ATOM     31  C   UNL     1       8.762  12.023  18.157  0.00  0.00    +0.000 A 
BRANCH  26  33
ATOM     32  C   UNL     1      10.125  14.362  19.304  0.00  0.00    +0.000 C 
ATOM     33  C   UNL     1       9.940  13.089  20.095  0.00  0.00    +0.000 C 
ATOM     34  O   UNL     1      10.198  13.033  21.292  0.00  0.00    +0.000 OA
ENDBRANCH  26  33
ENDBRANCH  22  29
ENDBRANCH  21  23
ENDBRANCH  20  21
ENDBRANCH   1  20
TORSDOF 5
ENDMDL
MODEL 4
REMARK VINA RESULT:      -8.6      4.266      9.325
REMARK  Name = 
REMARK  6 active torsions:
REMARK  status: ('A' for Active; 'I' for Inactive)
REMARK    1  A    between atoms: C_1  and  C_2
REMARK    2  A    between atoms: C_2  and  C_4
REMARK    3  A    between atoms: C_7  and  N_8
REMARK    4  A    between atoms: C_9  and  C_11
REMARK    5  A    between atoms: C_11  and  C_12
REMARK    6  A    between atoms: C_12  and  C_13
REMARK                            x       y       z     vdW  Elec       q    Type
REMARK                         _______ _______ _______ _____ _____    ______ ____
ROOT
ATOM      1  C   UNL     1       9.362  10.985  18.496  0.00  0.00    +0.000 A 
ATOM      2  N   UNL     1      10.360  11.203  17.660  0.00  0.00    +0.000 NA
ATOM      3  N   UNL     1      11.162  12.182  18.202  0.00  0.00    +0.000 NA
ATOM      4  C   UNL     1      10.633  12.542  19.349  0.00  0.00    +0.000 A 
ATOM      5  C   UNL     1      10.974  13.529  20.290  0.00  0.00    +0.000 A 
ATOM      6  C   UNL     1      10.197  13.685  21.367  0.00  0.00    +0.000 A 
ATOM      7  C   UNL     1       9.021  12.766  21.566  0.00  0.00    +0.000 A 
ATOM      8  N   UNL     1       8.289  12.914  22.731  0.00  0.00    +0.000 N 
ATOM      9  C   UNL     1       7.605  14.170  23.040  0.00  0.00    +0.000 C 
ATOM     10  C   UNL     1       7.794  14.468  24.519  0.00  0.00    +0.000 C 
ATOM     11  C   UNL     1       7.285  13.305  25.372  0.00  0.00    +0.000 C 
ATOM     12  C   UNL     1       7.865  11.963  24.916  0.00  0.00    +0.000 C 
ATOM     13  C   UNL     1       7.704  11.758  23.412  0.00  0.00    +0.000 C 
ATOM     14  O   UNL     1       5.848  13.271  25.294  0.00  0.00    +0.000 OA
ATOM     15  C   UNL     1       5.404  13.180  26.648  0.00  0.00    +0.000 C 
ATOM     16  C   UNL     1       6.481  13.886  27.423  0.00  0.00    +0.000 C 
ATOM     17  O   UNL     1       7.678  13.522  26.740  0.00  0.00    +0.000 OA
ATOM     18  N   UNL     1       8.703  11.834  20.708  0.00  0.00    +0.000 NA
ATOM     19  N   UNL     1       9.513  11.781  19.610  0.00  0.00    +0.000 N 
ENDROOT
BRANCH   1  20
ATOM     20  C   UNL     1       8.227  10.052  18.292  0.00  0.00    +0.000 C 
BRANCH  20  21
ATOM     21  C   UNL     1       8.603   8.876  17.400  0.00  0.00    +0.000 C 
BRANCH  21  23
ATOM     22  N   UNL     1       6.664   7.481  16.952  0.00  0.00    +0.000 N 
ATOM     23  C   UNL     1       7.766   7.683  17.773  0.00  0.00    +0.000 C 
ATOM     24  O   UNL     1       8.123   6.956  18.696  0.00  0.00    +0.000 OA
ATOM     25  H   UNL     1       6.584   8.059  16.121  0.00  0.00    +0.000 HD
BRANCH  22  29
ATOM     26  C   UNL     1       3.761   4.441  17.409  0.00  0.00    +0.000 A 
ATOM     27  C   UNL     1       4.877   4.221  16.607  0.00  0.00    +0.000 A 
ATOM     28  C   UNL     1       5.843   5.217  16.459  0.00  0.00    +0.000 A 
ATOM     29  C   UNL     1       5.715   6.449  17.105  0.00  0.00    +0.000 A 
ATOM     30  C   UNL     1       4.611   6.660  17.937  0.00  0.00    +0.000 A 
ATOM     31  C   UNL     1       3.630   5.665  18.078  0.00  0.00    +0.000 A 
BRANCH  26  33
ATOM     32  C   UNL     1       1.294   3.824  17.865  0.00  0.00    +0.000 C 
ATOM     33  C   UNL     1       2.710   3.389  17.575  0.00  0.00    +0.000 C 
ATOM     34  O   UNL     1       3.008   2.206  17.460  0.00  0.00    +0.000 OA
ENDBRANCH  26  33
ENDBRANCH  22  29
ENDBRANCH  21  23
ENDBRANCH  20  21
ENDBRANCH   1  20
TORSDOF 5
ENDMDL
MODEL 5
REMARK VINA RESULT:      -8.5      4.451      7.084
REMARK  Name = 
REMARK  6 active torsions:
REMARK  status: ('A' for Active; 'I' for Inactive)
REMARK    1  A    between atoms: C_1  and  C_2
REMARK    2  A    between atoms: C_2  and  C_4
REMARK    3  A    between atoms: C_7  and  N_8
REMARK    4  A    between atoms: C_9  and  C_11
REMARK    5  A    between atoms: C_11  and  C_12
REMARK    6  A    between atoms: C_12  and  C_13
REMARK                            x       y       z     vdW  Elec       q    Type
REMARK                         _______ _______ _______ _____ _____    ______ ____
ROOT
ATOM      1  C   UNL     1       3.817   6.099  17.906  0.00  0.00    +0.000 A 
ATOM      2  N   UNL     1       3.958   4.791  17.795  0.00  0.00    +0.000 NA
ATOM      3  N   UNL     1       3.143   4.195  18.730  0.00  0.00    +0.000 NA
ATOM      4  C   UNL     1       2.531   5.151  19.393  0.00  0.00    +0.000 A 
ATOM      5  C   UNL     1       1.650   5.139  20.488  0.00  0.00    +0.000 A 
ATOM      6  C   UNL     1       1.218   6.307  20.977  0.00  0.00    +0.000 A 
ATOM      7  C   UNL     1       1.642   7.587  20.308  0.00  0.00    +0.000 A 
ATOM      8  N   UNL     1       1.112   8.767  20.800  0.00  0.00    +0.000 N 
ATOM      9  C   UNL     1       1.353   9.185  22.182  0.00  0.00    +0.000 C 
ATOM     10  C   UNL     1       0.057   9.750  22.743  0.00  0.00    +0.000 C 
ATOM     11  C   UNL     1      -0.453  10.897  21.870  0.00  0.00    +0.000 C 
ATOM     12  C   UNL     1      -0.522  10.505  20.391  0.00  0.00    +0.000 C 
ATOM     13  C   UNL     1       0.786   9.882  19.910  0.00  0.00    +0.000 C 
ATOM     14  O   UNL     1       0.420  12.029  22.039  0.00  0.00    +0.000 OA
ATOM     15  C   UNL     1      -0.448  13.133  22.295  0.00  0.00    +0.000 C 
ATOM     16  C   UNL     1      -1.633  12.504  22.973  0.00  0.00    +0.000 C 
ATOM     17  O   UNL     1      -1.780  11.257  22.300  0.00  0.00    +0.000 OA
ATOM     18  N   UNL     1       2.447   7.610  19.279  0.00  0.00    +0.000 NA
ATOM     19  N   UNL     1       2.885   6.380  18.881  0.00  0.00    +0.000 N 
ENDROOT
BRANCH   1  20
ATOM     20  C   UNL     1       4.547   7.135  17.134  0.00  0.00    +0.000 C 
BRANCH  20  21
ATOM     21  C   UNL     1       6.057   7.020  17.303  0.00  0.00    +0.000 C 
BRANCH  21  23
ATOM     22  N   UNL     1       5.919   5.856  15.175  0.00  0.00    +0.000 N 
ATOM     23  C   UNL     1       6.577   5.939  16.395  0.00  0.00    +0.000 C 
ATOM     24  O   UNL     1       7.546   5.269  16.741  0.00  0.00    +0.000 OA
ATOM     25  H   UNL     1       5.248   6.585  14.951  0.00  0.00    +0.000 HD
BRANCH  22  29
ATOM     26  C   UNL     1       6.691   3.037  12.118  0.00  0.00    +0.000 A 
ATOM     27  C   UNL     1       7.600   4.062  12.365  0.00  0.00    +0.000 A 
ATOM     28  C   UNL     1       7.355   4.990  13.377  0.00  0.00    +0.000 A 
ATOM     29  C   UNL     1       6.202   4.916  14.162  0.00  0.00    +0.000 A 
ATOM     30  C   UNL     1       5.302   3.869  13.937  0.00  0.00    +0.000 A 
ATOM     31  C   UNL     1       5.538   2.941  12.910  0.00  0.00    +0.000 A 
BRANCH  26  33
ATOM     32  C   UNL     1       6.041   0.819  10.964  0.00  0.00    +0.000 C 
ATOM     33  C   UNL     1       6.929   2.038  11.032  0.00  0.00    +0.000 C 
ATOM     34  O   UNL     1       7.823   2.227  10.215  0.00  0.00    +0.000 OA
ENDBRANCH  26  33
ENDBRANCH  22  29
ENDBRANCH  21  23
ENDBRANCH  20  21
ENDBRANCH   1  20
TORSDOF 5
ENDMDL
MODEL 6
REMARK VINA RESULT:      -8.2      4.566      7.540
REMARK  Name = 
REMARK  6 active torsions:
REMARK  status: ('A' for Active; 'I' for Inactive)
REMARK    1  A    between atoms: C_1  and  C_2
REMARK    2  A    between atoms: C_2  and  C_4
REMARK    3  A    between atoms: C_7  and  N_8
REMARK    4  A    between atoms: C_9  and  C_11
REMARK    5  A    between atoms: C_11  and  C_12
REMARK    6  A    between atoms: C_12  and  C_13
REMARK                            x       y       z     vdW  Elec       q    Type
REMARK                         _______ _______ _______ _____ _____    ______ ____
ROOT
ATOM      1  C   UNL     1       0.776   8.188  21.136  0.00  0.00    +0.000 A 
ATOM      2  N   UNL     1      -0.151   7.624  21.888  0.00  0.00    +0.000 NA
ATOM      3  N   UNL     1      -0.936   8.624  22.416  0.00  0.00    +0.000 NA
ATOM      4  C   UNL     1      -0.467   9.772  21.981  0.00  0.00    +0.000 A 
ATOM      5  C   UNL     1      -0.820  11.107  22.241  0.00  0.00    +0.000 A 
ATOM      6  C   UNL     1      -0.110  12.083  21.665  0.00  0.00    +0.000 A 
ATOM      7  C   UNL     1       1.002  11.722  20.716  0.00  0.00    +0.000 A 
ATOM      8  N   UNL     1       1.661  12.762  20.085  0.00  0.00    +0.000 N 
ATOM      9  C   UNL     1       2.387  13.774  20.853  0.00  0.00    +0.000 C 
ATOM     10  C   UNL     1       2.114  15.135  20.230  0.00  0.00    +0.000 C 
ATOM     11  C   UNL     1       2.506  15.137  18.751  0.00  0.00    +0.000 C 
ATOM     12  C   UNL     1       1.889  13.959  17.993  0.00  0.00    +0.000 C 
ATOM     13  C   UNL     1       2.140  12.633  18.708  0.00  0.00    +0.000 C 
ATOM     14  O   UNL     1       3.941  15.088  18.655  0.00  0.00    +0.000 OA
ATOM     15  C   UNL     1       4.288  16.131  17.742  0.00  0.00    +0.000 C 
ATOM     16  C   UNL     1       3.199  17.149  17.936  0.00  0.00    +0.000 C 
ATOM     17  O   UNL     1       2.034  16.356  18.146  0.00  0.00    +0.000 OA
ATOM     18  N   UNL     1       1.329  10.485  20.452  0.00  0.00    +0.000 NA
ATOM     19  N   UNL     1       0.592   9.553  21.126  0.00  0.00    +0.000 N 
ENDROOT
BRANCH   1  20
ATOM     20  C   UNL     1       1.873   7.495  20.418  0.00  0.00    +0.000 C 
BRANCH  20  21
ATOM     21  C   UNL     1       1.724   5.979  20.466  0.00  0.00    +0.000 C 
BRANCH  21  23
ATOM     22  N   UNL     1       3.512   6.029  18.821  0.00  0.00    +0.000 N 
ATOM     23  C   UNL     1       2.358   5.380  19.240  0.00  0.00    +0.000 C 
ATOM     24  O   UNL     1       1.879   4.363  18.745  0.00  0.00    +0.000 OA
ATOM     25  H   UNL     1       3.891   6.752  19.424  0.00  0.00    +0.000 HD
BRANCH  22  29
ATOM     26  C   UNL     1       5.842   5.040  15.433  0.00  0.00    +0.000 A 
ATOM     27  C   UNL     1       5.527   4.060  16.371  0.00  0.00    +0.000 A 
ATOM     28  C   UNL     1       4.752   4.378  17.486  0.00  0.00    +0.000 A 
ATOM     29  C   UNL     1       4.276   5.676  17.689  0.00  0.00    +0.000 A 
ATOM     30  C   UNL     1       4.564   6.655  16.732  0.00  0.00    +0.000 A 
ATOM     31  C   UNL     1       5.356   6.342  15.616  0.00  0.00    +0.000 A 
BRANCH  26  33
ATOM     32  C   UNL     1       6.195   3.660  13.278  0.00  0.00    +0.000 C 
ATOM     33  C   UNL     1       6.679   4.722  14.235  0.00  0.00    +0.000 C 
ATOM     34  O   UNL     1       7.726   5.330  14.045  0.00  0.00    +0.000 OA
ENDBRANCH  26  33
ENDBRANCH  22  29
ENDBRANCH  21  23
ENDBRANCH  20  21
ENDBRANCH   1  20
TORSDOF 5
ENDMDL
MODEL 7
REMARK VINA RESULT:      -8.2      1.359      1.748
REMARK  Name = 
REMARK  6 active torsions:
REMARK  status: ('A' for Active; 'I' for Inactive)
REMARK    1  A    between atoms: C_1  and  C_2
REMARK    2  A    between atoms: C_2  and  C_4
REMARK    3  A    between atoms: C_7  and  N_8
REMARK    4  A    between atoms: C_9  and  C_11
REMARK    5  A    between atoms: C_11  and  C_12
REMARK    6  A    between atoms: C_12  and  C_13
REMARK                            x       y       z     vdW  Elec       q    Type
REMARK                         _______ _______ _______ _____ _____    ______ ____
ROOT
ATOM      1  C   UNL     1       5.161   4.445  19.282  0.00  0.00    +0.000 A 
ATOM      2  N   UNL     1       5.126   3.143  19.502  0.00  0.00    +0.000 NA
ATOM      3  N   UNL     1       3.859   2.819  19.931  0.00  0.00    +0.000 NA
ATOM      4  C   UNL     1       3.154   3.927  19.969  0.00  0.00    +0.000 A 
ATOM      5  C   UNL     1       1.843   4.210  20.388  0.00  0.00    +0.000 A 
ATOM      6  C   UNL     1       1.414   5.476  20.344  0.00  0.00    +0.000 A 
ATOM      7  C   UNL     1       2.324   6.543  19.797  0.00  0.00    +0.000 A 
ATOM      8  N   UNL     1       1.814   7.825  19.700  0.00  0.00    +0.000 N 
ATOM      9  C   UNL     1       1.361   8.551  20.887  0.00  0.00    +0.000 C 
ATOM     10  C   UNL     1       0.073   9.282  20.540  0.00  0.00    +0.000 C 
ATOM     11  C   UNL     1       0.286  10.207  19.341  0.00  0.00    +0.000 C 
ATOM     12  C   UNL     1       0.938   9.478  18.163  0.00  0.00    +0.000 C 
ATOM     13  C   UNL     1       2.184   8.709  18.593  0.00  0.00    +0.000 C 
ATOM     14  O   UNL     1       1.111  11.312  19.753  0.00  0.00    +0.000 OA
ATOM     15  C   UNL     1       0.428  12.478  19.291  0.00  0.00    +0.000 C 
ATOM     16  C   UNL     1      -1.020  12.074  19.313  0.00  0.00    +0.000 C 
ATOM     17  O   UNL     1      -0.992  10.709  18.906  0.00  0.00    +0.000 OA
ATOM     18  N   UNL     1       3.539   6.290  19.389  0.00  0.00    +0.000 NA
ATOM     19  N   UNL     1       3.916   4.985  19.522  0.00  0.00    +0.000 N 
ENDROOT
BRANCH   1  20
ATOM     20  C   UNL     1       6.341   5.238  18.862  0.00  0.00    +0.000 C 
BRANCH  20  21
ATOM     21  C   UNL     1       6.223   5.728  17.424  0.00  0.00    +0.000 C 
BRANCH  21  23
ATOM     22  N   UNL     1       7.102   7.867  18.167  0.00  0.00    +0.000 N 
ATOM     23  C   UNL     1       7.182   6.866  17.207  0.00  0.00    +0.000 C 
ATOM     24  O   UNL     1       7.984   6.817  16.279  0.00  0.00    +0.000 OA
ATOM     25  H   UNL     1       6.514   7.698  18.976  0.00  0.00    +0.000 HD
BRANCH  22  29
ATOM     26  C   UNL     1       9.489  11.358  18.196  0.00  0.00    +0.000 A 
ATOM     27  C   UNL     1       8.352  11.300  17.394  0.00  0.00    +0.000 A 
ATOM     28  C   UNL     1       7.557  10.155  17.386  0.00  0.00    +0.000 A 
ATOM     29  C   UNL     1       7.877   9.047  18.176  0.00  0.00    +0.000 A 
ATOM     30  C   UNL     1       9.000   9.115  19.006  0.00  0.00    +0.000 A 
ATOM     31  C   UNL     1       9.811  10.261  19.006  0.00  0.00    +0.000 A 
BRANCH  26  33
ATOM     32  C   UNL     1      11.406  12.697  19.295  0.00  0.00    +0.000 C 
ATOM     33  C   UNL     1      10.361  12.574  18.213  0.00  0.00    +0.000 C 
ATOM     34  O   UNL     1      10.224  13.433  17.350  0.00  0.00    +0.000 OA
ENDBRANCH  26  33
ENDBRANCH  22  29
ENDBRANCH  21  23
ENDBRANCH  20  21
ENDBRANCH   1  20
TORSDOF 5
ENDMDL
MODEL 8
REMARK VINA RESULT:      -8.2      4.927      7.632
REMARK  Name = 
REMARK  6 active torsions:
REMARK  status: ('A' for Active; 'I' for Inactive)
REMARK    1  A    between atoms: C_1  and  C_2
REMARK    2  A    between atoms: C_2  and  C_4
REMARK    3  A    between atoms: C_7  and  N_8
REMARK    4  A    between atoms: C_9  and  C_11
REMARK    5  A    between atoms: C_11  and  C_12
REMARK    6  A    between atoms: C_12  and  C_13
REMARK                            x       y       z     vdW  Elec       q    Type
REMARK                         _______ _______ _______ _____ _____    ______ ____
ROOT
ATOM      1  C   UNL     1       0.573   8.755  21.339  0.00  0.00    +0.000 A 
ATOM      2  N   UNL     1      -0.083   8.074  22.260  0.00  0.00    +0.000 NA
ATOM      3  N   UNL     1      -0.820   8.967  23.004  0.00  0.00    +0.000 NA
ATOM      4  C   UNL     1      -0.591  10.170  22.526  0.00  0.00    +0.000 A 
ATOM      5  C   UNL     1      -1.010  11.451  22.925  0.00  0.00    +0.000 A 
ATOM      6  C   UNL     1      -0.564  12.512  22.245  0.00  0.00    +0.000 A 
ATOM      7  C   UNL     1       0.320  12.300  21.045  0.00  0.00    +0.000 A 
ATOM      8  N   UNL     1       0.696  13.421  20.326  0.00  0.00    +0.000 N 
ATOM      9  C   UNL     1       1.474  14.493  20.949  0.00  0.00    +0.000 C 
ATOM     10  C   UNL     1       0.919  15.826  20.472  0.00  0.00    +0.000 C 
ATOM     11  C   UNL     1       0.942  15.904  18.945  0.00  0.00    +0.000 C 
ATOM     12  C   UNL     1       0.290  14.679  18.298  0.00  0.00    +0.000 C 
ATOM     13  C   UNL     1       0.841  13.376  18.870  0.00  0.00    +0.000 C 
ATOM     14  O   UNL     1       2.310  16.020  18.511  0.00  0.00    +0.000 OA
ATOM     15  C   UNL     1       2.317  17.114  17.593  0.00  0.00    +0.000 C 
ATOM     16  C   UNL     1       1.205  17.998  18.085  0.00  0.00    +0.000 C 
ATOM     17  O   UNL     1       0.214  17.074  18.526  0.00  0.00    +0.000 OA
ATOM     18  N   UNL     1       0.701  11.113  20.653  0.00  0.00    +0.000 NA
ATOM     19  N   UNL     1       0.249  10.091  21.437  0.00  0.00    +0.000 N 
ENDROOT
BRANCH   1  20
ATOM     20  C   UNL     1       1.533   8.206  20.350  0.00  0.00    +0.000 C 
BRANCH  20  21
ATOM     21  C   UNL     1       1.865   6.744  20.623  0.00  0.00    +0.000 C 
BRANCH  21  23
ATOM     22  N   UNL     1       3.710   6.465  19.066  0.00  0.00    +0.000 N 
ATOM     23  C   UNL     1       2.400   6.114  19.366  0.00  0.00    +0.000 C 
ATOM     24  O   UNL     1       1.704   5.316  18.744  0.00  0.00    +0.000 OA
ATOM     25  H   UNL     1       4.225   6.999  19.759  0.00  0.00    +0.000 HD
BRANCH  22  29
ATOM     26  C   UNL     1       5.895   5.225  15.665  0.00  0.00    +0.000 A 
ATOM     27  C   UNL     1       5.762   4.370  16.755  0.00  0.00    +0.000 A 
ATOM     28  C   UNL     1       5.035   4.770  17.876  0.00  0.00    +0.000 A 
ATOM     29  C   UNL     1       4.429   6.027  17.934  0.00  0.00    +0.000 A 
ATOM     30  C   UNL     1       4.534   6.876  16.827  0.00  0.00    +0.000 A 
ATOM     31  C   UNL     1       5.276   6.483  15.702  0.00  0.00    +0.000 A 
BRANCH  26  33
ATOM     32  C   UNL     1       6.082   3.796  13.521  0.00  0.00    +0.000 C 
ATOM     33  C   UNL     1       6.678   4.820  14.456  0.00  0.00    +0.000 C 
ATOM     34  O   UNL     1       7.771   5.329  14.239  0.00  0.00    +0.000 OA
ENDBRANCH  26  33
ENDBRANCH  22  29
ENDBRANCH  21  23
ENDBRANCH  20  21
ENDBRANCH   1  20
TORSDOF 5
ENDMDL
MODEL 9
REMARK VINA RESULT:      -8.2      5.326      8.904
REMARK  Name = 
REMARK  6 active torsions:
REMARK  status: ('A' for Active; 'I' for Inactive)
REMARK    1  A    between atoms: C_1  and  C_2
REMARK    2  A    between atoms: C_2  and  C_4
REMARK    3  A    between atoms: C_7  and  N_8
REMARK    4  A    between atoms: C_9  and  C_11
REMARK    5  A    between atoms: C_11  and  C_12
REMARK    6  A    between atoms: C_12  and  C_13
REMARK                            x       y       z     vdW  Elec       q    Type
REMARK                         _______ _______ _______ _____ _____    ______ ____
ROOT
ATOM      1  C   UNL     1      -1.315  10.578  18.160  0.00  0.00    +0.000 A 
ATOM      2  N   UNL     1      -1.642   9.869  17.095  0.00  0.00    +0.000 NA
ATOM      3  N   UNL     1      -2.988  10.043  16.866  0.00  0.00    +0.000 NA
ATOM      4  C   UNL     1      -3.451  10.846  17.797  0.00  0.00    +0.000 A 
ATOM      5  C   UNL     1      -4.742  11.312  18.099  0.00  0.00    +0.000 A 
ATOM      6  C   UNL     1      -4.905  12.106  19.163  0.00  0.00    +0.000 A 
ATOM      7  C   UNL     1      -3.700  12.520  19.965  0.00  0.00    +0.000 A 
ATOM      8  N   UNL     1      -3.904  13.402  21.011  0.00  0.00    +0.000 N 
ATOM      9  C   UNL     1      -4.772  13.052  22.137  0.00  0.00    +0.000 C 
ATOM     10  C   UNL     1      -5.601  14.274  22.501  0.00  0.00    +0.000 C 
ATOM     11  C   UNL     1      -4.694  15.465  22.815  0.00  0.00    +0.000 C 
ATOM     12  C   UNL     1      -3.661  15.706  21.711  0.00  0.00    +0.000 C 
ATOM     13  C   UNL     1      -2.914  14.427  21.345  0.00  0.00    +0.000 C 
ATOM     14  O   UNL     1      -4.028  15.218  24.067  0.00  0.00    +0.000 OA
ATOM     15  C   UNL     1      -4.218  16.410  24.830  0.00  0.00    +0.000 C 
ATOM     16  C   UNL     1      -5.531  16.946  24.331  0.00  0.00    +0.000 C 
ATOM     17  O   UNL     1      -5.505  16.649  22.938  0.00  0.00    +0.000 OA
ATOM     18  N   UNL     1      -2.492  12.107  19.684  0.00  0.00    +0.000 NA
ATOM     19  N   UNL     1      -2.423  11.255  18.619  0.00  0.00    +0.000 N 
ENDROOT
BRANCH   1  20
ATOM     20  C   UNL     1       0.020  10.642  18.803  0.00  0.00    +0.000 C 
BRANCH  20  21
ATOM     21  C   UNL     1       0.046   9.928  20.148  0.00  0.00    +0.000 C 
BRANCH  21  23
ATOM     22  N   UNL     1       1.517   8.493  18.852  0.00  0.00    +0.000 N 
ATOM     23  C   UNL     1       1.114   8.868  20.127  0.00  0.00    +0.000 C 
ATOM     24  O   UNL     1       1.588   8.463  21.184  0.00  0.00    +0.000 OA
ATOM     25  H   UNL     1       1.164   9.033  18.068  0.00  0.00    +0.000 HD
BRANCH  22  29
ATOM     26  C   UNL     1       4.473   5.596  17.985  0.00  0.00    +0.000 A 
ATOM     27  C   UNL     1       3.472   5.312  18.910  0.00  0.00    +0.000 A 
ATOM     28  C   UNL     1       2.489   6.261  19.194  0.00  0.00    +0.000 A 
ATOM     29  C   UNL     1       2.485   7.507  18.564  0.00  0.00    +0.000 A 
ATOM     30  C   UNL     1       3.471   7.782  17.610  0.00  0.00    +0.000 A 
ATOM     31  C   UNL     1       4.469   6.836  17.332  0.00  0.00    +0.000 A 
BRANCH  26  33
ATOM     32  C   UNL     1       5.547   3.949  16.309  0.00  0.00    +0.000 C 
ATOM     33  C   UNL     1       5.541   4.596  17.672  0.00  0.00    +0.000 C 
ATOM     34  O   UNL     1       6.392   4.331  18.513  0.00  0.00    +0.000 OA
ENDBRANCH  26  33
ENDBRANCH  22  29
ENDBRANCH  21  23
ENDBRANCH  20  21
ENDBRANCH   1  20
TORSDOF 5
ENDMDL
