MODEL 1
REMARK VINA RESULT:      -8.0      0.000      0.000
REMARK  Name = 
REMARK  4 active torsions:
REMARK  status: ('A' for Active; 'I' for Inactive)
REMARK    1  A    between atoms: C_1  and  C_2
REMARK    2  A    between atoms: C_2  and  C_3
REMARK    3  A    between atoms: N_6  and  C_7
REMARK    4  A    between atoms: C_13  and  N_14
REMARK                            x       y       z     vdW  Elec       q    Type
REMARK                         _______ _______ _______ _____ _____    ______ ____
ROOT
ATOM      1  C   UNL     1       3.175   5.213  19.403  0.00  0.00    +0.000 A 
ATOM      2  N   UNL     1       4.205   5.212  18.532  0.00  0.00    +0.000 NA
ATOM      3  C   UNL     1       4.333   4.268  17.592  0.00  0.00    +0.000 A 
ATOM      4  N   UNL     1       5.409   4.315  16.747  0.00  0.00    +0.000 N 
ATOM      5  C   UNL     1       5.549   3.305  15.708  0.00  0.00    +0.000 C 
ATOM      6  C   UNL     1       6.072   4.021  14.462  0.00  0.00    +0.000 C 
ATOM      7  C   UNL     1       7.367   4.790  14.777  0.00  0.00    +0.000 C 
ATOM      8  C   UNL     1       7.190   5.734  15.979  0.00  0.00    +0.000 C 
ATOM      9  C   UNL     1       6.620   4.980  17.177  0.00  0.00    +0.000 C 
ATOM     10  N   UNL     1       3.452   3.289  17.418  0.00  0.00    +0.000 NA
ATOM     11  C   UNL     1       2.463   3.216  18.312  0.00  0.00    +0.000 A 
ATOM     12  C   UNL     1       1.469   2.196  18.327  0.00  0.00    +0.000 A 
ATOM     13  C   UNL     1       0.559   2.376  19.338  0.00  0.00    +0.000 A 
ATOM     14  S   UNL     1       0.905   3.764  20.272  0.00  0.00    +0.000 S 
ATOM     15  C   UNL     1       2.284   4.148  19.333  0.00  0.00    +0.000 A 
ENDROOT
BRANCH   1  19
ATOM     16  C   UNL     1       1.223   9.018  18.885  0.00  0.00    +0.000 A 
ATOM     17  C   UNL     1       2.034   7.931  18.711  0.00  0.00    +0.000 A 
ATOM     18  C   UNL     1       2.232   7.384  19.997  0.00  0.00    +0.000 A 
ATOM     19  N   UNL     1       2.967   6.293  20.283  0.00  0.00    +0.000 N 
ATOM     20  N   UNL     1       1.541   8.064  20.920  0.00  0.00    +0.000 NA
ATOM     21  N   UNL     1       0.946   9.045  20.225  0.00  0.00    +0.000 N 
ATOM     22  H   UNL     1       2.906   5.994  21.247  0.00  0.00    +0.000 HD
ATOM     23  H   UNL     1       0.376   9.713  20.731  0.00  0.00    +0.000 HD
BRANCH  16  25
ATOM     24  C   UNL     1      -0.708  10.436  18.243  0.00  0.00    +0.000 C 
ATOM     25  C   UNL     1       0.719  10.027  17.920  0.00  0.00    +0.000 C 
ENDBRANCH  16  25
ENDBRANCH   1  19
BRANCH   7  26
ATOM     26  N   UNL     1       7.813   5.564  13.615  0.00  0.00    +0.000 NA
ATOM     27  H   UNL     1       7.305   5.255  12.786  0.00  0.00    +0.000 HD
ATOM     28  H   UNL     1       8.796   5.369  13.428  0.00  0.00    +0.000 HD
ENDBRANCH   7  26
TORSDOF 3
ENDMDL
MODEL 2
REMARK VINA RESULT:      -7.9      1.862      6.678
REMARK  Name = 
REMARK  4 active torsions:
REMARK  status: ('A' for Active; 'I' for Inactive)
REMARK    1  A    between atoms: C_1  and  C_2
REMARK    2  A    between atoms: C_2  and  C_3
REMARK    3  A    between atoms: N_6  and  C_7
REMARK    4  A    between atoms: C_13  and  N_14
REMARK                            x       y       z     vdW  Elec       q    Type
REMARK                         _______ _______ _______ _____ _____    ______ ____
ROOT
ATOM      1  C   UNL     1       4.512   5.763  18.410  0.00  0.00    +0.000 A 
ATOM      2  N   UNL     1       3.815   6.915  18.332  0.00  0.00    +0.000 NA
ATOM      3  C   UNL     1       2.674   7.096  19.007  0.00  0.00    +0.000 A 
ATOM      4  N   UNL     1       2.008   8.285  18.875  0.00  0.00    +0.000 N 
ATOM      5  C   UNL     1       0.775   8.501  19.620  0.00  0.00    +0.000 C 
ATOM      6  C   UNL     1       0.796   9.954  20.098  0.00  0.00    +0.000 C 
ATOM      7  C   UNL     1       0.998  10.915  18.913  0.00  0.00    +0.000 C 
ATOM      8  C   UNL     1       2.238  10.541  18.083  0.00  0.00    +0.000 C 
ATOM      9  C   UNL     1       2.191   9.072  17.675  0.00  0.00    +0.000 C 
ATOM     10  N   UNL     1       2.158   6.185  19.825  0.00  0.00    +0.000 NA
ATOM     11  C   UNL     1       2.781   5.004  19.864  0.00  0.00    +0.000 A 
ATOM     12  C   UNL     1       2.334   3.887  20.626  0.00  0.00    +0.000 A 
ATOM     13  C   UNL     1       3.174   2.809  20.503  0.00  0.00    +0.000 A 
ATOM     14  S   UNL     1       4.493   3.138  19.468  0.00  0.00    +0.000 S 
ATOM     15  C   UNL     1       3.958   4.736  19.166  0.00  0.00    +0.000 A 
ENDROOT
BRANCH   1  19
ATOM     16  C   UNL     1       5.770   4.430  14.512  0.00  0.00    +0.000 A 
ATOM     17  C   UNL     1       5.168   4.500  15.738  0.00  0.00    +0.000 A 
ATOM     18  C   UNL     1       6.007   5.306  16.536  0.00  0.00    +0.000 A 
ATOM     19  N   UNL     1       5.786   5.640  17.822  0.00  0.00    +0.000 N 
ATOM     20  N   UNL     1       7.053   5.757  15.833  0.00  0.00    +0.000 NA
ATOM     21  N   UNL     1       6.887   5.212  14.618  0.00  0.00    +0.000 N 
ATOM     22  H   UNL     1       6.446   6.310  18.195  0.00  0.00    +0.000 HD
ATOM     23  H   UNL     1       7.587   5.399  13.910  0.00  0.00    +0.000 HD
BRANCH  16  25
ATOM     24  C   UNL     1       6.540   3.679  12.277  0.00  0.00    +0.000 C 
ATOM     25  C   UNL     1       5.401   3.684  13.283  0.00  0.00    +0.000 C 
ENDBRANCH  16  25
ENDBRANCH   1  19
BRANCH   7  26
ATOM     26  N   UNL     1       1.126  12.299  19.377  0.00  0.00    +0.000 NA
ATOM     27  H   UNL     1       1.584  12.310  20.289  0.00  0.00    +0.000 HD
ATOM     28  H   UNL     1       0.200  12.700  19.525  0.00  0.00    +0.000 HD
ENDBRANCH   7  26
TORSDOF 3
ENDMDL
MODEL 3
REMARK VINA RESULT:      -7.7      3.300      6.025
REMARK  Name = 
REMARK  4 active torsions:
REMARK  status: ('A' for Active; 'I' for Inactive)
REMARK    1  A    between atoms: C_1  and  C_2
REMARK    2  A    between atoms: C_2  and  C_3
REMARK    3  A    between atoms: N_6  and  C_7
REMARK    4  A    between atoms: C_13  and  N_14
REMARK                            x       y       z     vdW  Elec       q    Type
REMARK                         _______ _______ _______ _____ _____    ______ ____
ROOT
ATOM      1  C   UNL     1       0.777  10.061  19.686  0.00  0.00    +0.000 A 
ATOM      2  N   UNL     1       1.396   8.915  19.337  0.00  0.00    +0.000 NA
ATOM      3  C   UNL     1       1.493   7.881  20.180  0.00  0.00    +0.000 A 
ATOM      4  N   UNL     1       2.147   6.750  19.770  0.00  0.00    +0.000 N 
ATOM      5  C   UNL     1       2.242   5.610  20.672  0.00  0.00    +0.000 C 
ATOM      6  C   UNL     1       2.057   4.354  19.819  0.00  0.00    +0.000 C 
ATOM      7  C   UNL     1       3.065   4.330  18.657  0.00  0.00    +0.000 C 
ATOM      8  C   UNL     1       3.013   5.627  17.831  0.00  0.00    +0.000 C 
ATOM      9  C   UNL     1       3.152   6.848  18.734  0.00  0.00    +0.000 C 
ATOM     10  N   UNL     1       0.966   7.883  21.400  0.00  0.00    +0.000 NA
ATOM     11  C   UNL     1       0.415   9.029  21.805  0.00  0.00    +0.000 A 
ATOM     12  C   UNL     1      -0.135   9.241  23.102  0.00  0.00    +0.000 A 
ATOM     13  C   UNL     1      -0.658  10.501  23.242  0.00  0.00    +0.000 A 
ATOM     14  S   UNL     1      -0.479  11.432  21.820  0.00  0.00    +0.000 S 
ATOM     15  C   UNL     1       0.304  10.156  20.990  0.00  0.00    +0.000 A 
ENDROOT
BRANCH   1  19
ATOM     16  C   UNL     1      -2.385  10.676  16.826  0.00  0.00    +0.000 A 
ATOM     17  C   UNL     1      -1.375  10.114  17.556  0.00  0.00    +0.000 A 
ATOM     18  C   UNL     1      -0.564  11.186  17.985  0.00  0.00    +0.000 A 
ATOM     19  N   UNL     1       0.545  11.081  18.742  0.00  0.00    +0.000 N 
ATOM     20  N   UNL     1      -1.068  12.360  17.585  0.00  0.00    +0.000 NA
ATOM     21  N   UNL     1      -2.162  12.024  16.886  0.00  0.00    +0.000 N 
ATOM     22  H   UNL     1       0.933  11.968  19.034  0.00  0.00    +0.000 HD
ATOM     23  H   UNL     1      -2.704  12.766  16.459  0.00  0.00    +0.000 HD
BRANCH  16  25
ATOM     24  C   UNL     1      -3.294  10.184  14.571  0.00  0.00    +0.000 C 
ATOM     25  C   UNL     1      -3.505  10.060  16.070  0.00  0.00    +0.000 C 
ENDBRANCH  16  25
ENDBRANCH   1  19
BRANCH   7  26
ATOM     26  N   UNL     1       2.822   3.184  17.776  0.00  0.00    +0.000 NA
ATOM     27  H   UNL     1       2.178   3.459  17.032  0.00  0.00    +0.000 HD
ATOM     28  H   UNL     1       2.349   2.445  18.295  0.00  0.00    +0.000 HD
ENDBRANCH   7  26
TORSDOF 3
ENDMDL
MODEL 4
REMARK VINA RESULT:      -7.6      2.332      6.698
REMARK  Name = 
REMARK  4 active torsions:
REMARK  status: ('A' for Active; 'I' for Inactive)
REMARK    1  A    between atoms: C_1  and  C_2
REMARK    2  A    between atoms: C_2  and  C_3
REMARK    3  A    between atoms: N_6  and  C_7
REMARK    4  A    between atoms: C_13  and  N_14
REMARK                            x       y       z     vdW  Elec       q    Type
REMARK                         _______ _______ _______ _____ _____    ______ ____
ROOT
ATOM      1  C   UNL     1       3.323   6.098  18.105  0.00  0.00    +0.000 A 
ATOM      2  N   UNL     1       2.694   7.218  18.515  0.00  0.00    +0.000 NA
ATOM      3  C   UNL     1       2.014   7.263  19.667  0.00  0.00    +0.000 A 
ATOM      4  N   UNL     1       1.386   8.428  20.020  0.00  0.00    +0.000 N 
ATOM      5  C   UNL     1       0.659   8.495  21.280  0.00  0.00    +0.000 C 
ATOM      6  C   UNL     1       0.930   9.879  21.874  0.00  0.00    +0.000 C 
ATOM      7  C   UNL     1       0.562  10.985  20.869  0.00  0.00    +0.000 C 
ATOM      8  C   UNL     1       1.252  10.771  19.511  0.00  0.00    +0.000 C 
ATOM      9  C   UNL     1       0.991   9.362  18.989  0.00  0.00    +0.000 C 
ATOM     10  N   UNL     1       1.932   6.237  20.506  0.00  0.00    +0.000 NA
ATOM     11  C   UNL     1       2.477   5.090  20.093  0.00  0.00    +0.000 A 
ATOM     12  C   UNL     1       2.426   3.869  20.825  0.00  0.00    +0.000 A 
ATOM     13  C   UNL     1       3.088   2.854  20.182  0.00  0.00    +0.000 A 
ATOM     14  S   UNL     1       3.762   3.366  18.698  0.00  0.00    +0.000 S 
ATOM     15  C   UNL     1       3.177   4.962  18.894  0.00  0.00    +0.000 A 
ENDROOT
BRANCH   1  19
ATOM     16  C   UNL     1       7.373   7.446  17.529  0.00  0.00    +0.000 A 
ATOM     17  C   UNL     1       6.051   7.391  17.871  0.00  0.00    +0.000 A 
ATOM     18  C   UNL     1       5.459   6.467  16.984  0.00  0.00    +0.000 A 
ATOM     19  N   UNL     1       4.162   6.107  16.973  0.00  0.00    +0.000 N 
ATOM     20  N   UNL     1       6.373   5.936  16.163  0.00  0.00    +0.000 NA
ATOM     21  N   UNL     1       7.516   6.545  16.510  0.00  0.00    +0.000 N 
ATOM     22  H   UNL     1       3.946   5.355  16.331  0.00  0.00    +0.000 HD
ATOM     23  H   UNL     1       8.358   6.312  15.996  0.00  0.00    +0.000 HD
BRANCH  16  25
ATOM     24  C   UNL     1       8.169   9.759  17.945  0.00  0.00    +0.000 C 
ATOM     25  C   UNL     1       8.486   8.277  18.055  0.00  0.00    +0.000 C 
ENDBRANCH  16  25
ENDBRANCH   1  19
BRANCH   7  26
ATOM     26  N   UNL     1       0.920  12.307  21.391  0.00  0.00    +0.000 NA
ATOM     27  H   UNL     1       0.356  13.019  20.926  0.00  0.00    +0.000 HD
ATOM     28  H   UNL     1       1.888  12.520  21.154  0.00  0.00    +0.000 HD
ENDBRANCH   7  26
TORSDOF 3
ENDMDL
MODEL 5
REMARK VINA RESULT:      -7.3      3.394      6.412
REMARK  Name = 
REMARK  4 active torsions:
REMARK  status: ('A' for Active; 'I' for Inactive)
REMARK    1  A    between atoms: C_1  and  C_2
REMARK    2  A    between atoms: C_2  and  C_3
REMARK    3  A    between atoms: N_6  and  C_7
REMARK    4  A    between atoms: C_13  and  N_14
REMARK                            x       y       z     vdW  Elec       q    Type
REMARK                         _______ _______ _______ _____ _____    ______ ____
ROOT
ATOM      1  C   UNL     1       6.432   5.227  17.529  0.00  0.00    +0.000 A 
ATOM      2  N   UNL     1       5.337   5.029  18.291  0.00  0.00    +0.000 NA
ATOM      3  C   UNL     1       4.226   4.469  17.799  0.00  0.00    +0.000 A 
ATOM      4  N   UNL     1       3.144   4.308  18.622  0.00  0.00    +0.000 N 
ATOM      5  C   UNL     1       1.936   3.682  18.104  0.00  0.00    +0.000 C 
ATOM      6  C   UNL     1       1.391   2.784  19.216  0.00  0.00    +0.000 C 
ATOM      7  C   UNL     1       1.182   3.587  20.512  0.00  0.00    +0.000 C 
ATOM      8  C   UNL     1       2.458   4.341  20.925  0.00  0.00    +0.000 C 
ATOM      9  C   UNL     1       2.987   5.181  19.766  0.00  0.00    +0.000 C 
ATOM     10  N   UNL     1       4.122   4.035  16.548  0.00  0.00    +0.000 NA
ATOM     11  C   UNL     1       5.158   4.286  15.746  0.00  0.00    +0.000 A 
ATOM     12  C   UNL     1       5.198   3.960  14.359  0.00  0.00    +0.000 A 
ATOM     13  C   UNL     1       6.392   4.306  13.781  0.00  0.00    +0.000 A 
ATOM     14  S   UNL     1       7.461   5.031  14.899  0.00  0.00    +0.000 S 
ATOM     15  C   UNL     1       6.337   4.890  16.183  0.00  0.00    +0.000 A 
ENDROOT
BRANCH   1  19
ATOM     16  C   UNL     1       8.121   9.162  17.991  0.00  0.00    +0.000 A 
ATOM     17  C   UNL     1       7.545   8.042  17.460  0.00  0.00    +0.000 A 
ATOM     18  C   UNL     1       7.980   6.964  18.262  0.00  0.00    +0.000 A 
ATOM     19  N   UNL     1       7.643   5.672  18.093  0.00  0.00    +0.000 N 
ATOM     20  N   UNL     1       8.748   7.395  19.270  0.00  0.00    +0.000 NA
ATOM     21  N   UNL     1       8.819   8.721  19.082  0.00  0.00    +0.000 N 
ATOM     22  H   UNL     1       7.970   5.059  18.829  0.00  0.00    +0.000 HD
ATOM     23  H   UNL     1       9.379   9.267  19.726  0.00  0.00    +0.000 HD
BRANCH  16  25
ATOM     24  C   UNL     1       9.200  11.385  18.204  0.00  0.00    +0.000 C 
ATOM     25  C   UNL     1       8.089  10.580  17.552  0.00  0.00    +0.000 C 
ENDBRANCH  16  25
ENDBRANCH   1  19
BRANCH   7  26
ATOM     26  N   UNL     1       0.762   2.710  21.609  0.00  0.00    +0.000 NA
ATOM     27  H   UNL     1       1.309   1.849  21.584  0.00  0.00    +0.000 HD
ATOM     28  H   UNL     1      -0.208   2.428  21.472  0.00  0.00    +0.000 HD
ENDBRANCH   7  26
TORSDOF 3
ENDMDL
MODEL 6
REMARK VINA RESULT:      -7.0      1.913      6.793
REMARK  Name = 
REMARK  4 active torsions:
REMARK  status: ('A' for Active; 'I' for Inactive)
REMARK    1  A    between atoms: C_1  and  C_2
REMARK    2  A    between atoms: C_2  and  C_3
REMARK    3  A    between atoms: N_6  and  C_7
REMARK    4  A    between atoms: C_13  and  N_14
REMARK                            x       y       z     vdW  Elec       q    Type
REMARK                         _______ _______ _______ _____ _____    ______ ____
ROOT
ATOM      1  C   UNL     1       4.142   5.791  19.097  0.00  0.00    +0.000 A 
ATOM      2  N   UNL     1       3.372   6.886  19.261  0.00  0.00    +0.000 NA
ATOM      3  C   UNL     1       2.248   6.856  19.987  0.00  0.00    +0.000 A 
ATOM      4  N   UNL     1       1.503   7.999  20.103  0.00  0.00    +0.000 N 
ATOM      5  C   UNL     1       0.288   7.984  20.906  0.00  0.00    +0.000 C 
ATOM      6  C   UNL     1       0.236   9.317  21.654  0.00  0.00    +0.000 C 
ATOM      7  C   UNL     1       0.332  10.498  20.672  0.00  0.00    +0.000 C 
ATOM      8  C   UNL     1       1.561  10.375  19.754  0.00  0.00    +0.000 C 
ATOM      9  C   UNL     1       1.591   9.011  19.073  0.00  0.00    +0.000 C 
ATOM     10  N   UNL     1       1.822   5.772  20.625  0.00  0.00    +0.000 NA
ATOM     11  C   UNL     1       2.519   4.652  20.421  0.00  0.00    +0.000 A 
ATOM     12  C   UNL     1       2.172   3.381  20.964  0.00  0.00    +0.000 A 
ATOM     13  C   UNL     1       3.074   2.407  20.615  0.00  0.00    +0.000 A 
ATOM     14  S   UNL     1       4.329   3.018  19.630  0.00  0.00    +0.000 S 
ATOM     15  C   UNL     1       3.683   4.603  19.655  0.00  0.00    +0.000 A 
ENDROOT
BRANCH   1  19
ATOM     16  C   UNL     1       5.433   4.772  15.116  0.00  0.00    +0.000 A 
ATOM     17  C   UNL     1       4.873   4.717  16.362  0.00  0.00    +0.000 A 
ATOM     18  C   UNL     1       5.617   5.612  17.162  0.00  0.00    +0.000 A 
ATOM     19  N   UNL     1       5.398   5.872  18.464  0.00  0.00    +0.000 N 
ATOM     20  N   UNL     1       6.561   6.229  16.441  0.00  0.00    +0.000 NA
ATOM     21  N   UNL     1       6.430   5.703  15.214  0.00  0.00    +0.000 N 
ATOM     22  H   UNL     1       5.969   6.618  18.839  0.00  0.00    +0.000 HD
ATOM     23  H   UNL     1       7.069   6.011  14.490  0.00  0.00    +0.000 HD
BRANCH  16  25
ATOM     24  C   UNL     1       6.375   3.824  13.027  0.00  0.00    +0.000 C 
ATOM     25  C   UNL     1       5.129   4.018  13.874  0.00  0.00    +0.000 C 
ENDBRANCH  16  25
ENDBRANCH   1  19
BRANCH   7  26
ATOM     26  N   UNL     1       0.390  11.774  21.391  0.00  0.00    +0.000 NA
ATOM     27  H   UNL     1      -0.345  12.391  21.045  0.00  0.00    +0.000 HD
ATOM     28  H   UNL     1       1.270  12.246  21.184  0.00  0.00    +0.000 HD
ENDBRANCH   7  26
TORSDOF 3
ENDMDL
MODEL 7
REMARK VINA RESULT:      -6.7      1.892      6.830
REMARK  Name = 
REMARK  4 active torsions:
REMARK  status: ('A' for Active; 'I' for Inactive)
REMARK    1  A    between atoms: C_1  and  C_2
REMARK    2  A    between atoms: C_2  and  C_3
REMARK    3  A    between atoms: N_6  and  C_7
REMARK    4  A    between atoms: C_13  and  N_14
REMARK                            x       y       z     vdW  Elec       q    Type
REMARK                         _______ _______ _______ _____ _____    ______ ____
ROOT
ATOM      1  C   UNL     1       2.649   5.507  18.452  0.00  0.00    +0.000 A 
ATOM      2  N   UNL     1       2.228   6.748  18.770  0.00  0.00    +0.000 NA
ATOM      3  C   UNL     1       1.656   7.018  19.950  0.00  0.00    +0.000 A 
ATOM      4  N   UNL     1       1.239   8.297  20.206  0.00  0.00    +0.000 N 
ATOM      5  C   UNL     1       0.633   8.608  21.493  0.00  0.00    +0.000 C 
ATOM      6  C   UNL     1       1.154   9.985  21.906  0.00  0.00    +0.000 C 
ATOM      7  C   UNL     1       0.876  11.026  20.807  0.00  0.00    +0.000 C 
ATOM      8  C   UNL     1       1.416  10.567  19.441  0.00  0.00    +0.000 C 
ATOM      9  C   UNL     1       0.908   9.170  19.101  0.00  0.00    +0.000 C 
ATOM     10  N   UNL     1       1.489   6.110  20.904  0.00  0.00    +0.000 NA
ATOM     11  C   UNL     1       1.823   4.855  20.592  0.00  0.00    +0.000 A 
ATOM     12  C   UNL     1       1.648   3.739  21.460  0.00  0.00    +0.000 A 
ATOM     13  C   UNL     1       2.098   2.572  20.898  0.00  0.00    +0.000 A 
ATOM     14  S   UNL     1       2.722   2.815  19.325  0.00  0.00    +0.000 S 
ATOM     15  C   UNL     1       2.398   4.496  19.373  0.00  0.00    +0.000 A 
ENDROOT
BRANCH   1  19
ATOM     16  C   UNL     1       6.836   4.748  17.783  0.00  0.00    +0.000 A 
ATOM     17  C   UNL     1       5.660   5.303  18.204  0.00  0.00    +0.000 A 
ATOM     18  C   UNL     1       4.691   4.934  17.246  0.00  0.00    +0.000 A 
ATOM     19  N   UNL     1       3.387   5.266  17.277  0.00  0.00    +0.000 N 
ATOM     20  N   UNL     1       5.224   4.148  16.302  0.00  0.00    +0.000 NA
ATOM     21  N   UNL     1       6.517   4.055  16.648  0.00  0.00    +0.000 N 
ATOM     22  H   UNL     1       2.830   4.823  16.559  0.00  0.00    +0.000 HD
ATOM     23  H   UNL     1       7.134   3.515  16.052  0.00  0.00    +0.000 HD
BRANCH  16  25
ATOM     24  C   UNL     1       8.245   5.664  19.607  0.00  0.00    +0.000 C 
ATOM     25  C   UNL     1       8.211   4.834  18.335  0.00  0.00    +0.000 C 
ENDBRANCH  16  25
ENDBRANCH   1  19
BRANCH   7  26
ATOM     26  N   UNL     1       1.468  12.322  21.151  0.00  0.00    +0.000 NA
ATOM     27  H   UNL     1       1.935  12.710  20.331  0.00  0.00    +0.000 HD
ATOM     28  H   UNL     1       2.197  12.193  21.852  0.00  0.00    +0.000 HD
ENDBRANCH   7  26
TORSDOF 3
ENDMDL
MODEL 8
REMARK VINA RESULT:      -6.5      2.873      5.469
REMARK  Name = 
REMARK  4 active torsions:
REMARK  status: ('A' for Active; 'I' for Inactive)
REMARK    1  A    between atoms: C_1  and  C_2
REMARK    2  A    between atoms: C_2  and  C_3
REMARK    3  A    between atoms: N_6  and  C_7
REMARK    4  A    between atoms: C_13  and  N_14
REMARK                            x       y       z     vdW  Elec       q    Type
REMARK                         _______ _______ _______ _____ _____    ______ ____
ROOT
ATOM      1  C   UNL     1       3.833   6.772  17.722  0.00  0.00    +0.000 A 
ATOM      2  N   UNL     1       3.161   5.812  18.390  0.00  0.00    +0.000 NA
ATOM      3  C   UNL     1       3.795   4.831  19.043  0.00  0.00    +0.000 A 
ATOM      4  N   UNL     1       3.054   3.879  19.691  0.00  0.00    +0.000 N 
ATOM      5  C   UNL     1       3.733   2.817  20.420  0.00  0.00    +0.000 C 
ATOM      6  C   UNL     1       2.933   2.580  21.702  0.00  0.00    +0.000 C 
ATOM      7  C   UNL     1       1.458   2.285  21.378  0.00  0.00    +0.000 C 
ATOM      8  C   UNL     1       0.843   3.375  20.483  0.00  0.00    +0.000 C 
ATOM      9  C   UNL     1       1.705   3.606  19.246  0.00  0.00    +0.000 C 
ATOM     10  N   UNL     1       5.118   4.740  19.114  0.00  0.00    +0.000 NA
ATOM     11  C   UNL     1       5.813   5.627  18.399  0.00  0.00    +0.000 A 
ATOM     12  C   UNL     1       7.234   5.641  18.298  0.00  0.00    +0.000 A 
ATOM     13  C   UNL     1       7.686   6.675  17.519  0.00  0.00    +0.000 A 
ATOM     14  S   UNL     1       6.405   7.624  16.903  0.00  0.00    +0.000 S 
ATOM     15  C   UNL     1       5.219   6.660  17.674  0.00  0.00    +0.000 A 
ENDROOT
BRANCH   1  19
ATOM     16  C   UNL     1       1.044   9.583  19.416  0.00  0.00    +0.000 A 
ATOM     17  C   UNL     1       1.666   8.425  19.040  0.00  0.00    +0.000 A 
ATOM     18  C   UNL     1       2.397   8.738  17.874  0.00  0.00    +0.000 A 
ATOM     19  N   UNL     1       3.164   7.882  17.173  0.00  0.00    +0.000 N 
ATOM     20  N   UNL     1       2.276  10.035  17.565  0.00  0.00    +0.000 NA
ATOM     21  N   UNL     1       1.454  10.519  18.507  0.00  0.00    +0.000 N 
ATOM     22  H   UNL     1       3.691   8.316  16.425  0.00  0.00    +0.000 HD
ATOM     23  H   UNL     1       1.196  11.499  18.461  0.00  0.00    +0.000 HD
BRANCH  16  25
ATOM     24  C   UNL     1       0.020   8.709  21.499  0.00  0.00    +0.000 C 
ATOM     25  C   UNL     1       0.096   9.869  20.522  0.00  0.00    +0.000 C 
ENDBRANCH  16  25
ENDBRANCH   1  19
BRANCH   7  26
ATOM     26  N   UNL     1       0.666   2.163  22.606  0.00  0.00    +0.000 NA
ATOM     27  H   UNL     1      -0.108   2.828  22.578  0.00  0.00    +0.000 HD
ATOM     28  H   UNL     1       1.233   2.430  23.410  0.00  0.00    +0.000 HD
ENDBRANCH   7  26
TORSDOF 3
ENDMDL
MODEL 9
REMARK VINA RESULT:      -6.4      5.002     10.783
REMARK  Name = 
REMARK  4 active torsions:
REMARK  status: ('A' for Active; 'I' for Inactive)
REMARK    1  A    between atoms: C_1  and  C_2
REMARK    2  A    between atoms: C_2  and  C_3
REMARK    3  A    between atoms: N_6  and  C_7
REMARK    4  A    between atoms: C_13  and  N_14
REMARK                            x       y       z     vdW  Elec       q    Type
REMARK                         _______ _______ _______ _____ _____    ______ ____
ROOT
ATOM      1  C   UNL     1      -1.502  11.899  18.541  0.00  0.00    +0.000 A 
ATOM      2  N   UNL     1      -1.840  12.490  19.705  0.00  0.00    +0.000 NA
ATOM      3  C   UNL     1      -3.118  12.649  20.071  0.00  0.00    +0.000 A 
ATOM      4  N   UNL     1      -3.395  13.269  21.259  0.00  0.00    +0.000 N 
ATOM      5  C   UNL     1      -4.781  13.431  21.677  0.00  0.00    +0.000 C 
ATOM      6  C   UNL     1      -4.820  13.181  23.185  0.00  0.00    +0.000 C 
ATOM      7  C   UNL     1      -3.826  14.101  23.916  0.00  0.00    +0.000 C 
ATOM      8  C   UNL     1      -2.409  13.988  23.329  0.00  0.00    +0.000 C 
ATOM      9  C   UNL     1      -2.434  14.195  21.818  0.00  0.00    +0.000 C 
ATOM     10  N   UNL     1      -4.142  12.214  19.346  0.00  0.00    +0.000 NA
ATOM     11  C   UNL     1      -3.845  11.695  18.152  0.00  0.00    +0.000 A 
ATOM     12  C   UNL     1      -4.814  11.243  17.210  0.00  0.00    +0.000 A 
ATOM     13  C   UNL     1      -4.233  10.733  16.077  0.00  0.00    +0.000 A 
ATOM     14  S   UNL     1      -2.527  10.806  16.140  0.00  0.00    +0.000 S 
ATOM     15  C   UNL     1      -2.539  11.524  17.695  0.00  0.00    +0.000 A 
ENDROOT
BRANCH   1  19
ATOM     16  C   UNL     1       1.132   8.781  19.917  0.00  0.00    +0.000 A 
ATOM     17  C   UNL     1       0.242   9.818  19.881  0.00  0.00    +0.000 A 
ATOM     18  C   UNL     1       0.499  10.508  18.678  0.00  0.00    +0.000 A 
ATOM     19  N   UNL     1      -0.159  11.598  18.240  0.00  0.00    +0.000 N 
ATOM     20  N   UNL     1       1.465   9.905  17.975  0.00  0.00    +0.000 NA
ATOM     21  N   UNL     1       1.831   8.870  18.745  0.00  0.00    +0.000 N 
ATOM     22  H   UNL     1       0.099  11.890  17.306  0.00  0.00    +0.000 HD
ATOM     23  H   UNL     1       2.582   8.272  18.419  0.00  0.00    +0.000 HD
BRANCH  16  25
ATOM     24  C   UNL     1       2.040   6.514  20.353  0.00  0.00    +0.000 C 
ATOM     25  C   UNL     1       1.390   7.749  20.953  0.00  0.00    +0.000 C 
ENDBRANCH  16  25
ENDBRANCH   1  19
BRANCH   7  26
ATOM     26  N   UNL     1      -3.783  13.792  25.349  0.00  0.00    +0.000 NA
ATOM     27  H   UNL     1      -2.848  13.988  25.710  0.00  0.00    +0.000 HD
ATOM     28  H   UNL     1      -3.932  12.793  25.490  0.00  0.00    +0.000 HD
ENDBRANCH   7  26
TORSDOF 3
ENDMDL
