MODEL 1
REMARK VINA RESULT:      -8.7      0.000      0.000
REMARK  Name = 
REMARK  8 active torsions:
REMARK  status: ('A' for Active; 'I' for Inactive)
REMARK    1  A    between atoms: C_2  and  C_5
REMARK    2  A    between atoms: N_3  and  O_4
REMARK    3  A    between atoms: C_5  and  C_8
REMARK    4  A    between atoms: C_8  and  C_11
REMARK    5  A    between atoms: C_11  and  C_14
REMARK    6  A    between atoms: C_14  and  C_17
REMARK    7  A    between atoms: C_17  and  C_20
REMARK    8  A    between atoms: C_20  and  C_23
REMARK                            x       y       z     vdW  Elec       q    Type
REMARK                         _______ _______ _______ _____ _____    ______ ____
ROOT
ATOM      1  C   UNL     1       5.156   5.050  17.954  0.00  0.00    +0.000 C 
ATOM      2  F   UNL     1       5.708   3.880  18.370  0.00  0.00    +0.000 F 
ATOM      3  F   UNL     1       5.482   5.963  18.911  0.00  0.00    +0.000 F 
ENDROOT
BRANCH   1   4
ATOM      4  C   UNL     1       5.759   5.466  16.624  0.00  0.00    +0.000 C 
ATOM      5  F   UNL     1       6.600   6.527  16.819  0.00  0.00    +0.000 F 
ATOM      6  F   UNL     1       4.792   5.922  15.784  0.00  0.00    +0.000 F 
BRANCH   4   7
ATOM      7  C   UNL     1       6.545   4.336  15.974  0.00  0.00    +0.000 C 
ATOM      8  F   UNL     1       5.866   3.153  16.108  0.00  0.00    +0.000 F 
ATOM      9  F   UNL     1       7.716   4.147  16.657  0.00  0.00    +0.000 F 
BRANCH   7  11
ATOM     10  O   UNL     1       6.184   4.182  13.566  0.00  0.00    +0.000 OA
ATOM     11  C   UNL     1       6.830   4.642  14.510  0.00  0.00    +0.000 C 
ATOM     12  N   UNL     1       7.891   5.493  14.294  0.00  0.00    +0.000 N 
ATOM     13  H   UNL     1       8.424   5.965  15.021  0.00  0.00    +0.000 HD
BRANCH  12  14
ATOM     14  O   UNL     1       8.185   5.816  12.953  0.00  0.00    +0.000 OA
ATOM     15  H   UNL     1       8.164   6.799  12.951  0.00  0.00    +0.000 HD
ENDBRANCH  12  14
ENDBRANCH   7  11
ENDBRANCH   4   7
ENDBRANCH   1   4
BRANCH   1  16
ATOM     16  C   UNL     1       3.648   4.909  17.853  0.00  0.00    +0.000 C 
ATOM     17  F   UNL     1       3.092   6.111  17.545  0.00  0.00    +0.000 F 
ATOM     18  F   UNL     1       3.327   4.070  16.831  0.00  0.00    +0.000 F 
BRANCH  16  19
ATOM     19  C   UNL     1       3.063   4.381  19.149  0.00  0.00    +0.000 C 
ATOM     20  F   UNL     1       3.796   3.321  19.586  0.00  0.00    +0.000 F 
ATOM     21  F   UNL     1       3.153   5.331  20.120  0.00  0.00    +0.000 F 
BRANCH  19  22
ATOM     22  C   UNL     1       1.622   3.970  18.970  0.00  0.00    +0.000 C 
ATOM     23  F   UNL     1       0.855   4.503  19.964  0.00  0.00    +0.000 F 
ATOM     24  F   UNL     1       1.121   4.489  17.811  0.00  0.00    +0.000 F 
BRANCH  22  25
ATOM     25  C   UNL     1       1.503   2.452  18.964  0.00  0.00    +0.000 C 
ATOM     26  F   UNL     1       2.391   1.832  18.156  0.00  0.00    +0.000 F 
ATOM     27  F   UNL     1       1.680   1.937  20.206  0.00  0.00    +0.000 F 
ATOM     28  F   UNL     1       0.268   2.056  18.563  0.00  0.00    +0.000 F 
ENDBRANCH  22  25
ENDBRANCH  19  22
ENDBRANCH  16  19
ENDBRANCH   1  16
TORSDOF 8
ENDMDL
MODEL 2
REMARK VINA RESULT:      -8.6      2.255      3.169
REMARK  Name = 
REMARK  8 active torsions:
REMARK  status: ('A' for Active; 'I' for Inactive)
REMARK    1  A    between atoms: C_2  and  C_5
REMARK    2  A    between atoms: N_3  and  O_4
REMARK    3  A    between atoms: C_5  and  C_8
REMARK    4  A    between atoms: C_8  and  C_11
REMARK    5  A    between atoms: C_11  and  C_14
REMARK    6  A    between atoms: C_14  and  C_17
REMARK    7  A    between atoms: C_17  and  C_20
REMARK    8  A    between atoms: C_20  and  C_23
REMARK                            x       y       z     vdW  Elec       q    Type
REMARK                         _______ _______ _______ _____ _____    ______ ____
ROOT
ATOM      1  C   UNL     1       4.340   5.017  17.636  0.00  0.00    +0.000 C 
ATOM      2  F   UNL     1       4.814   5.258  18.887  0.00  0.00    +0.000 F 
ATOM      3  F   UNL     1       3.636   6.132  17.295  0.00  0.00    +0.000 F 
ENDROOT
BRANCH   1   4
ATOM      4  C   UNL     1       5.495   4.827  16.669  0.00  0.00    +0.000 C 
ATOM      5  F   UNL     1       5.066   5.075  15.395  0.00  0.00    +0.000 F 
ATOM      6  F   UNL     1       5.905   3.531  16.665  0.00  0.00    +0.000 F 
BRANCH   4   7
ATOM      7  C   UNL     1       6.660   5.758  16.979  0.00  0.00    +0.000 C 
ATOM      8  F   UNL     1       6.190   6.964  17.428  0.00  0.00    +0.000 F 
ATOM      9  F   UNL     1       7.328   6.049  15.822  0.00  0.00    +0.000 F 
BRANCH   7  11
ATOM     10  O   UNL     1       8.291   4.126  17.773  0.00  0.00    +0.000 OA
ATOM     11  C   UNL     1       7.606   5.127  17.992  0.00  0.00    +0.000 C 
ATOM     12  N   UNL     1       7.652   5.763  19.213  0.00  0.00    +0.000 N 
ATOM     13  H   UNL     1       7.171   6.629  19.443  0.00  0.00    +0.000 HD
BRANCH  12  14
ATOM     14  O   UNL     1       8.525   5.222  20.180  0.00  0.00    +0.000 OA
ATOM     15  H   UNL     1       8.233   4.285  20.243  0.00  0.00    +0.000 HD
ENDBRANCH  12  14
ENDBRANCH   7  11
ENDBRANCH   4   7
ENDBRANCH   1   4
BRANCH   1  16
ATOM     16  C   UNL     1       3.429   3.802  17.648  0.00  0.00    +0.000 C 
ATOM     17  F   UNL     1       2.973   3.556  16.391  0.00  0.00    +0.000 F 
ATOM     18  F   UNL     1       4.132   2.698  18.019  0.00  0.00    +0.000 F 
BRANCH  16  19
ATOM     19  C   UNL     1       2.262   4.008  18.595  0.00  0.00    +0.000 C 
ATOM     20  F   UNL     1       2.243   5.298  19.028  0.00  0.00    +0.000 F 
ATOM     21  F   UNL     1       1.088   3.810  17.935  0.00  0.00    +0.000 F 
BRANCH  19  22
ATOM     22  C   UNL     1       2.348   3.071  19.776  0.00  0.00    +0.000 C 
ATOM     23  F   UNL     1       1.899   1.831  19.424  0.00  0.00    +0.000 F 
ATOM     24  F   UNL     1       3.649   2.891  20.146  0.00  0.00    +0.000 F 
BRANCH  22  25
ATOM     25  C   UNL     1       1.537   3.617  20.943  0.00  0.00    +0.000 C 
ATOM     26  F   UNL     1       2.207   4.505  21.712  0.00  0.00    +0.000 F 
ATOM     27  F   UNL     1       0.412   4.243  20.515  0.00  0.00    +0.000 F 
ATOM     28  F   UNL     1       1.125   2.620  21.767  0.00  0.00    +0.000 F 
ENDBRANCH  22  25
ENDBRANCH  19  22
ENDBRANCH  16  19
ENDBRANCH   1  16
TORSDOF 8
ENDMDL
MODEL 3
REMARK VINA RESULT:      -8.6      0.848      1.424
REMARK  Name = 
REMARK  8 active torsions:
REMARK  status: ('A' for Active; 'I' for Inactive)
REMARK    1  A    between atoms: C_2  and  C_5
REMARK    2  A    between atoms: N_3  and  O_4
REMARK    3  A    between atoms: C_5  and  C_8
REMARK    4  A    between atoms: C_8  and  C_11
REMARK    5  A    between atoms: C_11  and  C_14
REMARK    6  A    between atoms: C_14  and  C_17
REMARK    7  A    between atoms: C_17  and  C_20
REMARK    8  A    between atoms: C_20  and  C_23
REMARK                            x       y       z     vdW  Elec       q    Type
REMARK                         _______ _______ _______ _____ _____    ______ ____
ROOT
ATOM      1  C   UNL     1       5.005   4.995  18.078  0.00  0.00    +0.000 C 
ATOM      2  F   UNL     1       5.502   3.735  17.972  0.00  0.00    +0.000 F 
ATOM      3  F   UNL     1       5.425   5.447  19.292  0.00  0.00    +0.000 F 
ENDROOT
BRANCH   1   4
ATOM      4  C   UNL     1       5.576   5.875  16.980  0.00  0.00    +0.000 C 
ATOM      5  F   UNL     1       5.601   7.174  17.407  0.00  0.00    +0.000 F 
ATOM      6  F   UNL     1       4.760   5.868  15.892  0.00  0.00    +0.000 F 
BRANCH   4   7
ATOM      7  C   UNL     1       6.989   5.463  16.594  0.00  0.00    +0.000 C 
ATOM      8  F   UNL     1       7.466   4.532  17.480  0.00  0.00    +0.000 F 
ATOM      9  F   UNL     1       7.827   6.536  16.728  0.00  0.00    +0.000 F 
BRANCH   7  11
ATOM     10  O   UNL     1       7.604   5.499  14.233  0.00  0.00    +0.000 OA
ATOM     11  C   UNL     1       7.032   4.933  15.167  0.00  0.00    +0.000 C 
ATOM     12  N   UNL     1       6.369   3.742  14.973  0.00  0.00    +0.000 N 
ATOM     13  H   UNL     1       5.936   3.185  15.706  0.00  0.00    +0.000 HD
BRANCH  12  14
ATOM     14  O   UNL     1       6.391   3.206  13.669  0.00  0.00    +0.000 OA
ATOM     15  H   UNL     1       5.526   3.488  13.298  0.00  0.00    +0.000 HD
ENDBRANCH  12  14
ENDBRANCH   7  11
ENDBRANCH   4   7
ENDBRANCH   1   4
BRANCH   1  16
ATOM     16  C   UNL     1       3.488   4.964  18.024  0.00  0.00    +0.000 C 
ATOM     17  F   UNL     1       3.008   6.218  17.814  0.00  0.00    +0.000 F 
ATOM     18  F   UNL     1       3.076   4.218  16.963  0.00  0.00    +0.000 F 
BRANCH  16  19
ATOM     19  C   UNL     1       2.910   4.393  19.304  0.00  0.00    +0.000 C 
ATOM     20  F   UNL     1       3.685   3.362  19.739  0.00  0.00    +0.000 F 
ATOM     21  F   UNL     1       2.940   5.333  20.288  0.00  0.00    +0.000 F 
BRANCH  19  22
ATOM     22  C   UNL     1       1.492   3.917  19.098  0.00  0.00    +0.000 C 
ATOM     23  F   UNL     1       0.682   4.419  20.075  0.00  0.00    +0.000 F 
ATOM     24  F   UNL     1       0.991   4.409  17.927  0.00  0.00    +0.000 F 
BRANCH  22  25
ATOM     25  C   UNL     1       1.440   2.395  19.096  0.00  0.00    +0.000 C 
ATOM     26  F   UNL     1       1.633   1.836  20.310  0.00  0.00    +0.000 F 
ATOM     27  F   UNL     1       0.245   1.941  18.643  0.00  0.00    +0.000 F 
ATOM     28  F   UNL     1       2.382   1.870  18.270  0.00  0.00    +0.000 F 
ENDBRANCH  22  25
ENDBRANCH  19  22
ENDBRANCH  16  19
ENDBRANCH   1  16
TORSDOF 8
ENDMDL
MODEL 4
REMARK VINA RESULT:      -8.6      2.137      3.186
REMARK  Name = 
REMARK  8 active torsions:
REMARK  status: ('A' for Active; 'I' for Inactive)
REMARK    1  A    between atoms: C_2  and  C_5
REMARK    2  A    between atoms: N_3  and  O_4
REMARK    3  A    between atoms: C_5  and  C_8
REMARK    4  A    between atoms: C_8  and  C_11
REMARK    5  A    between atoms: C_11  and  C_14
REMARK    6  A    between atoms: C_14  and  C_17
REMARK    7  A    between atoms: C_17  and  C_20
REMARK    8  A    between atoms: C_20  and  C_23
REMARK                            x       y       z     vdW  Elec       q    Type
REMARK                         _______ _______ _______ _____ _____    ______ ____
ROOT
ATOM      1  C   UNL     1       4.579   4.224  17.287  0.00  0.00    +0.000 C 
ATOM      2  F   UNL     1       3.738   5.140  16.738  0.00  0.00    +0.000 F 
ATOM      3  F   UNL     1       5.098   3.534  16.234  0.00  0.00    +0.000 F 
ENDROOT
BRANCH   1   4
ATOM      4  C   UNL     1       5.695   4.926  18.039  0.00  0.00    +0.000 C 
ATOM      5  F   UNL     1       6.387   4.010  18.783  0.00  0.00    +0.000 F 
ATOM      6  F   UNL     1       5.184   5.809  18.937  0.00  0.00    +0.000 F 
BRANCH   4   7
ATOM      7  C   UNL     1       6.670   5.621  17.098  0.00  0.00    +0.000 C 
ATOM      8  F   UNL     1       5.996   6.139  16.023  0.00  0.00    +0.000 F 
ATOM      9  F   UNL     1       7.523   4.695  16.563  0.00  0.00    +0.000 F 
BRANCH   7  11
ATOM     10  O   UNL     1       8.110   6.513  18.854  0.00  0.00    +0.000 OA
ATOM     11  C   UNL     1       7.454   6.703  17.828  0.00  0.00    +0.000 C 
ATOM     12  N   UNL     1       7.383   7.953  17.254  0.00  0.00    +0.000 N 
ATOM     13  H   UNL     1       6.921   8.171  16.375  0.00  0.00    +0.000 HD
BRANCH  12  14
ATOM     14  O   UNL     1       8.104   8.986  17.889  0.00  0.00    +0.000 OA
ATOM     15  H   UNL     1       7.540   9.207  18.664  0.00  0.00    +0.000 HD
ENDBRANCH  12  14
ENDBRANCH   7  11
ENDBRANCH   4   7
ENDBRANCH   1   4
BRANCH   1  16
ATOM     16  C   UNL     1       3.806   3.289  18.200  0.00  0.00    +0.000 C 
ATOM     17  F   UNL     1       3.785   2.038  17.669  0.00  0.00    +0.000 F 
ATOM     18  F   UNL     1       4.440   3.180  19.399  0.00  0.00    +0.000 F 
BRANCH  16  19
ATOM     19  C   UNL     1       2.390   3.787  18.415  0.00  0.00    +0.000 C 
ATOM     20  F   UNL     1       2.419   5.048  18.928  0.00  0.00    +0.000 F 
ATOM     21  F   UNL     1       1.742   3.877  17.221  0.00  0.00    +0.000 F 
BRANCH  19  22
ATOM     22  C   UNL     1       1.625   2.874  19.343  0.00  0.00    +0.000 C 
ATOM     23  F   UNL     1       0.441   2.509  18.770  0.00  0.00    +0.000 F 
ATOM     24  F   UNL     1       2.309   1.708  19.531  0.00  0.00    +0.000 F 
BRANCH  22  25
ATOM     25  C   UNL     1       1.378   3.563  20.678  0.00  0.00    +0.000 C 
ATOM     26  F   UNL     1       2.484   4.110  21.229  0.00  0.00    +0.000 F 
ATOM     27  F   UNL     1       0.468   4.562  20.559  0.00  0.00    +0.000 F 
ATOM     28  F   UNL     1       0.873   2.698  21.594  0.00  0.00    +0.000 F 
ENDBRANCH  22  25
ENDBRANCH  19  22
ENDBRANCH  16  19
ENDBRANCH   1  16
TORSDOF 8
ENDMDL
MODEL 5
REMARK VINA RESULT:      -8.6      1.013      1.498
REMARK  Name = 
REMARK  8 active torsions:
REMARK  status: ('A' for Active; 'I' for Inactive)
REMARK    1  A    between atoms: C_2  and  C_5
REMARK    2  A    between atoms: N_3  and  O_4
REMARK    3  A    between atoms: C_5  and  C_8
REMARK    4  A    between atoms: C_8  and  C_11
REMARK    5  A    between atoms: C_11  and  C_14
REMARK    6  A    between atoms: C_14  and  C_17
REMARK    7  A    between atoms: C_17  and  C_20
REMARK    8  A    between atoms: C_20  and  C_23
REMARK                            x       y       z     vdW  Elec       q    Type
REMARK                         _______ _______ _______ _____ _____    ______ ____
ROOT
ATOM      1  C   UNL     1       5.332   5.082  18.336  0.00  0.00    +0.000 C 
ATOM      2  F   UNL     1       5.774   3.811  18.533  0.00  0.00    +0.000 F 
ATOM      3  F   UNL     1       6.101   5.860  19.148  0.00  0.00    +0.000 F 
ENDROOT
BRANCH   1   4
ATOM      4  C   UNL     1       5.543   5.488  16.889  0.00  0.00    +0.000 C 
ATOM      5  F   UNL     1       5.260   6.819  16.745  0.00  0.00    +0.000 F 
ATOM      6  F   UNL     1       4.662   4.843  16.079  0.00  0.00    +0.000 F 
BRANCH   4   7
ATOM      7  C   UNL     1       6.974   5.244  16.428  0.00  0.00    +0.000 C 
ATOM      8  F   UNL     1       7.564   4.291  17.216  0.00  0.00    +0.000 F 
ATOM      9  F   UNL     1       7.715   6.375  16.632  0.00  0.00    +0.000 F 
BRANCH   7  11
ATOM     10  O   UNL     1       7.557   5.505  14.073  0.00  0.00    +0.000 OA
ATOM     11  C   UNL     1       7.012   4.843  14.959  0.00  0.00    +0.000 C 
ATOM     12  N   UNL     1       6.379   3.656  14.669  0.00  0.00    +0.000 N 
ATOM     13  H   UNL     1       5.969   3.025  15.353  0.00  0.00    +0.000 HD
BRANCH  12  14
ATOM     14  O   UNL     1       6.398   3.237  13.322  0.00  0.00    +0.000 OA
ATOM     15  H   UNL     1       5.893   2.394  13.344  0.00  0.00    +0.000 HD
ENDBRANCH  12  14
ENDBRANCH   7  11
ENDBRANCH   4   7
ENDBRANCH   1   4
BRANCH   1  16
ATOM     16  C   UNL     1       3.870   5.194  18.730  0.00  0.00    +0.000 C 
ATOM     17  F   UNL     1       3.755   5.916  19.876  0.00  0.00    +0.000 F 
ATOM     18  F   UNL     1       3.184   5.881  17.779  0.00  0.00    +0.000 F 
BRANCH  16  19
ATOM     19  C   UNL     1       3.251   3.821  18.915  0.00  0.00    +0.000 C 
ATOM     20  F   UNL     1       3.676   2.989  17.926  0.00  0.00    +0.000 F 
ATOM     21  F   UNL     1       3.679   3.272  20.085  0.00  0.00    +0.000 F 
BRANCH  19  22
ATOM     22  C   UNL     1       1.744   3.898  18.909  0.00  0.00    +0.000 C 
ATOM     23  F   UNL     1       1.324   4.923  19.707  0.00  0.00    +0.000 F 
ATOM     24  F   UNL     1       1.288   4.205  17.660  0.00  0.00    +0.000 F 
BRANCH  22  25
ATOM     25  C   UNL     1       1.145   2.580  19.381  0.00  0.00    +0.000 C 
ATOM     26  F   UNL     1       1.969   1.519  19.239  0.00  0.00    +0.000 F 
ATOM     27  F   UNL     1       0.801   2.634  20.692  0.00  0.00    +0.000 F 
ATOM     28  F   UNL     1       0.007   2.284  18.703  0.00  0.00    +0.000 F 
ENDBRANCH  22  25
ENDBRANCH  19  22
ENDBRANCH  16  19
ENDBRANCH   1  16
TORSDOF 8
ENDMDL
MODEL 6
REMARK VINA RESULT:      -8.5      1.180      2.211
REMARK  Name = 
REMARK  8 active torsions:
REMARK  status: ('A' for Active; 'I' for Inactive)
REMARK    1  A    between atoms: C_2  and  C_5
REMARK    2  A    between atoms: N_3  and  O_4
REMARK    3  A    between atoms: C_5  and  C_8
REMARK    4  A    between atoms: C_8  and  C_11
REMARK    5  A    between atoms: C_11  and  C_14
REMARK    6  A    between atoms: C_14  and  C_17
REMARK    7  A    between atoms: C_17  and  C_20
REMARK    8  A    between atoms: C_20  and  C_23
REMARK                            x       y       z     vdW  Elec       q    Type
REMARK                         _______ _______ _______ _____ _____    ______ ____
ROOT
ATOM      1  C   UNL     1       4.888   5.548  18.003  0.00  0.00    +0.000 C 
ATOM      2  F   UNL     1       5.989   5.955  18.689  0.00  0.00    +0.000 F 
ATOM      3  F   UNL     1       3.964   6.532  18.189  0.00  0.00    +0.000 F 
ENDROOT
BRANCH   1   4
ATOM      4  C   UNL     1       5.212   5.423  16.525  0.00  0.00    +0.000 C 
ATOM      5  F   UNL     1       4.916   6.600  15.895  0.00  0.00    +0.000 F 
ATOM      6  F   UNL     1       4.415   4.490  15.939  0.00  0.00    +0.000 F 
BRANCH   4   7
ATOM      7  C   UNL     1       6.681   5.101  16.287  0.00  0.00    +0.000 C 
ATOM      8  F   UNL     1       7.073   4.070  17.100  0.00  0.00    +0.000 F 
ATOM      9  F   UNL     1       7.447   6.166  16.675  0.00  0.00    +0.000 F 
BRANCH   7  11
ATOM     10  O   UNL     1       7.631   5.455  14.067  0.00  0.00    +0.000 OA
ATOM     11  C   UNL     1       6.935   4.772  14.821  0.00  0.00    +0.000 C 
ATOM     12  N   UNL     1       6.319   3.625  14.372  0.00  0.00    +0.000 N 
ATOM     13  H   UNL     1       5.790   2.977  14.951  0.00  0.00    +0.000 HD
BRANCH  12  14
ATOM     14  O   UNL     1       6.536   3.273  13.024  0.00  0.00    +0.000 OA
ATOM     15  H   UNL     1       6.690   4.141  12.589  0.00  0.00    +0.000 HD
ENDBRANCH  12  14
ENDBRANCH   7  11
ENDBRANCH   4   7
ENDBRANCH   1   4
BRANCH   1  16
ATOM     16  C   UNL     1       4.378   4.234  18.566  0.00  0.00    +0.000 C 
ATOM     17  F   UNL     1       4.261   3.319  17.568  0.00  0.00    +0.000 F 
ATOM     18  F   UNL     1       5.282   3.723  19.445  0.00  0.00    +0.000 F 
BRANCH  16  19
ATOM     19  C   UNL     1       3.043   4.422  19.261  0.00  0.00    +0.000 C 
ATOM     20  F   UNL     1       3.132   5.437  20.163  0.00  0.00    +0.000 F 
ATOM     21  F   UNL     1       2.097   4.799  18.356  0.00  0.00    +0.000 F 
BRANCH  19  22
ATOM     22  C   UNL     1       2.606   3.155  19.956  0.00  0.00    +0.000 C 
ATOM     23  F   UNL     1       2.789   2.082  19.132  0.00  0.00    +0.000 F 
ATOM     24  F   UNL     1       3.396   2.912  21.042  0.00  0.00    +0.000 F 
BRANCH  22  25
ATOM     25  C   UNL     1       1.147   3.258  20.376  0.00  0.00    +0.000 C 
ATOM     26  F   UNL     1       0.275   2.776  19.464  0.00  0.00    +0.000 F 
ATOM     27  F   UNL     1       0.916   2.584  21.531  0.00  0.00    +0.000 F 
ATOM     28  F   UNL     1       0.792   4.547  20.613  0.00  0.00    +0.000 F 
ENDBRANCH  22  25
ENDBRANCH  19  22
ENDBRANCH  16  19
ENDBRANCH   1  16
TORSDOF 8
ENDMDL
MODEL 7
REMARK VINA RESULT:      -8.5      0.969      2.135
REMARK  Name = 
REMARK  8 active torsions:
REMARK  status: ('A' for Active; 'I' for Inactive)
REMARK    1  A    between atoms: C_2  and  C_5
REMARK    2  A    between atoms: N_3  and  O_4
REMARK    3  A    between atoms: C_5  and  C_8
REMARK    4  A    between atoms: C_8  and  C_11
REMARK    5  A    between atoms: C_11  and  C_14
REMARK    6  A    between atoms: C_14  and  C_17
REMARK    7  A    between atoms: C_17  and  C_20
REMARK    8  A    between atoms: C_20  and  C_23
REMARK                            x       y       z     vdW  Elec       q    Type
REMARK                         _______ _______ _______ _____ _____    ______ ____
ROOT
ATOM      1  C   UNL     1       4.380   5.112  17.250  0.00  0.00    +0.000 C 
ATOM      2  F   UNL     1       3.562   6.185  17.084  0.00  0.00    +0.000 F 
ATOM      3  F   UNL     1       3.949   4.187  16.349  0.00  0.00    +0.000 F 
ENDROOT
BRANCH   1   4
ATOM      4  C   UNL     1       5.815   5.499  16.939  0.00  0.00    +0.000 C 
ATOM      5  F   UNL     1       6.475   5.773  18.106  0.00  0.00    +0.000 F 
ATOM      6  F   UNL     1       5.854   6.655  16.224  0.00  0.00    +0.000 F 
BRANCH   4   7
ATOM      7  C   UNL     1       6.561   4.391  16.209  0.00  0.00    +0.000 C 
ATOM      8  F   UNL     1       5.902   3.200  16.365  0.00  0.00    +0.000 F 
ATOM      9  F   UNL     1       7.779   4.198  16.800  0.00  0.00    +0.000 F 
BRANCH   7  11
ATOM     10  O   UNL     1       5.937   4.419  13.850  0.00  0.00    +0.000 OA
ATOM     11  C   UNL     1       6.736   4.732  14.735  0.00  0.00    +0.000 C 
ATOM     12  N   UNL     1       7.883   5.434  14.438  0.00  0.00    +0.000 N 
ATOM     13  H   UNL     1       8.551   5.786  15.120  0.00  0.00    +0.000 HD
BRANCH  12  14
ATOM     14  O   UNL     1       8.083   5.783  13.086  0.00  0.00    +0.000 OA
ATOM     15  H   UNL     1       7.342   5.328  12.627  0.00  0.00    +0.000 HD
ENDBRANCH  12  14
ENDBRANCH   7  11
ENDBRANCH   4   7
ENDBRANCH   1   4
BRANCH   1  16
ATOM     16  C   UNL     1       4.252   4.572  18.663  0.00  0.00    +0.000 C 
ATOM     17  F   UNL     1       5.279   3.721  18.927  0.00  0.00    +0.000 F 
ATOM     18  F   UNL     1       4.362   5.587  19.562  0.00  0.00    +0.000 F 
BRANCH  16  19
ATOM     19  C   UNL     1       2.925   3.862  18.855  0.00  0.00    +0.000 C 
ATOM     20  F   UNL     1       1.932   4.574  18.254  0.00  0.00    +0.000 F 
ATOM     21  F   UNL     1       2.953   2.650  18.237  0.00  0.00    +0.000 F 
BRANCH  19  22
ATOM     22  C   UNL     1       2.610   3.681  20.320  0.00  0.00    +0.000 C 
ATOM     23  F   UNL     1       3.458   2.763  20.871  0.00  0.00    +0.000 F 
ATOM     24  F   UNL     1       2.842   4.840  21.003  0.00  0.00    +0.000 F 
BRANCH  22  25
ATOM     25  C   UNL     1       1.164   3.242  20.500  0.00  0.00    +0.000 C 
ATOM     26  F   UNL     1       0.738   2.355  19.574  0.00  0.00    +0.000 F 
ATOM     27  F   UNL     1       0.968   2.665  21.712  0.00  0.00    +0.000 F 
ATOM     28  F   UNL     1       0.316   4.302  20.445  0.00  0.00    +0.000 F 
ENDBRANCH  22  25
ENDBRANCH  19  22
ENDBRANCH  16  19
ENDBRANCH   1  16
TORSDOF 8
ENDMDL
MODEL 8
REMARK VINA RESULT:      -8.5      0.871      1.529
REMARK  Name = 
REMARK  8 active torsions:
REMARK  status: ('A' for Active; 'I' for Inactive)
REMARK    1  A    between atoms: C_2  and  C_5
REMARK    2  A    between atoms: N_3  and  O_4
REMARK    3  A    between atoms: C_5  and  C_8
REMARK    4  A    between atoms: C_8  and  C_11
REMARK    5  A    between atoms: C_11  and  C_14
REMARK    6  A    between atoms: C_14  and  C_17
REMARK    7  A    between atoms: C_17  and  C_20
REMARK    8  A    between atoms: C_20  and  C_23
REMARK                            x       y       z     vdW  Elec       q    Type
REMARK                         _______ _______ _______ _____ _____    ______ ____
ROOT
ATOM      1  C   UNL     1       5.159   5.275  18.068  0.00  0.00    +0.000 C 
ATOM      2  F   UNL     1       5.442   4.013  18.487  0.00  0.00    +0.000 F 
ATOM      3  F   UNL     1       5.503   6.086  19.107  0.00  0.00    +0.000 F 
ENDROOT
BRANCH   1   4
ATOM      4  C   UNL     1       5.996   5.621  16.850  0.00  0.00    +0.000 C 
ATOM      5  F   UNL     1       6.970   6.513  17.207  0.00  0.00    +0.000 F 
ATOM      6  F   UNL     1       5.242   6.263  15.919  0.00  0.00    +0.000 F 
BRANCH   4   7
ATOM      7  C   UNL     1       6.662   4.392  16.247  0.00  0.00    +0.000 C 
ATOM      8  F   UNL     1       5.858   3.294  16.409  0.00  0.00    +0.000 F 
ATOM      9  F   UNL     1       7.799   4.101  16.950  0.00  0.00    +0.000 F 
BRANCH   7  11
ATOM     10  O   UNL     1       7.747   5.499  14.362  0.00  0.00    +0.000 OA
ATOM     11  C   UNL     1       6.992   4.617  14.777  0.00  0.00    +0.000 C 
ATOM     12  N   UNL     1       6.374   3.747  13.907  0.00  0.00    +0.000 N 
ATOM     13  H   UNL     1       5.797   2.955  14.179  0.00  0.00    +0.000 HD
BRANCH  12  14
ATOM     14  O   UNL     1       6.658   3.909  12.535  0.00  0.00    +0.000 OA
ATOM     15  H   UNL     1       6.193   4.745  12.309  0.00  0.00    +0.000 HD
ENDBRANCH  12  14
ENDBRANCH   7  11
ENDBRANCH   4   7
ENDBRANCH   1   4
BRANCH   1  16
ATOM     16  C   UNL     1       3.676   5.405  17.769  0.00  0.00    +0.000 C 
ATOM     17  F   UNL     1       3.378   6.695  17.461  0.00  0.00    +0.000 F 
ATOM     18  F   UNL     1       3.358   4.670  16.669  0.00  0.00    +0.000 F 
BRANCH  16  19
ATOM     19  C   UNL     1       2.841   4.945  18.949  0.00  0.00    +0.000 C 
ATOM     20  F   UNL     1       3.657   4.588  19.978  0.00  0.00    +0.000 F 
ATOM     21  F   UNL     1       2.077   5.974  19.407  0.00  0.00    +0.000 F 
BRANCH  19  22
ATOM     22  C   UNL     1       1.955   3.782  18.570  0.00  0.00    +0.000 C 
ATOM     23  F   UNL     1       1.067   4.165  17.607  0.00  0.00    +0.000 F 
ATOM     24  F   UNL     1       2.696   2.787  18.001  0.00  0.00    +0.000 F 
BRANCH  22  25
ATOM     25  C   UNL     1       1.218   3.258  19.794  0.00  0.00    +0.000 C 
ATOM     26  F   UNL     1       0.794   4.225  20.638  0.00  0.00    +0.000 F 
ATOM     27  F   UNL     1       0.122   2.539  19.443  0.00  0.00    +0.000 F 
ATOM     28  F   UNL     1       2.002   2.421  20.522  0.00  0.00    +0.000 F 
ENDBRANCH  22  25
ENDBRANCH  19  22
ENDBRANCH  16  19
ENDBRANCH   1  16
TORSDOF 8
ENDMDL
MODEL 9
REMARK VINA RESULT:      -8.5      1.431      2.861
REMARK  Name = 
REMARK  8 active torsions:
REMARK  status: ('A' for Active; 'I' for Inactive)
REMARK    1  A    between atoms: C_2  and  C_5
REMARK    2  A    between atoms: N_3  and  O_4
REMARK    3  A    between atoms: C_5  and  C_8
REMARK    4  A    between atoms: C_8  and  C_11
REMARK    5  A    between atoms: C_11  and  C_14
REMARK    6  A    between atoms: C_14  and  C_17
REMARK    7  A    between atoms: C_17  and  C_20
REMARK    8  A    between atoms: C_20  and  C_23
REMARK                            x       y       z     vdW  Elec       q    Type
REMARK                         _______ _______ _______ _____ _____    ______ ____
ROOT
ATOM      1  C   UNL     1       4.230   4.687  17.499  0.00  0.00    +0.000 C 
ATOM      2  F   UNL     1       3.415   5.767  17.368  0.00  0.00    +0.000 F 
ATOM      3  F   UNL     1       4.665   4.408  16.239  0.00  0.00    +0.000 F 
ENDROOT
BRANCH   1   4
ATOM      4  C   UNL     1       5.415   5.034  18.383  0.00  0.00    +0.000 C 
ATOM      5  F   UNL     1       6.111   3.894  18.676  0.00  0.00    +0.000 F 
ATOM      6  F   UNL     1       4.991   5.515  19.582  0.00  0.00    +0.000 F 
BRANCH   4   7
ATOM      7  C   UNL     1       6.360   6.021  17.712  0.00  0.00    +0.000 C 
ATOM      8  F   UNL     1       7.139   6.640  18.655  0.00  0.00    +0.000 F 
ATOM      9  F   UNL     1       5.633   7.029  17.141  0.00  0.00    +0.000 F 
BRANCH   7  11
ATOM     10  O   UNL     1       7.996   4.401  16.903  0.00  0.00    +0.000 OA
ATOM     11  C   UNL     1       7.218   5.326  16.662  0.00  0.00    +0.000 C 
ATOM     12  N   UNL     1       7.068   5.811  15.383  0.00  0.00    +0.000 N 
ATOM     13  H   UNL     1       6.398   6.522  15.098  0.00  0.00    +0.000 HD
BRANCH  12  14
ATOM     14  O   UNL     1       7.833   5.191  14.373  0.00  0.00    +0.000 OA
ATOM     15  H   UNL     1       8.130   5.949  13.822  0.00  0.00    +0.000 HD
ENDBRANCH  12  14
ENDBRANCH   7  11
ENDBRANCH   4   7
ENDBRANCH   1   4
BRANCH   1  16
ATOM     16  C   UNL     1       3.452   3.511  18.061  0.00  0.00    +0.000 C 
ATOM     17  F   UNL     1       3.401   2.510  17.142  0.00  0.00    +0.000 F 
ATOM     18  F   UNL     1       4.100   2.998  19.142  0.00  0.00    +0.000 F 
BRANCH  16  19
ATOM     19  C   UNL     1       2.049   3.927  18.457  0.00  0.00    +0.000 C 
ATOM     20  F   UNL     1       2.080   5.158  19.036  0.00  0.00    +0.000 F 
ATOM     21  F   UNL     1       1.269   4.048  17.347  0.00  0.00    +0.000 F 
BRANCH  19  22
ATOM     22  C   UNL     1       1.431   2.929  19.407  0.00  0.00    +0.000 C 
ATOM     23  F   UNL     1       0.205   2.543  18.949  0.00  0.00    +0.000 F 
ATOM     24  F   UNL     1       2.176   1.786  19.445  0.00  0.00    +0.000 F 
BRANCH  22  25
ATOM     25  C   UNL     1       1.313   3.529  20.801  0.00  0.00    +0.000 C 
ATOM     26  F   UNL     1       2.484   3.968  21.313  0.00  0.00    +0.000 F 
ATOM     27  F   UNL     1       0.461   4.586  20.814  0.00  0.00    +0.000 F 
ATOM     28  F   UNL     1       0.813   2.629  21.685  0.00  0.00    +0.000 F 
ENDBRANCH  22  25
ENDBRANCH  19  22
ENDBRANCH  16  19
ENDBRANCH   1  16
TORSDOF 8
ENDMDL
