MODEL 1
REMARK VINA RESULT:      -7.4      0.000      0.000
REMARK  Name = 
REMARK  3 active torsions:
REMARK  status: ('A' for Active; 'I' for Inactive)
REMARK    1  A    between atoms: C_1  and  C_2
REMARK    2  A    between atoms: N_4  and  C_5
REMARK    3  A    between atoms: C_10  and  N_11
REMARK                            x       y       z     vdW  Elec       q    Type
REMARK                         _______ _______ _______ _____ _____    ______ ____
ROOT
ATOM      1  C   UNL     1       4.076   5.254  17.846  0.00  0.00    +0.000 A 
ATOM      2  C   UNL     1       4.163   3.984  17.250  0.00  0.00    +0.000 A 
ATOM      3  C   UNL     1       3.059   3.137  17.166  0.00  0.00    +0.000 A 
ATOM      4  C   UNL     1       1.844   3.533  17.699  0.00  0.00    +0.000 A 
ATOM      5  C   UNL     1       1.739   4.780  18.312  0.00  0.00    +0.000 A 
ATOM      6  C   UNL     1       2.836   5.666  18.393  0.00  0.00    +0.000 A 
ENDROOT
BRANCH   6   7
ATOM      7  N   UNL     1       2.635   6.954  18.991  0.00  0.00    +0.000 N 
ATOM      8  S   UNL     1       1.946   7.069  20.579  0.00  0.00    +0.000 S 
ATOM      9  C   UNL     1       1.208   8.621  20.198  0.00  0.00    +0.000 A 
ATOM     10  C   UNL     1       0.335   9.348  20.996  0.00  0.00    +0.000 A 
ATOM     11  C   UNL     1      -0.209  10.530  20.488  0.00  0.00    +0.000 A 
ATOM     12  C   UNL     1       0.129  10.972  19.200  0.00  0.00    +0.000 A 
ATOM     13  C   UNL     1       1.017  10.238  18.407  0.00  0.00    +0.000 A 
ATOM     14  C   UNL     1       1.548   9.061  18.927  0.00  0.00    +0.000 A 
ATOM     15  C   UNL     1       2.421   8.101  18.209  0.00  0.00    +0.000 A 
ATOM     16  O   UNL     1       2.817   8.335  17.079  0.00  0.00    +0.000 OA
ENDBRANCH   6   7
BRANCH   1  20
ATOM     17  C   UNL     1       7.199   7.344  17.456  0.00  0.00    +0.000 C 
ATOM     18  C   UNL     1       5.925   6.701  16.975  0.00  0.00    +0.000 C 
ATOM     19  O   UNL     1       5.600   6.781  15.795  0.00  0.00    +0.000 OA
ATOM     20  N   UNL     1       5.231   6.064  17.990  0.00  0.00    +0.000 N 
ATOM     21  H   UNL     1       5.479   6.314  18.939  0.00  0.00    +0.000 HD
ENDBRANCH   1  20
TORSDOF 2
ENDMDL
MODEL 2
REMARK VINA RESULT:      -7.3      3.816      4.884
REMARK  Name = 
REMARK  3 active torsions:
REMARK  status: ('A' for Active; 'I' for Inactive)
REMARK    1  A    between atoms: C_1  and  C_2
REMARK    2  A    between atoms: N_4  and  C_5
REMARK    3  A    between atoms: C_10  and  N_11
REMARK                            x       y       z     vdW  Elec       q    Type
REMARK                         _______ _______ _______ _____ _____    ______ ____
ROOT
ATOM      1  C   UNL     1       6.792   4.526  16.917  0.00  0.00    +0.000 A 
ATOM      2  C   UNL     1       7.493   4.907  15.760  0.00  0.00    +0.000 A 
ATOM      3  C   UNL     1       6.917   4.826  14.493  0.00  0.00    +0.000 A 
ATOM      4  C   UNL     1       5.629   4.337  14.352  0.00  0.00    +0.000 A 
ATOM      5  C   UNL     1       4.921   3.934  15.482  0.00  0.00    +0.000 A 
ATOM      6  C   UNL     1       5.474   4.024  16.779  0.00  0.00    +0.000 A 
ENDROOT
BRANCH   6   7
ATOM      7  N   UNL     1       4.663   3.640  17.899  0.00  0.00    +0.000 N 
ATOM      8  S   UNL     1       3.693   2.206  17.808  0.00  0.00    +0.000 S 
ATOM      9  C   UNL     1       2.485   2.897  18.886  0.00  0.00    +0.000 A 
ATOM     10  C   UNL     1       1.258   2.346  19.227  0.00  0.00    +0.000 A 
ATOM     11  C   UNL     1       0.397   3.084  20.044  0.00  0.00    +0.000 A 
ATOM     12  C   UNL     1       0.772   4.353  20.510  0.00  0.00    +0.000 A 
ATOM     13  C   UNL     1       2.015   4.896  20.168  0.00  0.00    +0.000 A 
ATOM     14  C   UNL     1       2.860   4.149  19.353  0.00  0.00    +0.000 A 
ATOM     15  C   UNL     1       4.165   4.592  18.804  0.00  0.00    +0.000 A 
ATOM     16  O   UNL     1       4.645   5.669  19.115  0.00  0.00    +0.000 OA
ENDBRANCH   6   7
BRANCH   1  20
ATOM     17  C   UNL     1       8.671   5.303  20.101  0.00  0.00    +0.000 C 
ATOM     18  C   UNL     1       7.905   5.656  18.853  0.00  0.00    +0.000 C 
ATOM     19  O   UNL     1       7.758   6.831  18.531  0.00  0.00    +0.000 OA
ATOM     20  N   UNL     1       7.427   4.543  18.184  0.00  0.00    +0.000 N 
ATOM     21  H   UNL     1       7.394   3.676  18.706  0.00  0.00    +0.000 HD
ENDBRANCH   1  20
TORSDOF 2
ENDMDL
MODEL 3
REMARK VINA RESULT:      -7.2      3.258      4.409
REMARK  Name = 
REMARK  3 active torsions:
REMARK  status: ('A' for Active; 'I' for Inactive)
REMARK    1  A    between atoms: C_1  and  C_2
REMARK    2  A    between atoms: N_4  and  C_5
REMARK    3  A    between atoms: C_10  and  N_11
REMARK                            x       y       z     vdW  Elec       q    Type
REMARK                         _______ _______ _______ _____ _____    ______ ____
ROOT
ATOM      1  C   UNL     1       6.794   5.272  16.339  0.00  0.00    +0.000 A 
ATOM      2  C   UNL     1       7.290   5.201  15.026  0.00  0.00    +0.000 A 
ATOM      3  C   UNL     1       6.647   4.456  14.039  0.00  0.00    +0.000 A 
ATOM      4  C   UNL     1       5.501   3.743  14.350  0.00  0.00    +0.000 A 
ATOM      5  C   UNL     1       5.002   3.782  15.650  0.00  0.00    +0.000 A 
ATOM      6  C   UNL     1       5.623   4.544  16.665  0.00  0.00    +0.000 A 
ENDROOT
BRANCH   6   7
ATOM      7  N   UNL     1       5.018   4.577  17.965  0.00  0.00    +0.000 N 
ATOM      8  S   UNL     1       4.917   3.124  18.905  0.00  0.00    +0.000 S 
ATOM      9  C   UNL     1       3.433   3.669  19.678  0.00  0.00    +0.000 A 
ATOM     10  C   UNL     1       2.627   2.943  20.544  0.00  0.00    +0.000 A 
ATOM     11  C   UNL     1       1.441   3.524  20.999  0.00  0.00    +0.000 A 
ATOM     12  C   UNL     1       1.080   4.817  20.591  0.00  0.00    +0.000 A 
ATOM     13  C   UNL     1       1.904   5.545  19.727  0.00  0.00    +0.000 A 
ATOM     14  C   UNL     1       3.081   4.952  19.280  0.00  0.00    +0.000 A 
ATOM     15  C   UNL     1       4.028   5.518  18.289  0.00  0.00    +0.000 A 
ATOM     16  O   UNL     1       3.867   6.640  17.837  0.00  0.00    +0.000 OA
ENDBRANCH   6   7
BRANCH   1  20
ATOM     17  C   UNL     1       8.480   7.767  18.619  0.00  0.00    +0.000 C 
ATOM     18  C   UNL     1       7.476   7.333  17.585  0.00  0.00    +0.000 C 
ATOM     19  O   UNL     1       6.735   8.158  17.060  0.00  0.00    +0.000 OA
ATOM     20  N   UNL     1       7.510   5.970  17.344  0.00  0.00    +0.000 N 
ATOM     21  H   UNL     1       7.973   5.396  18.037  0.00  0.00    +0.000 HD
ENDBRANCH   1  20
TORSDOF 2
ENDMDL
MODEL 4
REMARK VINA RESULT:      -7.2      1.527      1.643
REMARK  Name = 
REMARK  3 active torsions:
REMARK  status: ('A' for Active; 'I' for Inactive)
REMARK    1  A    between atoms: C_1  and  C_2
REMARK    2  A    between atoms: N_4  and  C_5
REMARK    3  A    between atoms: C_10  and  N_11
REMARK                            x       y       z     vdW  Elec       q    Type
REMARK                         _______ _______ _______ _____ _____    ______ ____
ROOT
ATOM      1  C   UNL     1       4.170   3.815  18.901  0.00  0.00    +0.000 A 
ATOM      2  C   UNL     1       4.116   2.447  18.583  0.00  0.00    +0.000 A 
ATOM      3  C   UNL     1       2.903   1.784  18.401  0.00  0.00    +0.000 A 
ATOM      4  C   UNL     1       1.711   2.472  18.558  0.00  0.00    +0.000 A 
ATOM      5  C   UNL     1       1.740   3.824  18.894  0.00  0.00    +0.000 A 
ATOM      6  C   UNL     1       2.955   4.525  19.064  0.00  0.00    +0.000 A 
ENDROOT
BRANCH   6   7
ATOM      7  N   UNL     1       2.903   5.928  19.356  0.00  0.00    +0.000 N 
ATOM      8  S   UNL     1       1.970   6.494  20.703  0.00  0.00    +0.000 S 
ATOM      9  C   UNL     1       1.632   8.018  19.891  0.00  0.00    +0.000 A 
ATOM     10  C   UNL     1       0.787   9.028  20.329  0.00  0.00    +0.000 A 
ATOM     11  C   UNL     1       0.587  10.139  19.505  0.00  0.00    +0.000 A 
ATOM     12  C   UNL     1       1.236  10.228  18.264  0.00  0.00    +0.000 A 
ATOM     13  C   UNL     1       2.094   9.211  17.836  0.00  0.00    +0.000 A 
ATOM     14  C   UNL     1       2.280   8.110  18.667  0.00  0.00    +0.000 A 
ATOM     15  C   UNL     1       3.065   6.893  18.348  0.00  0.00    +0.000 A 
ATOM     16  O   UNL     1       3.699   6.809  17.309  0.00  0.00    +0.000 OA
ENDBRANCH   6   7
BRANCH   1  20
ATOM     17  C   UNL     1       7.644   5.297  18.852  0.00  0.00    +0.000 C 
ATOM     18  C   UNL     1       6.373   4.792  18.223  0.00  0.00    +0.000 C 
ATOM     19  O   UNL     1       6.271   4.727  17.002  0.00  0.00    +0.000 OA
ATOM     20  N   UNL     1       5.413   4.446  19.159  0.00  0.00    +0.000 N 
ATOM     21  H   UNL     1       5.540   4.806  20.096  0.00  0.00    +0.000 HD
ENDBRANCH   1  20
TORSDOF 2
ENDMDL
MODEL 5
REMARK VINA RESULT:      -7.0      2.740      6.345
REMARK  Name = 
REMARK  3 active torsions:
REMARK  status: ('A' for Active; 'I' for Inactive)
REMARK    1  A    between atoms: C_1  and  C_2
REMARK    2  A    between atoms: N_4  and  C_5
REMARK    3  A    between atoms: C_10  and  N_11
REMARK                            x       y       z     vdW  Elec       q    Type
REMARK                         _______ _______ _______ _____ _____    ______ ____
ROOT
ATOM      1  C   UNL     1       2.056   6.052  20.496  0.00  0.00    +0.000 A 
ATOM      2  C   UNL     1       1.154   7.015  20.980  0.00  0.00    +0.000 A 
ATOM      3  C   UNL     1       1.029   8.268  20.382  0.00  0.00    +0.000 A 
ATOM      4  C   UNL     1       1.823   8.596  19.295  0.00  0.00    +0.000 A 
ATOM      5  C   UNL     1       2.739   7.664  18.810  0.00  0.00    +0.000 A 
ATOM      6  C   UNL     1       2.872   6.381  19.386  0.00  0.00    +0.000 A 
ENDROOT
BRANCH   6   7
ATOM      7  N   UNL     1       3.798   5.458  18.796  0.00  0.00    +0.000 N 
ATOM      8  S   UNL     1       5.502   5.676  19.034  0.00  0.00    +0.000 S 
ATOM      9  C   UNL     1       5.862   4.958  17.468  0.00  0.00    +0.000 A 
ATOM     10  C   UNL     1       7.103   4.875  16.853  0.00  0.00    +0.000 A 
ATOM     11  C   UNL     1       7.179   4.332  15.568  0.00  0.00    +0.000 A 
ATOM     12  C   UNL     1       6.021   3.876  14.920  0.00  0.00    +0.000 A 
ATOM     13  C   UNL     1       4.776   3.954  15.552  0.00  0.00    +0.000 A 
ATOM     14  C   UNL     1       4.717   4.500  16.831  0.00  0.00    +0.000 A 
ATOM     15  C   UNL     1       3.487   4.759  17.618  0.00  0.00    +0.000 A 
ATOM     16  O   UNL     1       2.392   4.416  17.204  0.00  0.00    +0.000 OA
ENDBRANCH   6   7
BRANCH   1  20
ATOM     17  C   UNL     1       1.835   2.565  21.931  0.00  0.00    +0.000 C 
ATOM     18  C   UNL     1       1.529   3.643  20.925  0.00  0.00    +0.000 C 
ATOM     19  O   UNL     1       0.742   3.428  20.009  0.00  0.00    +0.000 OA
ATOM     20  N   UNL     1       2.222   4.816  21.170  0.00  0.00    +0.000 N 
ATOM     21  H   UNL     1       3.023   4.753  21.786  0.00  0.00    +0.000 HD
ENDBRANCH   1  20
TORSDOF 2
ENDMDL
MODEL 6
REMARK VINA RESULT:      -7.0      2.711      5.908
REMARK  Name = 
REMARK  3 active torsions:
REMARK  status: ('A' for Active; 'I' for Inactive)
REMARK    1  A    between atoms: C_1  and  C_2
REMARK    2  A    between atoms: N_4  and  C_5
REMARK    3  A    between atoms: C_10  and  N_11
REMARK                            x       y       z     vdW  Elec       q    Type
REMARK                         _______ _______ _______ _____ _____    ______ ____
ROOT
ATOM      1  C   UNL     1       2.406   4.716  19.708  0.00  0.00    +0.000 A 
ATOM      2  C   UNL     1       1.314   4.567  20.581  0.00  0.00    +0.000 A 
ATOM      3  C   UNL     1       1.215   3.483  21.453  0.00  0.00    +0.000 A 
ATOM      4  C   UNL     1       2.199   2.507  21.454  0.00  0.00    +0.000 A 
ATOM      5  C   UNL     1       3.280   2.623  20.583  0.00  0.00    +0.000 A 
ATOM      6  C   UNL     1       3.415   3.721  19.704  0.00  0.00    +0.000 A 
ENDROOT
BRANCH   6   7
ATOM      7  N   UNL     1       4.584   3.798  18.876  0.00  0.00    +0.000 N 
ATOM      8  S   UNL     1       5.736   5.068  19.128  0.00  0.00    +0.000 S 
ATOM      9  C   UNL     1       6.171   5.079  17.423  0.00  0.00    +0.000 A 
ATOM     10  C   UNL     1       7.018   5.972  16.783  0.00  0.00    +0.000 A 
ATOM     11  C   UNL     1       7.183   5.864  15.399  0.00  0.00    +0.000 A 
ATOM     12  C   UNL     1       6.507   4.868  14.679  0.00  0.00    +0.000 A 
ATOM     13  C   UNL     1       5.663   3.966  15.334  0.00  0.00    +0.000 A 
ATOM     14  C   UNL     1       5.508   4.088  16.711  0.00  0.00    +0.000 A 
ATOM     15  C   UNL     1       4.587   3.297  17.564  0.00  0.00    +0.000 A 
ATOM     16  O   UNL     1       3.929   2.382  17.097  0.00  0.00    +0.000 OA
ENDBRANCH   6   7
BRANCH   1  20
ATOM     17  C   UNL     1       2.225   7.981  17.818  0.00  0.00    +0.000 C 
ATOM     18  C   UNL     1       2.298   7.131  19.059  0.00  0.00    +0.000 C 
ATOM     19  O   UNL     1       2.234   7.650  20.168  0.00  0.00    +0.000 OA
ATOM     20  N   UNL     1       2.443   5.783  18.776  0.00  0.00    +0.000 N 
ATOM     21  H   UNL     1       2.750   5.544  17.842  0.00  0.00    +0.000 HD
ENDBRANCH   1  20
TORSDOF 2
ENDMDL
MODEL 7
REMARK VINA RESULT:      -6.9      3.572      4.987
REMARK  Name = 
REMARK  3 active torsions:
REMARK  status: ('A' for Active; 'I' for Inactive)
REMARK    1  A    between atoms: C_1  and  C_2
REMARK    2  A    between atoms: N_4  and  C_5
REMARK    3  A    between atoms: C_10  and  N_11
REMARK                            x       y       z     vdW  Elec       q    Type
REMARK                         _______ _______ _______ _____ _____    ______ ____
ROOT
ATOM      1  C   UNL     1       6.380   4.661  16.497  0.00  0.00    +0.000 A 
ATOM      2  C   UNL     1       7.374   4.757  15.508  0.00  0.00    +0.000 A 
ATOM      3  C   UNL     1       7.090   4.547  14.159  0.00  0.00    +0.000 A 
ATOM      4  C   UNL     1       5.803   4.212  13.770  0.00  0.00    +0.000 A 
ATOM      5  C   UNL     1       4.805   4.091  14.735  0.00  0.00    +0.000 A 
ATOM      6  C   UNL     1       5.062   4.318  16.106  0.00  0.00    +0.000 A 
ENDROOT
BRANCH   6   7
ATOM      7  N   UNL     1       3.971   4.228  17.033  0.00  0.00    +0.000 N 
ATOM      8  S   UNL     1       3.395   5.657  17.827  0.00  0.00    +0.000 S 
ATOM      9  C   UNL     1       2.918   4.734  19.248  0.00  0.00    +0.000 A 
ATOM     10  C   UNL     1       2.440   5.238  20.449  0.00  0.00    +0.000 A 
ATOM     11  C   UNL     1       2.183   4.347  21.494  0.00  0.00    +0.000 A 
ATOM     12  C   UNL     1       2.399   2.971  21.324  0.00  0.00    +0.000 A 
ATOM     13  C   UNL     1       2.871   2.471  20.106  0.00  0.00    +0.000 A 
ATOM     14  C   UNL     1       3.124   3.372  19.076  0.00  0.00    +0.000 A 
ATOM     15  C   UNL     1       3.718   3.050  17.756  0.00  0.00    +0.000 A 
ATOM     16  O   UNL     1       3.961   1.897  17.440  0.00  0.00    +0.000 OA
ENDBRANCH   6   7
BRANCH   1  20
ATOM     17  C   UNL     1       7.699   5.628  19.902  0.00  0.00    +0.000 C 
ATOM     18  C   UNL     1       7.355   5.875  18.457  0.00  0.00    +0.000 C 
ATOM     19  O   UNL     1       7.644   6.943  17.928  0.00  0.00    +0.000 OA
ATOM     20  N   UNL     1       6.712   4.800  17.868  0.00  0.00    +0.000 N 
ATOM     21  H   UNL     1       6.307   4.113  18.492  0.00  0.00    +0.000 HD
ENDBRANCH   1  20
TORSDOF 2
ENDMDL
MODEL 8
REMARK VINA RESULT:      -6.9      2.214      3.625
REMARK  Name = 
REMARK  3 active torsions:
REMARK  status: ('A' for Active; 'I' for Inactive)
REMARK    1  A    between atoms: C_1  and  C_2
REMARK    2  A    between atoms: N_4  and  C_5
REMARK    3  A    between atoms: C_10  and  N_11
REMARK                            x       y       z     vdW  Elec       q    Type
REMARK                         _______ _______ _______ _____ _____    ______ ____
ROOT
ATOM      1  C   UNL     1       3.429   4.889  17.622  0.00  0.00    +0.000 A 
ATOM      2  C   UNL     1       4.549   4.267  17.043  0.00  0.00    +0.000 A 
ATOM      3  C   UNL     1       5.685   4.991  16.683  0.00  0.00    +0.000 A 
ATOM      4  C   UNL     1       5.718   6.362  16.874  0.00  0.00    +0.000 A 
ATOM      5  C   UNL     1       4.612   7.004  17.428  0.00  0.00    +0.000 A 
ATOM      6  C   UNL     1       3.456   6.292  17.819  0.00  0.00    +0.000 A 
ENDROOT
BRANCH   6   7
ATOM      7  N   UNL     1       2.380   7.015  18.432  0.00  0.00    +0.000 N 
ATOM      8  S   UNL     1       1.877   8.537  17.770  0.00  0.00    +0.000 S 
ATOM      9  C   UNL     1       1.390   9.122  19.357  0.00  0.00    +0.000 A 
ATOM     10  C   UNL     1       0.956  10.400  19.679  0.00  0.00    +0.000 A 
ATOM     11  C   UNL     1       0.684  10.698  21.017  0.00  0.00    +0.000 A 
ATOM     12  C   UNL     1       0.841   9.719  22.009  0.00  0.00    +0.000 A 
ATOM     13  C   UNL     1       1.269   8.430  21.674  0.00  0.00    +0.000 A 
ATOM     14  C   UNL     1       1.539   8.150  20.337  0.00  0.00    +0.000 A 
ATOM     15  C   UNL     1       2.093   6.884  19.801  0.00  0.00    +0.000 A 
ATOM     16  O   UNL     1       2.284   5.923  20.529  0.00  0.00    +0.000 OA
ENDBRANCH   6   7
BRANCH   1  20
ATOM     17  C   UNL     1       0.798   2.415  18.728  0.00  0.00    +0.000 C 
ATOM     18  C   UNL     1       2.144   3.086  18.791  0.00  0.00    +0.000 C 
ATOM     19  O   UNL     1       2.999   2.684  19.573  0.00  0.00    +0.000 OA
ATOM     20  N   UNL     1       2.257   4.144  17.905  0.00  0.00    +0.000 N 
ATOM     21  H   UNL     1       1.394   4.520  17.531  0.00  0.00    +0.000 HD
ENDBRANCH   1  20
TORSDOF 2
ENDMDL
MODEL 9
REMARK VINA RESULT:      -6.7      2.130      3.671
REMARK  Name = 
REMARK  3 active torsions:
REMARK  status: ('A' for Active; 'I' for Inactive)
REMARK    1  A    between atoms: C_1  and  C_2
REMARK    2  A    between atoms: N_4  and  C_5
REMARK    3  A    between atoms: C_10  and  N_11
REMARK                            x       y       z     vdW  Elec       q    Type
REMARK                         _______ _______ _______ _____ _____    ______ ____
ROOT
ATOM      1  C   UNL     1       4.760   4.832  17.364  0.00  0.00    +0.000 A 
ATOM      2  C   UNL     1       6.046   4.437  16.957  0.00  0.00    +0.000 A 
ATOM      3  C   UNL     1       7.103   5.343  16.884  0.00  0.00    +0.000 A 
ATOM      4  C   UNL     1       6.891   6.676  17.195  0.00  0.00    +0.000 A 
ATOM      5  C   UNL     1       5.620   7.095  17.581  0.00  0.00    +0.000 A 
ATOM      6  C   UNL     1       4.536   6.195  17.682  0.00  0.00    +0.000 A 
ENDROOT
BRANCH   6   7
ATOM      7  N   UNL     1       3.271   6.692  18.140  0.00  0.00    +0.000 N 
ATOM      8  S   UNL     1       2.624   8.153  17.464  0.00  0.00    +0.000 S 
ATOM      9  C   UNL     1       1.806   8.546  18.972  0.00  0.00    +0.000 A 
ATOM     10  C   UNL     1       1.117   9.713  19.267  0.00  0.00    +0.000 A 
ATOM     11  C   UNL     1       0.595   9.875  20.553  0.00  0.00    +0.000 A 
ATOM     12  C   UNL     1       0.762   8.871  21.519  0.00  0.00    +0.000 A 
ATOM     13  C   UNL     1       1.449   7.694  21.209  0.00  0.00    +0.000 A 
ATOM     14  C   UNL     1       1.966   7.549  19.925  0.00  0.00    +0.000 A 
ATOM     15  C   UNL     1       2.804   6.427  19.437  0.00  0.00    +0.000 A 
ATOM     16  O   UNL     1       3.041   5.465  20.149  0.00  0.00    +0.000 OA
ENDBRANCH   6   7
BRANCH   1  20
ATOM     17  C   UNL     1       2.357   1.951  17.799  0.00  0.00    +0.000 C 
ATOM     18  C   UNL     1       3.527   2.815  18.187  0.00  0.00    +0.000 C 
ATOM     19  O   UNL     1       4.220   2.519  19.156  0.00  0.00    +0.000 OA
ATOM     20  N   UNL     1       3.684   3.909  17.353  0.00  0.00    +0.000 N 
ATOM     21  H   UNL     1       2.890   4.163  16.779  0.00  0.00    +0.000 HD
ENDBRANCH   1  20
TORSDOF 2
ENDMDL
