MODEL 1
REMARK VINA RESULT:      -8.6      0.000      0.000
REMARK  Name = 
REMARK  9 active torsions:
REMARK  status: ('A' for Active; 'I' for Inactive)
REMARK    1  A    between atoms: C_1  and  O_2
REMARK    2  A    between atoms: O_2  and  C_3
REMARK    3  A    between atoms: C_5  and  C_6
REMARK    4  A    between atoms: C_6  and  C_8
REMARK    5  A    between atoms: C_9  and  C_10
REMARK    6  A    between atoms: C_24  and  O_25
REMARK    7  A    between atoms: O_25  and  C_26
REMARK    8  A    between atoms: C_27  and  O_28
REMARK    9  A    between atoms: O_28  and  C_29
REMARK                            x       y       z     vdW  Elec       q    Type
REMARK                         _______ _______ _______ _____ _____    ______ ____
ROOT
ATOM      1  C   UNL     1       2.051   6.095  18.857  0.00  0.00    +0.000 A 
ATOM      2  C   UNL     1       2.785   5.363  17.872  0.00  0.00    +0.000 A 
ATOM      3  N   UNL     1       1.810   4.400  17.619  0.00  0.00    +0.000 N 
ATOM      4  C   UNL     1       1.536   3.882  18.871  0.00  0.00    +0.000 A 
ATOM      5  C   UNL     1       1.256   2.557  19.216  0.00  0.00    +0.000 A 
ATOM      6  C   UNL     1       1.615   2.202  20.506  0.00  0.00    +0.000 A 
ATOM      7  C   UNL     1       2.097   3.166  21.398  0.00  0.00    +0.000 A 
ATOM      8  C   UNL     1       2.139   4.559  21.074  0.00  0.00    +0.000 A 
ATOM      9  C   UNL     1       1.864   4.946  19.744  0.00  0.00    +0.000 A 
ATOM     10  H   UNL     1       1.131   4.435  16.869  0.00  0.00    +0.000 HD
ENDROOT
BRANCH   2  11
ATOM     11  C   UNL     1       4.238   5.006  18.129  0.00  0.00    +0.000 A 
ATOM     12  C   UNL     1       4.956   5.510  19.213  0.00  0.00    +0.000 A 
ATOM     13  C   UNL     1       6.336   5.350  19.226  0.00  0.00    +0.000 A 
ATOM     14  N   UNL     1       7.045   4.731  18.255  0.00  0.00    +0.000 NA
ATOM     15  C   UNL     1       6.336   4.235  17.226  0.00  0.00    +0.000 A 
ATOM     16  C   UNL     1       4.960   4.337  17.126  0.00  0.00    +0.000 A 
ENDBRANCH   2  11
BRANCH   1  17
ATOM     17  C   UNL     1       2.170   7.547  18.687  0.00  0.00    +0.000 C 
ATOM     18  O   UNL     1       2.750   7.940  17.640  0.00  0.00    +0.000 OA
BRANCH  17  21
ATOM     19  C   UNL     1       1.128  11.196  19.281  0.00  0.00    +0.000 A 
ATOM     20  C   UNL     1       1.538   9.970  18.722  0.00  0.00    +0.000 A 
ATOM     21  C   UNL     1       1.674   8.752  19.456  0.00  0.00    +0.000 A 
ATOM     22  C   UNL     1       1.383   8.809  20.811  0.00  0.00    +0.000 A 
ATOM     23  C   UNL     1       1.013  10.051  21.412  0.00  0.00    +0.000 A 
ATOM     24  C   UNL     1       0.917  11.263  20.665  0.00  0.00    +0.000 A 
BRANCH  19  26
ATOM     25  C   UNL     1       2.221  13.039  18.237  0.00  0.00    +0.000 C 
ATOM     26  O   UNL     1       1.017  12.331  18.535  0.00  0.00    +0.000 OA
ENDBRANCH  19  26
BRANCH  23  27
ATOM     27  O   UNL     1       0.801   9.903  22.768  0.00  0.00    +0.000 OA
ATOM     28  C   UNL     1      -0.516   9.645  23.240  0.00  0.00    +0.000 C 
ENDBRANCH  23  27
BRANCH  24  29
ATOM     29  O   UNL     1       0.630  12.397  21.373  0.00  0.00    +0.000 OA
ATOM     30  C   UNL     1      -0.677  12.930  21.523  0.00  0.00    +0.000 C 
ENDBRANCH  24  29
ENDBRANCH  17  21
ENDBRANCH   1  17
TORSDOF 6
ENDMDL
MODEL 2
REMARK VINA RESULT:      -8.4      0.690      2.302
REMARK  Name = 
REMARK  9 active torsions:
REMARK  status: ('A' for Active; 'I' for Inactive)
REMARK    1  A    between atoms: C_1  and  O_2
REMARK    2  A    between atoms: O_2  and  C_3
REMARK    3  A    between atoms: C_5  and  C_6
REMARK    4  A    between atoms: C_6  and  C_8
REMARK    5  A    between atoms: C_9  and  C_10
REMARK    6  A    between atoms: C_24  and  O_25
REMARK    7  A    between atoms: O_25  and  C_26
REMARK    8  A    between atoms: C_27  and  O_28
REMARK    9  A    between atoms: O_28  and  C_29
REMARK                            x       y       z     vdW  Elec       q    Type
REMARK                         _______ _______ _______ _____ _____    ______ ____
ROOT
ATOM      1  C   UNL     1       2.043   6.198  18.841  0.00  0.00    +0.000 A 
ATOM      2  C   UNL     1       2.744   5.407  17.878  0.00  0.00    +0.000 A 
ATOM      3  N   UNL     1       1.743   4.458  17.682  0.00  0.00    +0.000 N 
ATOM      4  C   UNL     1       1.477   4.000  18.959  0.00  0.00    +0.000 A 
ATOM      5  C   UNL     1       1.173   2.698  19.366  0.00  0.00    +0.000 A 
ATOM      6  C   UNL     1       1.544   2.391  20.664  0.00  0.00    +0.000 A 
ATOM      7  C   UNL     1       2.062   3.382  21.507  0.00  0.00    +0.000 A 
ATOM      8  C   UNL     1       2.131   4.758  21.121  0.00  0.00    +0.000 A 
ATOM      9  C   UNL     1       1.844   5.093  19.780  0.00  0.00    +0.000 A 
ATOM     10  H   UNL     1       1.053   4.476  16.942  0.00  0.00    +0.000 HD
ENDROOT
BRANCH   2  11
ATOM     11  C   UNL     1       4.192   5.027  18.129  0.00  0.00    +0.000 A 
ATOM     12  C   UNL     1       4.913   5.495  19.227  0.00  0.00    +0.000 A 
ATOM     13  C   UNL     1       6.291   5.319  19.238  0.00  0.00    +0.000 A 
ATOM     14  N   UNL     1       6.995   4.718  18.253  0.00  0.00    +0.000 NA
ATOM     15  C   UNL     1       6.283   4.256  17.210  0.00  0.00    +0.000 A 
ATOM     16  C   UNL     1       4.909   4.375  17.111  0.00  0.00    +0.000 A 
ENDBRANCH   2  11
BRANCH   1  17
ATOM     17  C   UNL     1       2.193   7.638  18.606  0.00  0.00    +0.000 C 
ATOM     18  O   UNL     1       2.906   7.971  17.623  0.00  0.00    +0.000 OA
BRANCH  17  21
ATOM     19  C   UNL     1       0.990   9.973  21.409  0.00  0.00    +0.000 A 
ATOM     20  C   UNL     1       1.537   8.913  20.660  0.00  0.00    +0.000 A 
ATOM     21  C   UNL     1       1.608   8.885  19.234  0.00  0.00    +0.000 A 
ATOM     22  C   UNL     1       1.090   9.985  18.565  0.00  0.00    +0.000 A 
ATOM     23  C   UNL     1       0.485  11.049  19.300  0.00  0.00    +0.000 A 
ATOM     24  C   UNL     1       0.393  11.040  20.724  0.00  0.00    +0.000 A 
BRANCH  19  26
ATOM     25  C   UNL     1      -0.198   9.340  23.377  0.00  0.00    +0.000 C 
ATOM     26  O   UNL     1       0.944   9.947  22.771  0.00  0.00    +0.000 OA
ENDBRANCH  19  26
BRANCH  23  27
ATOM     27  O   UNL     1       0.001  12.026  18.452  0.00  0.00    +0.000 OA
ATOM     28  C   UNL     1      -1.328  11.918  17.958  0.00  0.00    +0.000 C 
ENDBRANCH  23  27
BRANCH  24  29
ATOM     29  O   UNL     1      -0.279  12.081  21.301  0.00  0.00    +0.000 OA
ATOM     30  C   UNL     1      -1.671  12.071  21.579  0.00  0.00    +0.000 C 
ENDBRANCH  24  29
ENDBRANCH  17  21
ENDBRANCH   1  17
TORSDOF 6
ENDMDL
MODEL 3
REMARK VINA RESULT:      -8.3      3.160      7.952
REMARK  Name = 
REMARK  9 active torsions:
REMARK  status: ('A' for Active; 'I' for Inactive)
REMARK    1  A    between atoms: C_1  and  O_2
REMARK    2  A    between atoms: O_2  and  C_3
REMARK    3  A    between atoms: C_5  and  C_6
REMARK    4  A    between atoms: C_6  and  C_8
REMARK    5  A    between atoms: C_9  and  C_10
REMARK    6  A    between atoms: C_24  and  O_25
REMARK    7  A    between atoms: O_25  and  C_26
REMARK    8  A    between atoms: C_27  and  O_28
REMARK    9  A    between atoms: O_28  and  C_29
REMARK                            x       y       z     vdW  Elec       q    Type
REMARK                         _______ _______ _______ _____ _____    ______ ____
ROOT
ATOM      1  C   UNL     1       1.098  10.015  19.411  0.00  0.00    +0.000 A 
ATOM      2  C   UNL     1       0.307  11.017  18.765  0.00  0.00    +0.000 A 
ATOM      3  N   UNL     1       0.666  12.074  19.598  0.00  0.00    +0.000 N 
ATOM      4  C   UNL     1       0.370  11.604  20.864  0.00  0.00    +0.000 A 
ATOM      5  C   UNL     1      -0.158  12.310  21.948  0.00  0.00    +0.000 A 
ATOM      6  C   UNL     1      -0.901  11.549  22.834  0.00  0.00    +0.000 A 
ATOM      7  C   UNL     1      -0.979  10.160  22.682  0.00  0.00    +0.000 A 
ATOM      8  C   UNL     1      -0.223   9.452  21.695  0.00  0.00    +0.000 A 
ATOM      9  C   UNL     1       0.475  10.200  20.723  0.00  0.00    +0.000 A 
ATOM     10  H   UNL     1       1.399  12.747  19.411  0.00  0.00    +0.000 HD
ENDROOT
BRANCH   2  11
ATOM     11  C   UNL     1      -1.136  10.716  18.402  0.00  0.00    +0.000 A 
ATOM     12  C   UNL     1      -1.489   9.755  17.456  0.00  0.00    +0.000 A 
ATOM     13  C   UNL     1      -2.798   9.730  16.993  0.00  0.00    +0.000 A 
ATOM     14  N   UNL     1      -3.771  10.578  17.399  0.00  0.00    +0.000 NA
ATOM     15  C   UNL     1      -3.419  11.486  18.325  0.00  0.00    +0.000 A 
ATOM     16  C   UNL     1      -2.144  11.585  18.852  0.00  0.00    +0.000 A 
ENDBRANCH   2  11
BRANCH   1  17
ATOM     17  C   UNL     1       1.789   9.140  18.459  0.00  0.00    +0.000 C 
ATOM     18  O   UNL     1       1.955   9.600  17.297  0.00  0.00    +0.000 OA
BRANCH  17  21
ATOM     19  C   UNL     1       2.607   5.674  19.897  0.00  0.00    +0.000 A 
ATOM     20  C   UNL     1       2.063   6.946  19.635  0.00  0.00    +0.000 A 
ATOM     21  C   UNL     1       2.459   7.786  18.550  0.00  0.00    +0.000 A 
ATOM     22  C   UNL     1       3.452   7.295  17.716  0.00  0.00    +0.000 A 
ATOM     23  C   UNL     1       4.055   6.028  17.989  0.00  0.00    +0.000 A 
ATOM     24  C   UNL     1       3.668   5.222  19.101  0.00  0.00    +0.000 A 
BRANCH  19  26
ATOM     25  C   UNL     1       1.144   3.975  20.709  0.00  0.00    +0.000 C 
ATOM     26  O   UNL     1       2.194   4.913  20.950  0.00  0.00    +0.000 OA
ENDBRANCH  19  26
BRANCH  23  27
ATOM     27  O   UNL     1       5.042   5.739  17.068  0.00  0.00    +0.000 OA
ATOM     28  C   UNL     1       5.157   6.544  15.901  0.00  0.00    +0.000 C 
ENDBRANCH  23  27
BRANCH  24  29
ATOM     29  O   UNL     1       4.375   4.069  19.296  0.00  0.00    +0.000 OA
ATOM     30  C   UNL     1       4.000   2.807  18.767  0.00  0.00    +0.000 C 
ENDBRANCH  24  29
ENDBRANCH  17  21
ENDBRANCH   1  17
TORSDOF 6
ENDMDL
MODEL 4
REMARK VINA RESULT:      -8.3      3.166      7.707
REMARK  Name = 
REMARK  9 active torsions:
REMARK  status: ('A' for Active; 'I' for Inactive)
REMARK    1  A    between atoms: C_1  and  O_2
REMARK    2  A    between atoms: O_2  and  C_3
REMARK    3  A    between atoms: C_5  and  C_6
REMARK    4  A    between atoms: C_6  and  C_8
REMARK    5  A    between atoms: C_9  and  C_10
REMARK    6  A    between atoms: C_24  and  O_25
REMARK    7  A    between atoms: O_25  and  C_26
REMARK    8  A    between atoms: C_27  and  O_28
REMARK    9  A    between atoms: O_28  and  C_29
REMARK                            x       y       z     vdW  Elec       q    Type
REMARK                         _______ _______ _______ _____ _____    ______ ____
ROOT
ATOM      1  C   UNL     1       1.077  10.028  19.451  0.00  0.00    +0.000 A 
ATOM      2  C   UNL     1       0.313  11.002  18.734  0.00  0.00    +0.000 A 
ATOM      3  N   UNL     1       0.703  12.107  19.489  0.00  0.00    +0.000 N 
ATOM      4  C   UNL     1       0.397  11.737  20.785  0.00  0.00    +0.000 A 
ATOM      5  C   UNL     1      -0.108  12.535  21.815  0.00  0.00    +0.000 A 
ATOM      6  C   UNL     1      -0.871  11.860  22.754  0.00  0.00    +0.000 A 
ATOM      7  C   UNL     1      -0.988  10.467  22.704  0.00  0.00    +0.000 A 
ATOM      8  C   UNL     1      -0.254   9.669  21.770  0.00  0.00    +0.000 A 
ATOM      9  C   UNL     1       0.462  10.324  20.746  0.00  0.00    +0.000 A 
ATOM     10  H   UNL     1       1.455  12.743  19.253  0.00  0.00    +0.000 HD
ENDROOT
BRANCH   2  11
ATOM     11  C   UNL     1      -1.138  10.716  18.394  0.00  0.00    +0.000 A 
ATOM     12  C   UNL     1      -1.516   9.762  17.451  0.00  0.00    +0.000 A 
ATOM     13  C   UNL     1      -2.834   9.751  17.010  0.00  0.00    +0.000 A 
ATOM     14  N   UNL     1      -3.791  10.607  17.434  0.00  0.00    +0.000 NA
ATOM     15  C   UNL     1      -3.415  11.509  18.358  0.00  0.00    +0.000 A 
ATOM     16  C   UNL     1      -2.131  11.593  18.864  0.00  0.00    +0.000 A 
ENDBRANCH   2  11
BRANCH   1  17
ATOM     17  C   UNL     1       1.741   9.067  18.564  0.00  0.00    +0.000 C 
ATOM     18  O   UNL     1       1.939   9.447  17.379  0.00  0.00    +0.000 OA
BRANCH  17  21
ATOM     19  C   UNL     1       3.867   5.983  17.712  0.00  0.00    +0.000 A 
ATOM     20  C   UNL     1       3.240   7.244  17.724  0.00  0.00    +0.000 A 
ATOM     21  C   UNL     1       2.353   7.695  18.749  0.00  0.00    +0.000 A 
ATOM     22  C   UNL     1       2.103   6.810  19.788  0.00  0.00    +0.000 A 
ATOM     23  C   UNL     1       2.688   5.506  19.772  0.00  0.00    +0.000 A 
ATOM     24  C   UNL     1       3.544   5.064  18.720  0.00  0.00    +0.000 A 
BRANCH  19  26
ATOM     25  C   UNL     1       5.167   6.620  15.818  0.00  0.00    +0.000 C 
ATOM     26  O   UNL     1       4.705   5.602  16.707  0.00  0.00    +0.000 OA
ENDBRANCH  19  26
BRANCH  23  27
ATOM     27  O   UNL     1       2.288   4.770  20.870  0.00  0.00    +0.000 OA
ATOM     28  C   UNL     1       1.144   3.932  20.763  0.00  0.00    +0.000 C 
ENDBRANCH  23  27
BRANCH  24  29
ATOM     29  O   UNL     1       3.975   3.769  18.784  0.00  0.00    +0.000 OA
ATOM     30  C   UNL     1       3.394   2.701  18.052  0.00  0.00    +0.000 C 
ENDBRANCH  24  29
ENDBRANCH  17  21
ENDBRANCH   1  17
TORSDOF 6
ENDMDL
MODEL 5
REMARK VINA RESULT:      -7.9      3.067      7.612
REMARK  Name = 
REMARK  9 active torsions:
REMARK  status: ('A' for Active; 'I' for Inactive)
REMARK    1  A    between atoms: C_1  and  O_2
REMARK    2  A    between atoms: O_2  and  C_3
REMARK    3  A    between atoms: C_5  and  C_6
REMARK    4  A    between atoms: C_6  and  C_8
REMARK    5  A    between atoms: C_9  and  C_10
REMARK    6  A    between atoms: C_24  and  O_25
REMARK    7  A    between atoms: O_25  and  C_26
REMARK    8  A    between atoms: C_27  and  O_28
REMARK    9  A    between atoms: O_28  and  C_29
REMARK                            x       y       z     vdW  Elec       q    Type
REMARK                         _______ _______ _______ _____ _____    ______ ____
ROOT
ATOM      1  C   UNL     1       1.271   9.583  19.337  0.00  0.00    +0.000 A 
ATOM      2  C   UNL     1       0.497  10.720  18.944  0.00  0.00    +0.000 A 
ATOM      3  N   UNL     1       0.851  11.539  20.014  0.00  0.00    +0.000 N 
ATOM      4  C   UNL     1       0.532  10.779  21.123  0.00  0.00    +0.000 A 
ATOM      5  C   UNL     1      -0.008  11.206  22.339  0.00  0.00    +0.000 A 
ATOM      6  C   UNL     1      -0.770  10.260  23.003  0.00  0.00    +0.000 A 
ATOM      7  C   UNL     1      -0.856   8.950  22.518  0.00  0.00    +0.000 A 
ATOM      8  C   UNL     1      -0.090   8.496  21.398  0.00  0.00    +0.000 A 
ATOM      9  C   UNL     1       0.629   9.450  20.646  0.00  0.00    +0.000 A 
ATOM     10  H   UNL     1       1.592  12.229  20.005  0.00  0.00    +0.000 HD
ENDROOT
BRANCH   2  11
ATOM     11  C   UNL     1      -0.942  10.532  18.499  0.00  0.00    +0.000 A 
ATOM     12  C   UNL     1      -1.301   9.692  17.446  0.00  0.00    +0.000 A 
ATOM     13  C   UNL     1      -2.590   9.781  16.936  0.00  0.00    +0.000 A 
ATOM     14  N   UNL     1      -3.537  10.632  17.392  0.00  0.00    +0.000 NA
ATOM     15  C   UNL     1      -3.181  11.422  18.420  0.00  0.00    +0.000 A 
ATOM     16  C   UNL     1      -1.926  11.401  19.001  0.00  0.00    +0.000 A 
ENDBRANCH   2  11
BRANCH   1  17
ATOM     17  C   UNL     1       1.970   8.958  18.210  0.00  0.00    +0.000 C 
ATOM     18  O   UNL     1       2.038   9.637  17.150  0.00  0.00    +0.000 OA
BRANCH  17  21
ATOM     19  C   UNL     1       4.878   6.685  17.146  0.00  0.00    +0.000 A 
ATOM     20  C   UNL     1       4.039   7.779  17.433  0.00  0.00    +0.000 A 
ATOM     21  C   UNL     1       2.740   7.670  18.018  0.00  0.00    +0.000 A 
ATOM     22  C   UNL     1       2.297   6.387  18.308  0.00  0.00    +0.000 A 
ATOM     23  C   UNL     1       3.109   5.259  17.980  0.00  0.00    +0.000 A 
ATOM     24  C   UNL     1       4.389   5.390  17.363  0.00  0.00    +0.000 A 
BRANCH  19  26
ATOM     25  C   UNL     1       7.218   7.003  17.470  0.00  0.00    +0.000 C 
ATOM     26  O   UNL     1       6.109   6.846  16.584  0.00  0.00    +0.000 OA
ENDBRANCH  19  26
BRANCH  23  27
ATOM     27  O   UNL     1       2.475   4.078  18.314  0.00  0.00    +0.000 OA
ATOM     28  C   UNL     1       1.596   4.056  19.432  0.00  0.00    +0.000 C 
ENDBRANCH  23  27
BRANCH  24  29
ATOM     29  O   UNL     1       5.030   4.230  17.031  0.00  0.00    +0.000 OA
ATOM     30  C   UNL     1       5.336   3.845  15.700  0.00  0.00    +0.000 C 
ENDBRANCH  24  29
ENDBRANCH  17  21
ENDBRANCH   1  17
TORSDOF 6
ENDMDL
MODEL 6
REMARK VINA RESULT:      -7.8      0.836      1.298
REMARK  Name = 
REMARK  9 active torsions:
REMARK  status: ('A' for Active; 'I' for Inactive)
REMARK    1  A    between atoms: C_1  and  O_2
REMARK    2  A    between atoms: O_2  and  C_3
REMARK    3  A    between atoms: C_5  and  C_6
REMARK    4  A    between atoms: C_6  and  C_8
REMARK    5  A    between atoms: C_9  and  C_10
REMARK    6  A    between atoms: C_24  and  O_25
REMARK    7  A    between atoms: O_25  and  C_26
REMARK    8  A    between atoms: C_27  and  O_28
REMARK    9  A    between atoms: O_28  and  C_29
REMARK                            x       y       z     vdW  Elec       q    Type
REMARK                         _______ _______ _______ _____ _____    ______ ____
ROOT
ATOM      1  C   UNL     1       1.993   6.322  18.932  0.00  0.00    +0.000 A 
ATOM      2  C   UNL     1       2.640   5.669  17.836  0.00  0.00    +0.000 A 
ATOM      3  N   UNL     1       1.671   4.689  17.630  0.00  0.00    +0.000 N 
ATOM      4  C   UNL     1       1.544   4.094  18.871  0.00  0.00    +0.000 A 
ATOM      5  C   UNL     1       1.339   2.744  19.166  0.00  0.00    +0.000 A 
ATOM      6  C   UNL     1       1.840   2.332  20.389  0.00  0.00    +0.000 A 
ATOM      7  C   UNL     1       2.385   3.261  21.282  0.00  0.00    +0.000 A 
ATOM      8  C   UNL     1       2.354   4.670  21.035  0.00  0.00    +0.000 A 
ATOM      9  C   UNL     1       1.932   5.120  19.766  0.00  0.00    +0.000 A 
ATOM     10  H   UNL     1       0.917   4.742  16.957  0.00  0.00    +0.000 HD
ENDROOT
BRANCH   2  11
ATOM     11  C   UNL     1       4.121   5.348  17.922  0.00  0.00    +0.000 A 
ATOM     12  C   UNL     1       4.754   4.475  17.038  0.00  0.00    +0.000 A 
ATOM     13  C   UNL     1       6.035   4.033  17.346  0.00  0.00    +0.000 A 
ATOM     14  N   UNL     1       6.725   4.394  18.452  0.00  0.00    +0.000 NA
ATOM     15  C   UNL     1       6.108   5.250  19.284  0.00  0.00    +0.000 A 
ATOM     16  C   UNL     1       4.839   5.752  19.061  0.00  0.00    +0.000 A 
ENDBRANCH   2  11
BRANCH   1  17
ATOM     17  C   UNL     1       2.053   7.783  18.835  0.00  0.00    +0.000 C 
ATOM     18  O   UNL     1       2.801   8.252  17.936  0.00  0.00    +0.000 OA
BRANCH  17  21
ATOM     19  C   UNL     1       0.116  11.084  19.161  0.00  0.00    +0.000 A 
ATOM     20  C   UNL     1       0.778   9.934  18.689  0.00  0.00    +0.000 A 
ATOM     21  C   UNL     1       1.343   8.926  19.528  0.00  0.00    +0.000 A 
ATOM     22  C   UNL     1       1.225   9.120  20.897  0.00  0.00    +0.000 A 
ATOM     23  C   UNL     1       0.603  10.304  21.400  0.00  0.00    +0.000 A 
ATOM     24  C   UNL     1       0.076  11.315  20.542  0.00  0.00    +0.000 A 
BRANCH  19  26
ATOM     25  C   UNL     1      -1.745  11.820  17.865  0.00  0.00    +0.000 C 
ATOM     26  O   UNL     1      -0.404  12.018  18.314  0.00  0.00    +0.000 OA
ENDBRANCH  19  26
BRANCH  23  27
ATOM     27  O   UNL     1       0.618  10.324  22.781  0.00  0.00    +0.000 OA
ATOM     28  C   UNL     1      -0.266   9.469  23.496  0.00  0.00    +0.000 C 
ENDBRANCH  23  27
BRANCH  24  29
ATOM     29  O   UNL     1      -0.423  12.433  21.149  0.00  0.00    +0.000 OA
ATOM     30  C   UNL     1      -1.770  12.572  21.575  0.00  0.00    +0.000 C 
ENDBRANCH  24  29
ENDBRANCH  17  21
ENDBRANCH   1  17
TORSDOF 6
ENDMDL
MODEL 7
REMARK VINA RESULT:      -7.8      1.001      2.522
REMARK  Name = 
REMARK  9 active torsions:
REMARK  status: ('A' for Active; 'I' for Inactive)
REMARK    1  A    between atoms: C_1  and  O_2
REMARK    2  A    between atoms: O_2  and  C_3
REMARK    3  A    between atoms: C_5  and  C_6
REMARK    4  A    between atoms: C_6  and  C_8
REMARK    5  A    between atoms: C_9  and  C_10
REMARK    6  A    between atoms: C_24  and  O_25
REMARK    7  A    between atoms: O_25  and  C_26
REMARK    8  A    between atoms: C_27  and  O_28
REMARK    9  A    between atoms: O_28  and  C_29
REMARK                            x       y       z     vdW  Elec       q    Type
REMARK                         _______ _______ _______ _____ _____    ______ ____
ROOT
ATOM      1  C   UNL     1       2.003   6.378  18.816  0.00  0.00    +0.000 A 
ATOM      2  C   UNL     1       2.663   5.655  17.773  0.00  0.00    +0.000 A 
ATOM      3  N   UNL     1       1.691   4.669  17.614  0.00  0.00    +0.000 N 
ATOM      4  C   UNL     1       1.542   4.154  18.888  0.00  0.00    +0.000 A 
ATOM      5  C   UNL     1       1.325   2.826  19.264  0.00  0.00    +0.000 A 
ATOM      6  C   UNL     1       1.806   2.488  20.518  0.00  0.00    +0.000 A 
ATOM      7  C   UNL     1       2.344   3.470  21.358  0.00  0.00    +0.000 A 
ATOM      8  C   UNL     1       2.325   4.861  21.024  0.00  0.00    +0.000 A 
ATOM      9  C   UNL     1       1.923   5.231  19.723  0.00  0.00    +0.000 A 
ATOM     10  H   UNL     1       0.946   4.684  16.928  0.00  0.00    +0.000 HD
ENDROOT
BRANCH   2  11
ATOM     11  C   UNL     1       4.140   5.333  17.900  0.00  0.00    +0.000 A 
ATOM     12  C   UNL     1       4.797   4.461  17.033  0.00  0.00    +0.000 A 
ATOM     13  C   UNL     1       6.068   4.017  17.376  0.00  0.00    +0.000 A 
ATOM     14  N   UNL     1       6.727   4.375  18.502  0.00  0.00    +0.000 NA
ATOM     15  C   UNL     1       6.087   5.230  19.318  0.00  0.00    +0.000 A 
ATOM     16  C   UNL     1       4.825   5.734  19.060  0.00  0.00    +0.000 A 
ENDBRANCH   2  11
BRANCH   1  17
ATOM     17  C   UNL     1       2.074   7.831  18.629  0.00  0.00    +0.000 C 
ATOM     18  O   UNL     1       2.923   8.245  17.795  0.00  0.00    +0.000 OA
BRANCH  17  21
ATOM     19  C   UNL     1       0.559  10.214  21.233  0.00  0.00    +0.000 A 
ATOM     20  C   UNL     1       1.270   9.195  20.569  0.00  0.00    +0.000 A 
ATOM     21  C   UNL     1       1.285   9.011  19.153  0.00  0.00    +0.000 A 
ATOM     22  C   UNL     1       0.535   9.906  18.403  0.00  0.00    +0.000 A 
ATOM     23  C   UNL     1      -0.234  10.917  19.056  0.00  0.00    +0.000 A 
ATOM     24  C   UNL     1      -0.262  11.060  20.475  0.00  0.00    +0.000 A 
BRANCH  19  26
ATOM     25  C   UNL     1      -0.312   9.512  23.338  0.00  0.00    +0.000 C 
ATOM     26  O   UNL     1       0.577  10.343  22.590  0.00  0.00    +0.000 OA
ENDBRANCH  19  26
BRANCH  23  27
ATOM     27  O   UNL     1      -0.934  11.677  18.140  0.00  0.00    +0.000 OA
ATOM     28  C   UNL     1      -2.082  11.121  17.511  0.00  0.00    +0.000 C 
ENDBRANCH  23  27
BRANCH  24  29
ATOM     29  O   UNL     1      -1.099  12.017  20.978  0.00  0.00    +0.000 OA
ATOM     30  C   UNL     1      -0.701  13.349  21.265  0.00  0.00    +0.000 C 
ENDBRANCH  24  29
ENDBRANCH  17  21
ENDBRANCH   1  17
TORSDOF 6
ENDMDL
MODEL 8
REMARK VINA RESULT:      -7.6      1.429      2.092
REMARK  Name = 
REMARK  9 active torsions:
REMARK  status: ('A' for Active; 'I' for Inactive)
REMARK    1  A    between atoms: C_1  and  O_2
REMARK    2  A    between atoms: O_2  and  C_3
REMARK    3  A    between atoms: C_5  and  C_6
REMARK    4  A    between atoms: C_6  and  C_8
REMARK    5  A    between atoms: C_9  and  C_10
REMARK    6  A    between atoms: C_24  and  O_25
REMARK    7  A    between atoms: O_25  and  C_26
REMARK    8  A    between atoms: C_27  and  O_28
REMARK    9  A    between atoms: O_28  and  C_29
REMARK                            x       y       z     vdW  Elec       q    Type
REMARK                         _______ _______ _______ _____ _____    ______ ____
ROOT
ATOM      1  C   UNL     1       2.080   6.263  18.728  0.00  0.00    +0.000 A 
ATOM      2  C   UNL     1       2.774   5.419  17.804  0.00  0.00    +0.000 A 
ATOM      3  N   UNL     1       1.767   4.467  17.659  0.00  0.00    +0.000 N 
ATOM      4  C   UNL     1       1.502   4.076  18.958  0.00  0.00    +0.000 A 
ATOM      5  C   UNL     1       1.192   2.798  19.431  0.00  0.00    +0.000 A 
ATOM      6  C   UNL     1       1.565   2.555  20.742  0.00  0.00    +0.000 A 
ATOM      7  C   UNL     1       2.091   3.584  21.532  0.00  0.00    +0.000 A 
ATOM      8  C   UNL     1       2.166   4.938  21.077  0.00  0.00    +0.000 A 
ATOM      9  C   UNL     1       1.877   5.207  19.722  0.00  0.00    +0.000 A 
ATOM     10  H   UNL     1       1.075   4.452  16.921  0.00  0.00    +0.000 HD
ENDROOT
BRANCH   2  11
ATOM     11  C   UNL     1       4.221   5.045  18.070  0.00  0.00    +0.000 A 
ATOM     12  C   UNL     1       4.905   5.452  19.215  0.00  0.00    +0.000 A 
ATOM     13  C   UNL     1       6.285   5.295  19.253  0.00  0.00    +0.000 A 
ATOM     14  N   UNL     1       7.024   4.767  18.251  0.00  0.00    +0.000 NA
ATOM     15  C   UNL     1       6.347   4.363  17.162  0.00  0.00    +0.000 A 
ATOM     16  C   UNL     1       4.974   4.469  17.033  0.00  0.00    +0.000 A 
ENDBRANCH   2  11
BRANCH   1  17
ATOM     17  C   UNL     1       2.237   7.687  18.420  0.00  0.00    +0.000 C 
ATOM     18  O   UNL     1       3.299   8.016  17.827  0.00  0.00    +0.000 OA
BRANCH  17  21
ATOM     19  C   UNL     1       0.951  10.964  19.959  0.00  0.00    +0.000 A 
ATOM     20  C   UNL     1       1.679   9.800  19.645  0.00  0.00    +0.000 A 
ATOM     21  C   UNL     1       1.361   8.912  18.573  0.00  0.00    +0.000 A 
ATOM     22  C   UNL     1       0.250   9.237  17.808  0.00  0.00    +0.000 A 
ATOM     23  C   UNL     1      -0.534  10.385  18.137  0.00  0.00    +0.000 A 
ATOM     24  C   UNL     1      -0.217  11.239  19.235  0.00  0.00    +0.000 A 
BRANCH  19  26
ATOM     25  C   UNL     1       1.967  12.997  20.678  0.00  0.00    +0.000 C 
ATOM     26  O   UNL     1       1.298  11.776  20.997  0.00  0.00    +0.000 OA
ENDBRANCH  19  26
BRANCH  23  27
ATOM     27  O   UNL     1      -1.611  10.512  17.281  0.00  0.00    +0.000 OA
ATOM     28  C   UNL     1      -2.811   9.805  17.568  0.00  0.00    +0.000 C 
ENDBRANCH  23  27
BRANCH  24  29
ATOM     29  O   UNL     1      -1.091  12.258  19.491  0.00  0.00    +0.000 OA
ATOM     30  C   UNL     1      -2.079  12.221  20.509  0.00  0.00    +0.000 C 
ENDBRANCH  24  29
ENDBRANCH  17  21
ENDBRANCH   1  17
TORSDOF 6
ENDMDL
MODEL 9
REMARK VINA RESULT:      -7.5      1.367      3.426
REMARK  Name = 
REMARK  9 active torsions:
REMARK  status: ('A' for Active; 'I' for Inactive)
REMARK    1  A    between atoms: C_1  and  O_2
REMARK    2  A    between atoms: O_2  and  C_3
REMARK    3  A    between atoms: C_5  and  C_6
REMARK    4  A    between atoms: C_6  and  C_8
REMARK    5  A    between atoms: C_9  and  C_10
REMARK    6  A    between atoms: C_24  and  O_25
REMARK    7  A    between atoms: O_25  and  C_26
REMARK    8  A    between atoms: C_27  and  O_28
REMARK    9  A    between atoms: O_28  and  C_29
REMARK                            x       y       z     vdW  Elec       q    Type
REMARK                         _______ _______ _______ _____ _____    ______ ____
ROOT
ATOM      1  C   UNL     1       3.565   6.738  18.220  0.00  0.00    +0.000 A 
ATOM      2  C   UNL     1       3.553   5.688  19.191  0.00  0.00    +0.000 A 
ATOM      3  N   UNL     1       4.872   5.839  19.615  0.00  0.00    +0.000 N 
ATOM      4  C   UNL     1       5.600   5.751  18.444  0.00  0.00    +0.000 A 
ATOM      5  C   UNL     1       6.843   5.144  18.240  0.00  0.00    +0.000 A 
ATOM      6  C   UNL     1       7.056   4.667  16.958  0.00  0.00    +0.000 A 
ATOM      7  C   UNL     1       6.122   4.914  15.945  0.00  0.00    +0.000 A 
ATOM      8  C   UNL     1       4.977   5.749  16.144  0.00  0.00    +0.000 A 
ATOM      9  C   UNL     1       4.682   6.179  17.455  0.00  0.00    +0.000 A 
ATOM     10  H   UNL     1       5.173   6.375  20.419  0.00  0.00    +0.000 HD
ENDROOT
BRANCH   2  11
ATOM     11  C   UNL     1       2.960   4.338  18.831  0.00  0.00    +0.000 A 
ATOM     12  C   UNL     1       1.603   4.159  18.566  0.00  0.00    +0.000 A 
ATOM     13  C   UNL     1       1.104   2.864  18.509  0.00  0.00    +0.000 A 
ATOM     14  N   UNL     1       1.847   1.748  18.691  0.00  0.00    +0.000 NA
ATOM     15  C   UNL     1       3.156   1.937  18.927  0.00  0.00    +0.000 A 
ATOM     16  C   UNL     1       3.748   3.186  18.994  0.00  0.00    +0.000 A 
ENDBRANCH   2  11
BRANCH   1  17
ATOM     17  C   UNL     1       2.346   7.552  18.253  0.00  0.00    +0.000 C 
ATOM     18  O   UNL     1       1.455   7.257  17.413  0.00  0.00    +0.000 OA
BRANCH  17  21
ATOM     19  C   UNL     1       1.202  11.091  19.215  0.00  0.00    +0.000 A 
ATOM     20  C   UNL     1       1.636   9.938  18.532  0.00  0.00    +0.000 A 
ATOM     21  C   UNL     1       1.833   8.663  19.144  0.00  0.00    +0.000 A 
ATOM     22  C   UNL     1       1.578   8.582  20.506  0.00  0.00    +0.000 A 
ATOM     23  C   UNL     1       1.184   9.749  21.230  0.00  0.00    +0.000 A 
ATOM     24  C   UNL     1       1.028  11.021  20.604  0.00  0.00    +0.000 A 
BRANCH  19  26
ATOM     25  C   UNL     1       2.211  12.987  18.181  0.00  0.00    +0.000 C 
ATOM     26  O   UNL     1       1.033  12.286  18.581  0.00  0.00    +0.000 OA
ENDBRANCH  19  26
BRANCH  23  27
ATOM     27  O   UNL     1       1.016   9.467  22.571  0.00  0.00    +0.000 OA
ATOM     28  C   UNL     1      -0.299   9.287  23.081  0.00  0.00    +0.000 C 
ENDBRANCH  23  27
BRANCH  24  29
ATOM     29  O   UNL     1       0.724  12.073  21.422  0.00  0.00    +0.000 OA
ATOM     30  C   UNL     1      -0.585  12.595  21.591  0.00  0.00    +0.000 C 
ENDBRANCH  24  29
ENDBRANCH  17  21
ENDBRANCH   1  17
TORSDOF 6
ENDMDL
