MODEL 1
REMARK VINA RESULT:      -7.4      0.000      0.000
REMARK  Name = 
REMARK  6 active torsions:
REMARK  status: ('A' for Active; 'I' for Inactive)
REMARK    1  A    between atoms: C_2  and  C_3
REMARK    2  A    between atoms: C_4  and  C_5
REMARK    3  A    between atoms: C_10  and  C_11
REMARK    4  A    between atoms: C_18  and  C_19
REMARK    5  A    between atoms: C_19  and  O_20
REMARK    6  A    between atoms: C_22  and  C_24
REMARK                            x       y       z     vdW  Elec       q    Type
REMARK                         _______ _______ _______ _____ _____    ______ ____
ROOT
ATOM      1  C   UNL     1       5.134   4.271  17.132  0.00  0.00    +0.000 C 
ATOM      2  C   UNL     1       5.215   5.428  18.159  0.00  0.00    +0.000 C 
ATOM      3  C   UNL     1       6.363   6.024  17.276  0.00  0.00    +0.000 C 
ATOM      4  N   UNL     1       5.853   5.155  16.186  0.00  0.00    +0.000 N 
ATOM      5  C   UNL     1       6.659   4.691  15.161  0.00  0.00    +0.000 C 
ATOM      6  O   UNL     1       7.801   5.100  14.976  0.00  0.00    +0.000 OA
ENDROOT
BRANCH   2   7
ATOM      7  C   UNL     1       3.902   6.329  18.491  0.00  0.00    +0.000 A 
ATOM      8  C   UNL     1       3.758   7.552  17.765  0.00  0.00    +0.000 A 
ATOM      9  C   UNL     1       2.707   8.443  17.932  0.00  0.00    +0.000 A 
ATOM     10  C   UNL     1       1.723   8.144  18.846  0.00  0.00    +0.000 A 
ATOM     11  C   UNL     1       1.799   6.953  19.570  0.00  0.00    +0.000 A 
ATOM     12  C   UNL     1       2.848   6.002  19.408  0.00  0.00    +0.000 A 
BRANCH  12  13
ATOM     13  C   UNL     1       2.707   4.701  20.154  0.00  0.00    +0.000 A 
ATOM     14  C   UNL     1       1.445   4.313  20.675  0.00  0.00    +0.000 A 
ATOM     15  C   UNL     1       1.241   3.110  21.365  0.00  0.00    +0.000 A 
ATOM     16  C   UNL     1       2.294   2.220  21.518  0.00  0.00    +0.000 A 
ATOM     17  C   UNL     1       3.542   2.579  21.034  0.00  0.00    +0.000 A 
ATOM     18  F   UNL     1       4.564   1.723  21.166  0.00  0.00    +0.000 F 
ATOM     19  C   UNL     1       3.761   3.813  20.406  0.00  0.00    +0.000 A 
ENDBRANCH  12  13
ENDBRANCH   2   7
BRANCH   5  20
ATOM     20  C   UNL     1       6.044   3.677  14.259  0.00  0.00    +0.000 C 
ATOM     21  C   UNL     1       5.090   4.076  13.153  0.00  0.00    +0.000 C 
ATOM     22  C   UNL     1       6.466   3.589  12.811  0.00  0.00    +0.000 C 
ENDBRANCH   5  20
BRANCH   1  24
ATOM     23  N   UNL     1       2.746   3.519  16.404  0.00  0.00    +0.000 NA
ATOM     24  C   UNL     1       3.807   3.853  16.713  0.00  0.00    +0.000 C 
ENDBRANCH   1  24
BRANCH   3  25
ATOM     25  C   UNL     1       6.403   7.507  16.905  0.00  0.00    +0.000 C 
BRANCH  25  26
ATOM     26  O   UNL     1       7.684   8.064  17.197  0.00  0.00    +0.000 OA
ATOM     27  H   UNL     1       7.757   8.917  16.725  0.00  0.00    +0.000 HD
ENDBRANCH  25  26
ENDBRANCH   3  25
TORSDOF 6
ENDMDL
MODEL 2
REMARK VINA RESULT:      -7.2      1.143      1.306
REMARK  Name = 
REMARK  6 active torsions:
REMARK  status: ('A' for Active; 'I' for Inactive)
REMARK    1  A    between atoms: C_2  and  C_3
REMARK    2  A    between atoms: C_4  and  C_5
REMARK    3  A    between atoms: C_10  and  C_11
REMARK    4  A    between atoms: C_18  and  C_19
REMARK    5  A    between atoms: C_19  and  O_20
REMARK    6  A    between atoms: C_22  and  C_24
REMARK                            x       y       z     vdW  Elec       q    Type
REMARK                         _______ _______ _______ _____ _____    ______ ____
ROOT
ATOM      1  C   UNL     1       4.839   4.286  17.274  0.00  0.00    +0.000 C 
ATOM      2  C   UNL     1       4.912   5.446  18.300  0.00  0.00    +0.000 C 
ATOM      3  C   UNL     1       6.194   5.928  17.541  0.00  0.00    +0.000 C 
ATOM      4  N   UNL     1       5.728   5.092  16.407  0.00  0.00    +0.000 N 
ATOM      5  C   UNL     1       6.594   4.547  15.474  0.00  0.00    +0.000 C 
ATOM      6  O   UNL     1       7.780   4.852  15.411  0.00  0.00    +0.000 OA
ENDROOT
BRANCH   2   7
ATOM      7  C   UNL     1       3.655   6.461  18.487  0.00  0.00    +0.000 A 
ATOM      8  C   UNL     1       3.726   7.710  17.794  0.00  0.00    +0.000 A 
ATOM      9  C   UNL     1       2.749   8.694  17.852  0.00  0.00    +0.000 A 
ATOM     10  C   UNL     1       1.627   8.469  18.615  0.00  0.00    +0.000 A 
ATOM     11  C   UNL     1       1.492   7.260  19.297  0.00  0.00    +0.000 A 
ATOM     12  C   UNL     1       2.460   6.215  19.241  0.00  0.00    +0.000 A 
BRANCH  12  13
ATOM     13  C   UNL     1       2.098   4.917  19.912  0.00  0.00    +0.000 A 
ATOM     14  C   UNL     1       2.574   4.635  21.220  0.00  0.00    +0.000 A 
ATOM     15  C   UNL     1       2.262   3.454  21.908  0.00  0.00    +0.000 A 
ATOM     16  C   UNL     1       1.416   2.523  21.323  0.00  0.00    +0.000 A 
ATOM     17  C   UNL     1       0.951   2.762  20.040  0.00  0.00    +0.000 A 
ATOM     18  F   UNL     1       0.124   1.875  19.470  0.00  0.00    +0.000 F 
ATOM     19  C   UNL     1       1.319   3.911  19.326  0.00  0.00    +0.000 A 
ENDBRANCH  12  13
ENDBRANCH   2   7
BRANCH   5  20
ATOM     20  C   UNL     1       5.991   3.577  14.517  0.00  0.00    +0.000 C 
ATOM     21  C   UNL     1       5.083   4.035  13.395  0.00  0.00    +0.000 C 
ATOM     22  C   UNL     1       6.460   3.533  13.081  0.00  0.00    +0.000 C 
ENDBRANCH   5  20
BRANCH   1  24
ATOM     23  N   UNL     1       2.494   3.713  16.289  0.00  0.00    +0.000 NA
ATOM     24  C   UNL     1       3.532   3.979  16.718  0.00  0.00    +0.000 C 
ENDBRANCH   1  24
BRANCH   3  25
ATOM     25  C   UNL     1       6.404   7.397  17.170  0.00  0.00    +0.000 C 
BRANCH  25  26
ATOM     26  O   UNL     1       7.787   7.668  16.950  0.00  0.00    +0.000 OA
ATOM     27  H   UNL     1       8.186   6.879  16.531  0.00  0.00    +0.000 HD
ENDBRANCH  25  26
ENDBRANCH   3  25
TORSDOF 6
ENDMDL
MODEL 3
REMARK VINA RESULT:      -7.1      0.850      1.254
REMARK  Name = 
REMARK  6 active torsions:
REMARK  status: ('A' for Active; 'I' for Inactive)
REMARK    1  A    between atoms: C_2  and  C_3
REMARK    2  A    between atoms: C_4  and  C_5
REMARK    3  A    between atoms: C_10  and  C_11
REMARK    4  A    between atoms: C_18  and  C_19
REMARK    5  A    between atoms: C_19  and  O_20
REMARK    6  A    between atoms: C_22  and  C_24
REMARK                            x       y       z     vdW  Elec       q    Type
REMARK                         _______ _______ _______ _____ _____    ______ ____
ROOT
ATOM      1  C   UNL     1       5.237   4.204  17.001  0.00  0.00    +0.000 C 
ATOM      2  C   UNL     1       5.338   5.339  18.052  0.00  0.00    +0.000 C 
ATOM      3  C   UNL     1       6.450   5.969  17.146  0.00  0.00    +0.000 C 
ATOM      4  N   UNL     1       5.916   5.118  16.053  0.00  0.00    +0.000 N 
ATOM      5  C   UNL     1       6.694   4.687  14.993  0.00  0.00    +0.000 C 
ATOM      6  O   UNL     1       7.824   5.113  14.781  0.00  0.00    +0.000 OA
ENDROOT
BRANCH   2   7
ATOM      7  C   UNL     1       4.026   6.216  18.446  0.00  0.00    +0.000 A 
ATOM      8  C   UNL     1       3.839   7.447  17.743  0.00  0.00    +0.000 A 
ATOM      9  C   UNL     1       2.782   8.321  17.962  0.00  0.00    +0.000 A 
ATOM     10  C   UNL     1       1.838   7.995  18.908  0.00  0.00    +0.000 A 
ATOM     11  C   UNL     1       1.957   6.795  19.611  0.00  0.00    +0.000 A 
ATOM     12  C   UNL     1       3.012   5.861  19.396  0.00  0.00    +0.000 A 
BRANCH  12  13
ATOM     13  C   UNL     1       2.917   4.548  20.127  0.00  0.00    +0.000 A 
ATOM     14  C   UNL     1       3.990   3.621  20.066  0.00  0.00    +0.000 A 
ATOM     15  C   UNL     1       3.974   2.389  20.735  0.00  0.00    +0.000 A 
ATOM     16  C   UNL     1       2.890   2.058  21.536  0.00  0.00    +0.000 A 
ATOM     17  C   UNL     1       1.820   2.935  21.600  0.00  0.00    +0.000 A 
ATOM     18  F   UNL     1       0.773   2.631  22.379  0.00  0.00    +0.000 F 
ATOM     19  C   UNL     1       1.807   4.136  20.876  0.00  0.00    +0.000 A 
ENDBRANCH  12  13
ENDBRANCH   2   7
BRANCH   5  20
ATOM     20  C   UNL     1       6.062   3.686  14.088  0.00  0.00    +0.000 C 
ATOM     21  C   UNL     1       5.103   4.103  12.993  0.00  0.00    +0.000 C 
ATOM     22  C   UNL     1       6.472   3.605  12.637  0.00  0.00    +0.000 C 
ENDBRANCH   5  20
BRANCH   1  24
ATOM     23  N   UNL     1       2.833   3.460  16.323  0.00  0.00    +0.000 NA
ATOM     24  C   UNL     1       3.903   3.779  16.615  0.00  0.00    +0.000 C 
ENDBRANCH   1  24
BRANCH   3  25
ATOM     25  C   UNL     1       6.462   7.460  16.808  0.00  0.00    +0.000 C 
BRANCH  25  26
ATOM     26  O   UNL     1       7.701   8.053  17.194  0.00  0.00    +0.000 OA
ATOM     27  H   UNL     1       8.423   7.543  16.777  0.00  0.00    +0.000 HD
ENDBRANCH  25  26
ENDBRANCH   3  25
TORSDOF 6
ENDMDL
MODEL 4
REMARK VINA RESULT:      -6.5      3.247      6.671
REMARK  Name = 
REMARK  6 active torsions:
REMARK  status: ('A' for Active; 'I' for Inactive)
REMARK    1  A    between atoms: C_2  and  C_3
REMARK    2  A    between atoms: C_4  and  C_5
REMARK    3  A    between atoms: C_10  and  C_11
REMARK    4  A    between atoms: C_18  and  C_19
REMARK    5  A    between atoms: C_19  and  O_20
REMARK    6  A    between atoms: C_22  and  C_24
REMARK                            x       y       z     vdW  Elec       q    Type
REMARK                         _______ _______ _______ _____ _____    ______ ____
ROOT
ATOM      1  C   UNL     1       3.466   3.117  18.439  0.00  0.00    +0.000 C 
ATOM      2  C   UNL     1       3.988   4.336  17.637  0.00  0.00    +0.000 C 
ATOM      3  C   UNL     1       2.738   5.117  18.166  0.00  0.00    +0.000 C 
ATOM      4  N   UNL     1       2.641   4.071  19.215  0.00  0.00    +0.000 N 
ATOM      5  C   UNL     1       1.445   3.735  19.826  0.00  0.00    +0.000 C 
ATOM      6  O   UNL     1       0.417   4.387  19.679  0.00  0.00    +0.000 OA
ENDROOT
BRANCH   2   7
ATOM      7  C   UNL     1       5.481   4.922  17.907  0.00  0.00    +0.000 A 
ATOM      8  C   UNL     1       5.820   5.219  19.264  0.00  0.00    +0.000 A 
ATOM      9  C   UNL     1       7.044   5.736  19.670  0.00  0.00    +0.000 A 
ATOM     10  C   UNL     1       8.009   5.977  18.719  0.00  0.00    +0.000 A 
ATOM     11  C   UNL     1       7.741   5.687  17.381  0.00  0.00    +0.000 A 
ATOM     12  C   UNL     1       6.509   5.132  16.929  0.00  0.00    +0.000 A 
BRANCH  12  13
ATOM     13  C   UNL     1       6.432   4.739  15.478  0.00  0.00    +0.000 A 
ATOM     14  C   UNL     1       5.374   3.910  15.021  0.00  0.00    +0.000 A 
ATOM     15  C   UNL     1       5.233   3.520  13.682  0.00  0.00    +0.000 A 
ATOM     16  C   UNL     1       6.131   3.990  12.733  0.00  0.00    +0.000 A 
ATOM     17  C   UNL     1       7.183   4.786  13.153  0.00  0.00    +0.000 A 
ATOM     18  F   UNL     1       8.049   5.254  12.243  0.00  0.00    +0.000 F 
ATOM     19  C   UNL     1       7.363   5.119  14.502  0.00  0.00    +0.000 A 
ENDBRANCH  12  13
ENDBRANCH   2   7
BRANCH   5  20
ATOM     20  C   UNL     1       1.483   2.538  20.713  0.00  0.00    +0.000 C 
ATOM     21  C   UNL     1       2.465   2.435  21.861  0.00  0.00    +0.000 C 
ATOM     22  C   UNL     1       1.006   2.634  22.143  0.00  0.00    +0.000 C 
ENDBRANCH   5  20
BRANCH   1  24
ATOM     23  N   UNL     1       5.219   1.786  19.836  0.00  0.00    +0.000 NA
ATOM     24  C   UNL     1       4.444   2.366  19.208  0.00  0.00    +0.000 C 
ENDBRANCH   1  24
BRANCH   3  25
ATOM     25  C   UNL     1       2.856   6.535  18.727  0.00  0.00    +0.000 C 
BRANCH  25  26
ATOM     26  O   UNL     1       2.049   7.442  17.977  0.00  0.00    +0.000 OA
ATOM     27  H   UNL     1       1.114   7.277  18.211  0.00  0.00    +0.000 HD
ENDBRANCH  25  26
ENDBRANCH   3  25
TORSDOF 6
ENDMDL
MODEL 5
REMARK VINA RESULT:      -6.5      6.083      9.043
REMARK  Name = 
REMARK  6 active torsions:
REMARK  status: ('A' for Active; 'I' for Inactive)
REMARK    1  A    between atoms: C_2  and  C_3
REMARK    2  A    between atoms: C_4  and  C_5
REMARK    3  A    between atoms: C_10  and  C_11
REMARK    4  A    between atoms: C_18  and  C_19
REMARK    5  A    between atoms: C_19  and  O_20
REMARK    6  A    between atoms: C_22  and  C_24
REMARK                            x       y       z     vdW  Elec       q    Type
REMARK                         _______ _______ _______ _____ _____    ______ ____
ROOT
ATOM      1  C   UNL     1       0.071  12.861  18.748  0.00  0.00    +0.000 C 
ATOM      2  C   UNL     1       1.036  11.906  19.496  0.00  0.00    +0.000 C 
ATOM      3  C   UNL     1       1.958  13.150  19.729  0.00  0.00    +0.000 C 
ATOM      4  N   UNL     1       0.763  13.979  19.430  0.00  0.00    +0.000 N 
ATOM      5  C   UNL     1       0.853  15.260  18.912  0.00  0.00    +0.000 C 
ATOM      6  O   UNL     1       1.914  15.869  18.826  0.00  0.00    +0.000 OA
ENDROOT
BRANCH   2   7
ATOM      7  C   UNL     1       0.513  11.039  20.769  0.00  0.00    +0.000 A 
ATOM      8  C   UNL     1      -0.291  11.726  21.731  0.00  0.00    +0.000 A 
ATOM      9  C   UNL     1      -0.808  11.143  22.879  0.00  0.00    +0.000 A 
ATOM     10  C   UNL     1      -0.549   9.814  23.122  0.00  0.00    +0.000 A 
ATOM     11  C   UNL     1       0.213   9.086  22.207  0.00  0.00    +0.000 A 
ATOM     12  C   UNL     1       0.739   9.642  21.006  0.00  0.00    +0.000 A 
BRANCH  12  13
ATOM     13  C   UNL     1       1.413   8.690  20.054  0.00  0.00    +0.000 A 
ATOM     14  C   UNL     1       1.558   9.037  18.685  0.00  0.00    +0.000 A 
ATOM     15  C   UNL     1       2.189   8.205  17.749  0.00  0.00    +0.000 A 
ATOM     16  C   UNL     1       2.744   7.003  18.164  0.00  0.00    +0.000 A 
ATOM     17  C   UNL     1       2.602   6.630  19.490  0.00  0.00    +0.000 A 
ATOM     18  F   UNL     1       3.143   5.476  19.904  0.00  0.00    +0.000 F 
ATOM     19  C   UNL     1       1.911   7.430  20.411  0.00  0.00    +0.000 A 
ENDBRANCH  12  13
ENDBRANCH   2   7
BRANCH   5  20
ATOM     20  C   UNL     1      -0.433  15.880  18.489  0.00  0.00    +0.000 C 
ATOM     21  C   UNL     1      -1.151  16.887  19.362  0.00  0.00    +0.000 C 
ATOM     22  C   UNL     1      -0.484  17.338  18.098  0.00  0.00    +0.000 C 
ENDBRANCH   5  20
BRANCH   1  24
ATOM     23  N   UNL     1      -2.477  12.634  19.251  0.00  0.00    +0.000 NA
ATOM     24  C   UNL     1      -1.346  12.730  19.041  0.00  0.00    +0.000 C 
ENDBRANCH   1  24
BRANCH   3  25
ATOM     25  C   UNL     1       2.580  13.445  21.095  0.00  0.00    +0.000 C 
BRANCH  25  26
ATOM     26  O   UNL     1       3.668  14.358  20.965  0.00  0.00    +0.000 OA
ATOM     27  H   UNL     1       4.355  13.933  20.415  0.00  0.00    +0.000 HD
ENDBRANCH  25  26
ENDBRANCH   3  25
TORSDOF 6
ENDMDL
MODEL 6
REMARK VINA RESULT:      -6.3      8.895     11.427
REMARK  Name = 
REMARK  6 active torsions:
REMARK  status: ('A' for Active; 'I' for Inactive)
REMARK    1  A    between atoms: C_2  and  C_3
REMARK    2  A    between atoms: C_4  and  C_5
REMARK    3  A    between atoms: C_10  and  C_11
REMARK    4  A    between atoms: C_18  and  C_19
REMARK    5  A    between atoms: C_19  and  O_20
REMARK    6  A    between atoms: C_22  and  C_24
REMARK                            x       y       z     vdW  Elec       q    Type
REMARK                         _______ _______ _______ _____ _____    ______ ____
ROOT
ATOM      1  C   UNL     1       1.463  13.070  20.544  0.00  0.00    +0.000 C 
ATOM      2  C   UNL     1       1.526  13.556  19.073  0.00  0.00    +0.000 C 
ATOM      3  C   UNL     1       0.452  12.462  18.751  0.00  0.00    +0.000 C 
ATOM      4  N   UNL     1       0.164  12.445  20.207  0.00  0.00    +0.000 N 
ATOM      5  C   UNL     1      -0.347  11.333  20.855  0.00  0.00    +0.000 C 
ATOM      6  O   UNL     1      -0.760  10.346  20.255  0.00  0.00    +0.000 OA
ENDROOT
BRANCH   2   7
ATOM      7  C   UNL     1       1.228  15.112  18.706  0.00  0.00    +0.000 A 
ATOM      8  C   UNL     1      -0.139  15.530  18.731  0.00  0.00    +0.000 A 
ATOM      9  C   UNL     1      -0.571  16.816  18.433  0.00  0.00    +0.000 A 
ATOM     10  C   UNL     1       0.365  17.767  18.098  0.00  0.00    +0.000 A 
ATOM     11  C   UNL     1       1.716  17.422  18.077  0.00  0.00    +0.000 A 
ATOM     12  C   UNL     1       2.200  16.122  18.401  0.00  0.00    +0.000 A 
BRANCH  12  13
ATOM     13  C   UNL     1       3.694  15.951  18.476  0.00  0.00    +0.000 A 
ATOM     14  C   UNL     1       4.472  16.833  19.272  0.00  0.00    +0.000 A 
ATOM     15  C   UNL     1       5.864  16.720  19.398  0.00  0.00    +0.000 A 
ATOM     16  C   UNL     1       6.528  15.681  18.763  0.00  0.00    +0.000 A 
ATOM     17  C   UNL     1       5.798  14.816  17.966  0.00  0.00    +0.000 A 
ATOM     18  F   UNL     1       6.428  13.802  17.356  0.00  0.00    +0.000 F 
ATOM     19  C   UNL     1       4.416  14.970  17.783  0.00  0.00    +0.000 A 
ENDBRANCH  12  13
ENDBRANCH   2   7
BRANCH   5  20
ATOM     20  C   UNL     1      -0.397  11.414  22.342  0.00  0.00    +0.000 C 
ATOM     21  C   UNL     1      -1.714  11.442  23.089  0.00  0.00    +0.000 C 
ATOM     22  C   UNL     1      -0.844  10.222  23.155  0.00  0.00    +0.000 C 
ENDBRANCH   5  20
BRANCH   1  24
ATOM     23  N   UNL     1       1.401  14.895  22.405  0.00  0.00    +0.000 NA
ATOM     24  C   UNL     1       1.417  14.093  21.575  0.00  0.00    +0.000 C 
ENDBRANCH   1  24
BRANCH   3  25
ATOM     25  C   UNL     1      -0.773  12.769  17.889  0.00  0.00    +0.000 C 
BRANCH  25  26
ATOM     26  O   UNL     1      -1.378  11.562  17.427  0.00  0.00    +0.000 OA
ATOM     27  H   UNL     1      -0.752  10.829  17.591  0.00  0.00    +0.000 HD
ENDBRANCH  25  26
ENDBRANCH   3  25
TORSDOF 6
ENDMDL
MODEL 7
REMARK VINA RESULT:      -6.2      3.014      6.636
REMARK  Name = 
REMARK  6 active torsions:
REMARK  status: ('A' for Active; 'I' for Inactive)
REMARK    1  A    between atoms: C_2  and  C_3
REMARK    2  A    between atoms: C_4  and  C_5
REMARK    3  A    between atoms: C_10  and  C_11
REMARK    4  A    between atoms: C_18  and  C_19
REMARK    5  A    between atoms: C_19  and  O_20
REMARK    6  A    between atoms: C_22  and  C_24
REMARK                            x       y       z     vdW  Elec       q    Type
REMARK                         _______ _______ _______ _____ _____    ______ ____
ROOT
ATOM      1  C   UNL     1       3.487   3.147  18.376  0.00  0.00    +0.000 C 
ATOM      2  C   UNL     1       3.995   4.376  17.579  0.00  0.00    +0.000 C 
ATOM      3  C   UNL     1       2.730   5.137  18.102  0.00  0.00    +0.000 C 
ATOM      4  N   UNL     1       2.643   4.087  19.149  0.00  0.00    +0.000 N 
ATOM      5  C   UNL     1       1.449   3.732  19.753  0.00  0.00    +0.000 C 
ATOM      6  O   UNL     1       0.412   4.368  19.601  0.00  0.00    +0.000 OA
ENDROOT
BRANCH   2   7
ATOM      7  C   UNL     1       5.477   4.984  17.858  0.00  0.00    +0.000 A 
ATOM      8  C   UNL     1       5.817   5.252  19.221  0.00  0.00    +0.000 A 
ATOM      9  C   UNL     1       7.032   5.782  19.635  0.00  0.00    +0.000 A 
ATOM     10  C   UNL     1       7.988   6.067  18.688  0.00  0.00    +0.000 A 
ATOM     11  C   UNL     1       7.720   5.807  17.344  0.00  0.00    +0.000 A 
ATOM     12  C   UNL     1       6.497   5.240  16.882  0.00  0.00    +0.000 A 
BRANCH  12  13
ATOM     13  C   UNL     1       6.420   4.884  15.422  0.00  0.00    +0.000 A 
ATOM     14  C   UNL     1       7.522   5.149  14.566  0.00  0.00    +0.000 A 
ATOM     15  C   UNL     1       7.524   4.828  13.201  0.00  0.00    +0.000 A 
ATOM     16  C   UNL     1       6.428   4.182  12.648  0.00  0.00    +0.000 A 
ATOM     17  C   UNL     1       5.331   3.926  13.454  0.00  0.00    +0.000 A 
ATOM     18  F   UNL     1       4.272   3.292  12.932  0.00  0.00    +0.000 F 
ATOM     19  C   UNL     1       5.302   4.309  14.802  0.00  0.00    +0.000 A 
ENDBRANCH  12  13
ENDBRANCH   2   7
BRANCH   5  20
ATOM     20  C   UNL     1       1.501   2.534  20.638  0.00  0.00    +0.000 C 
ATOM     21  C   UNL     1       2.454   2.459  21.813  0.00  0.00    +0.000 C 
ATOM     22  C   UNL     1       0.982   2.610  22.055  0.00  0.00    +0.000 C 
ENDBRANCH   5  20
BRANCH   1  24
ATOM     23  N   UNL     1       5.237   1.820  19.780  0.00  0.00    +0.000 NA
ATOM     24  C   UNL     1       4.472   2.410  19.149  0.00  0.00    +0.000 C 
ENDBRANCH   1  24
BRANCH   3  25
ATOM     25  C   UNL     1       2.823   6.555  18.667  0.00  0.00    +0.000 C 
BRANCH  25  26
ATOM     26  O   UNL     1       2.311   7.503  17.731  0.00  0.00    +0.000 OA
ATOM     27  H   UNL     1       1.988   8.277  18.233  0.00  0.00    +0.000 HD
ENDBRANCH  25  26
ENDBRANCH   3  25
TORSDOF 6
ENDMDL
MODEL 8
REMARK VINA RESULT:      -6.2      6.198      9.067
REMARK  Name = 
REMARK  6 active torsions:
REMARK  status: ('A' for Active; 'I' for Inactive)
REMARK    1  A    between atoms: C_2  and  C_3
REMARK    2  A    between atoms: C_4  and  C_5
REMARK    3  A    between atoms: C_10  and  C_11
REMARK    4  A    between atoms: C_18  and  C_19
REMARK    5  A    between atoms: C_19  and  O_20
REMARK    6  A    between atoms: C_22  and  C_24
REMARK                            x       y       z     vdW  Elec       q    Type
REMARK                         _______ _______ _______ _____ _____    ______ ____
ROOT
ATOM      1  C   UNL     1       0.046  12.768  18.807  0.00  0.00    +0.000 C 
ATOM      2  C   UNL     1       0.987  11.808  19.578  0.00  0.00    +0.000 C 
ATOM      3  C   UNL     1       1.943  13.033  19.775  0.00  0.00    +0.000 C 
ATOM      4  N   UNL     1       0.769  13.885  19.456  0.00  0.00    +0.000 N 
ATOM      5  C   UNL     1       0.891  15.149  18.903  0.00  0.00    +0.000 C 
ATOM      6  O   UNL     1       1.967  15.727  18.798  0.00  0.00    +0.000 OA
ENDROOT
BRANCH   2   7
ATOM      7  C   UNL     1       0.446  10.990  20.876  0.00  0.00    +0.000 A 
ATOM      8  C   UNL     1      -0.376  11.713  21.796  0.00  0.00    +0.000 A 
ATOM      9  C   UNL     1      -0.912  11.173  22.958  0.00  0.00    +0.000 A 
ATOM     10  C   UNL     1      -0.652   9.856  23.257  0.00  0.00    +0.000 A 
ATOM     11  C   UNL     1       0.127   9.095  22.385  0.00  0.00    +0.000 A 
ATOM     12  C   UNL     1       0.672   9.605  21.171  0.00  0.00    +0.000 A 
BRANCH  12  13
ATOM     13  C   UNL     1       1.364   8.618  20.269  0.00  0.00    +0.000 A 
ATOM     14  C   UNL     1       1.624   7.299  20.724  0.00  0.00    +0.000 A 
ATOM     15  C   UNL     1       2.250   6.327  19.931  0.00  0.00    +0.000 A 
ATOM     16  C   UNL     1       2.599   6.630  18.623  0.00  0.00    +0.000 A 
ATOM     17  C   UNL     1       2.373   7.915  18.157  0.00  0.00    +0.000 A 
ATOM     18  F   UNL     1       2.695   8.215  16.891  0.00  0.00    +0.000 F 
ATOM     19  C   UNL     1       1.811   8.906  18.972  0.00  0.00    +0.000 A 
ENDBRANCH  12  13
ENDBRANCH   2   7
BRANCH   5  20
ATOM     20  C   UNL     1      -0.380  15.791  18.466  0.00  0.00    +0.000 C 
ATOM     21  C   UNL     1      -1.057  16.857  19.302  0.00  0.00    +0.000 C 
ATOM     22  C   UNL     1      -0.389  17.232  18.013  0.00  0.00    +0.000 C 
ENDBRANCH   5  20
BRANCH   1  24
ATOM     23  N   UNL     1      -2.506  12.619  19.320  0.00  0.00    +0.000 NA
ATOM     24  C   UNL     1      -1.373  12.683  19.106  0.00  0.00    +0.000 C 
ENDBRANCH   1  24
BRANCH   3  25
ATOM     25  C   UNL     1       2.575  13.349  21.131  0.00  0.00    +0.000 C 
BRANCH  25  26
ATOM     26  O   UNL     1       3.695  14.220  20.973  0.00  0.00    +0.000 OA
ATOM     27  H   UNL     1       4.495  13.668  20.876  0.00  0.00    +0.000 HD
ENDBRANCH  25  26
ENDBRANCH   3  25
TORSDOF 6
ENDMDL
MODEL 9
REMARK VINA RESULT:      -6.2      8.113     10.688
REMARK  Name = 
REMARK  6 active torsions:
REMARK  status: ('A' for Active; 'I' for Inactive)
REMARK    1  A    between atoms: C_2  and  C_3
REMARK    2  A    between atoms: C_4  and  C_5
REMARK    3  A    between atoms: C_10  and  C_11
REMARK    4  A    between atoms: C_18  and  C_19
REMARK    5  A    between atoms: C_19  and  O_20
REMARK    6  A    between atoms: C_22  and  C_24
REMARK                            x       y       z     vdW  Elec       q    Type
REMARK                         _______ _______ _______ _____ _____    ______ ____
ROOT
ATOM      1  C   UNL     1      -0.358  14.677  19.353  0.00  0.00    +0.000 C 
ATOM      2  C   UNL     1       0.011  13.360  18.625  0.00  0.00    +0.000 C 
ATOM      3  C   UNL     1       1.397  14.018  18.309  0.00  0.00    +0.000 C 
ATOM      4  N   UNL     1       1.092  14.972  19.405  0.00  0.00    +0.000 N 
ATOM      5  C   UNL     1       1.617  16.253  19.448  0.00  0.00    +0.000 C 
ATOM      6  O   UNL     1       2.501  16.635  18.690  0.00  0.00    +0.000 OA
ENDROOT
BRANCH   2   7
ATOM      7  C   UNL     1      -0.047  11.939  19.413  0.00  0.00    +0.000 A 
ATOM      8  C   UNL     1       0.802  11.800  20.555  0.00  0.00    +0.000 A 
ATOM      9  C   UNL     1       0.886  10.653  21.333  0.00  0.00    +0.000 A 
ATOM     10  C   UNL     1       0.102   9.571  21.005  0.00  0.00    +0.000 A 
ATOM     11  C   UNL     1      -0.762   9.656  19.913  0.00  0.00    +0.000 A 
ATOM     12  C   UNL     1      -0.895  10.823  19.107  0.00  0.00    +0.000 A 
BRANCH  12  13
ATOM     13  C   UNL     1      -1.976  10.806  18.059  0.00  0.00    +0.000 A 
ATOM     14  C   UNL     1      -3.193  11.503  18.280  0.00  0.00    +0.000 A 
ATOM     15  C   UNL     1      -4.233  11.541  17.341  0.00  0.00    +0.000 A 
ATOM     16  C   UNL     1      -4.071  10.915  16.113  0.00  0.00    +0.000 A 
ATOM     17  C   UNL     1      -2.902  10.212  15.876  0.00  0.00    +0.000 A 
ATOM     18  F   UNL     1      -2.731   9.613  14.689  0.00  0.00    +0.000 F 
ATOM     19  C   UNL     1      -1.891  10.115  16.842  0.00  0.00    +0.000 A 
ENDBRANCH  12  13
ENDBRANCH   2   7
BRANCH   5  20
ATOM     20  C   UNL     1       1.062  17.146  20.504  0.00  0.00    +0.000 C 
ATOM     21  C   UNL     1       1.636  17.165  21.906  0.00  0.00    +0.000 C 
ATOM     22  C   UNL     1       1.858  18.333  20.993  0.00  0.00    +0.000 C 
ENDBRANCH   5  20
BRANCH   1  24
ATOM     23  N   UNL     1      -1.565  14.452  21.653  0.00  0.00    +0.000 NA
ATOM     24  C   UNL     1      -1.019  14.556  20.641  0.00  0.00    +0.000 C 
ENDBRANCH   1  24
BRANCH   3  25
ATOM     25  C   UNL     1       2.710  13.259  18.509  0.00  0.00    +0.000 C 
BRANCH  25  26
ATOM     26  O   UNL     1       3.779  13.918  17.831  0.00  0.00    +0.000 OA
ATOM     27  H   UNL     1       4.612  13.695  18.292  0.00  0.00    +0.000 HD
ENDBRANCH  25  26
ENDBRANCH   3  25
TORSDOF 6
ENDMDL
