MODEL 1
REMARK VINA RESULT:      -9.4      0.000      0.000
REMARK  Name = 
REMARK  7 active torsions:
REMARK  status: ('A' for Active; 'I' for Inactive)
REMARK    1  A    between atoms: C_1  and  C_2
REMARK    2  A    between atoms: C_2  and  C_3
REMARK    3  A    between atoms: C_2  and  N_4
REMARK    4  A    between atoms: C_6  and  C_7
REMARK    5  A    between atoms: C_7  and  C_9
REMARK    6  A    between atoms: C_13  and  N_14
REMARK    7  A    between atoms: C_15  and  C_17
REMARK                            x       y       z     vdW  Elec       q    Type
REMARK                         _______ _______ _______ _____ _____    ______ ____
ROOT
ATOM      1  C   UNL     1       2.861   3.977  18.788  0.00  0.00    +0.000 A 
ATOM      2  C   UNL     1       2.927   2.897  19.657  0.00  0.00    +0.000 A 
ATOM      3  N   UNL     1       2.482   2.944  20.930  0.00  0.00    +0.000 NA
ATOM      4  C   UNL     1       1.956   4.121  21.352  0.00  0.00    +0.000 A 
ATOM      5  C   UNL     1       1.827   5.264  20.561  0.00  0.00    +0.000 A 
ATOM      6  C   UNL     1       2.256   5.163  19.235  0.00  0.00    +0.000 A 
ENDROOT
BRANCH   5   7
ATOM      7  N   UNL     1       1.316   6.498  21.025  0.00  0.00    +0.000 N 
ATOM      8  C   UNL     1       1.586   7.741  20.466  0.00  0.00    +0.000 C 
ATOM      9  O   UNL     1       2.312   7.900  19.488  0.00  0.00    +0.000 OA
ATOM     10  H   UNL     1       0.614   6.505  21.759  0.00  0.00    +0.000 HD
BRANCH   8  11
ATOM     11  C   UNL     1       0.887   8.841  21.110  0.00  0.00    +0.000 A 
ATOM     12  N   UNL     1       0.870   9.021  22.427  0.00  0.00    +0.000 NA
ATOM     13  C   UNL     1       0.110  10.147  22.637  0.00  0.00    +0.000 A 
ATOM     14  C   UNL     1      -0.368  10.647  21.450  0.00  0.00    +0.000 A 
ATOM     15  C   UNL     1      -1.203  11.731  21.054  0.00  0.00    +0.000 A 
ATOM     16  C   UNL     1      -1.474  11.913  19.747  0.00  0.00    +0.000 A 
ATOM     17  C   UNL     1      -0.924  11.037  18.727  0.00  0.00    +0.000 A 
ATOM     18  C   UNL     1      -0.134  10.017  19.102  0.00  0.00    +0.000 A 
ATOM     19  N   UNL     1       0.141   9.815  20.459  0.00  0.00    +0.000 N 
ENDBRANCH   8  11
ENDBRANCH   5   7
BRANCH   1  20
ATOM     20  C   UNL     1       3.440   3.803  17.434  0.00  0.00    +0.000 C 
ATOM     21  O   UNL     1       2.797   3.190  16.589  0.00  0.00    +0.000 OA
BRANCH  20  24
ATOM     22  N   UNL     1       6.738   5.391  17.351  0.00  0.00    +0.000 N 
ATOM     23  C   UNL     1       5.636   4.942  18.041  0.00  0.00    +0.000 A 
ATOM     24  C   UNL     1       4.759   4.354  17.142  0.00  0.00    +0.000 A 
ATOM     25  C   UNL     1       5.423   4.353  15.877  0.00  0.00    +0.000 A 
ATOM     26  C   UNL     1       5.131   3.897  14.591  0.00  0.00    +0.000 A 
ATOM     27  N   UNL     1       6.018   4.102  13.590  0.00  0.00    +0.000 NA
ATOM     28  C   UNL     1       7.162   4.748  13.887  0.00  0.00    +0.000 A 
ATOM     29  N   UNL     1       7.551   5.239  15.077  0.00  0.00    +0.000 NA
ATOM     30  C   UNL     1       6.639   5.007  16.037  0.00  0.00    +0.000 A 
BRANCH  22  32
ATOM     31  C   UNL     1       7.575   7.692  17.639  0.00  0.00    +0.000 C 
ATOM     32  C   UNL     1       7.812   6.205  17.918  0.00  0.00    +0.000 C 
ATOM     33  C   UNL     1       7.997   5.948  19.413  0.00  0.00    +0.000 C 
ENDBRANCH  22  32
ENDBRANCH  20  24
ENDBRANCH   1  20
TORSDOF 5
ENDMDL
MODEL 2
REMARK VINA RESULT:      -9.0      0.874      2.425
REMARK  Name = 
REMARK  7 active torsions:
REMARK  status: ('A' for Active; 'I' for Inactive)
REMARK    1  A    between atoms: C_1  and  C_2
REMARK    2  A    between atoms: C_2  and  C_3
REMARK    3  A    between atoms: C_2  and  N_4
REMARK    4  A    between atoms: C_6  and  C_7
REMARK    5  A    between atoms: C_7  and  C_9
REMARK    6  A    between atoms: C_13  and  N_14
REMARK    7  A    between atoms: C_15  and  C_17
REMARK                            x       y       z     vdW  Elec       q    Type
REMARK                         _______ _______ _______ _____ _____    ______ ____
ROOT
ATOM      1  C   UNL     1       2.652   3.690  18.935  0.00  0.00    +0.000 A 
ATOM      2  C   UNL     1       2.918   2.737  19.908  0.00  0.00    +0.000 A 
ATOM      3  N   UNL     1       2.688   2.938  21.222  0.00  0.00    +0.000 NA
ATOM      4  C   UNL     1       2.177   4.145  21.577  0.00  0.00    +0.000 A 
ATOM      5  C   UNL     1       1.860   5.168  20.682  0.00  0.00    +0.000 A 
ATOM      6  C   UNL     1       2.068   4.906  19.326  0.00  0.00    +0.000 A 
ENDROOT
BRANCH   5   7
ATOM      7  N   UNL     1       1.368   6.436  21.068  0.00  0.00    +0.000 N 
ATOM      8  C   UNL     1       1.675   7.641  20.447  0.00  0.00    +0.000 C 
ATOM      9  O   UNL     1       2.422   7.730  19.476  0.00  0.00    +0.000 OA
ATOM     10  H   UNL     1       0.653   6.499  21.788  0.00  0.00    +0.000 HD
BRANCH   8  11
ATOM     11  C   UNL     1       0.989   8.790  21.017  0.00  0.00    +0.000 A 
ATOM     12  N   UNL     1       0.965   9.050  22.321  0.00  0.00    +0.000 NA
ATOM     13  C   UNL     1       0.223  10.199  22.454  0.00  0.00    +0.000 A 
ATOM     14  C   UNL     1      -0.238  10.633  21.235  0.00  0.00    +0.000 A 
ATOM     15  C   UNL     1      -1.052  11.704  20.766  0.00  0.00    +0.000 A 
ATOM     16  C   UNL     1      -1.309  11.810  19.448  0.00  0.00    +0.000 A 
ATOM     17  C   UNL     1      -0.766  10.865  18.489  0.00  0.00    +0.000 A 
ATOM     18  C   UNL     1       0.004   9.856  18.933  0.00  0.00    +0.000 A 
ATOM     19  N   UNL     1       0.265   9.733  20.301  0.00  0.00    +0.000 N 
ENDBRANCH   8  11
ENDBRANCH   5   7
BRANCH   1  20
ATOM     20  C   UNL     1       3.009   3.357  17.535  0.00  0.00    +0.000 C 
ATOM     21  O   UNL     1       2.211   2.716  16.857  0.00  0.00    +0.000 OA
BRANCH  20  24
ATOM     22  N   UNL     1       6.004   4.190  15.602  0.00  0.00    +0.000 N 
ATOM     23  C   UNL     1       4.697   3.769  15.673  0.00  0.00    +0.000 A 
ATOM     24  C   UNL     1       4.296   3.787  17.000  0.00  0.00    +0.000 A 
ATOM     25  C   UNL     1       5.381   4.352  17.738  0.00  0.00    +0.000 A 
ATOM     26  C   UNL     1       5.624   4.678  19.073  0.00  0.00    +0.000 A 
ATOM     27  N   UNL     1       6.823   5.191  19.429  0.00  0.00    +0.000 NA
ATOM     28  C   UNL     1       7.744   5.367  18.462  0.00  0.00    +0.000 A 
ATOM     29  N   UNL     1       7.632   5.086  17.151  0.00  0.00    +0.000 NA
ATOM     30  C   UNL     1       6.423   4.583  16.848  0.00  0.00    +0.000 A 
BRANCH  22  32
ATOM     31  C   UNL     1       6.050   3.597  13.210  0.00  0.00    +0.000 C 
ATOM     32  C   UNL     1       6.834   4.160  14.399  0.00  0.00    +0.000 C 
ATOM     33  C   UNL     1       7.420   5.533  14.072  0.00  0.00    +0.000 C 
ENDBRANCH  22  32
ENDBRANCH  20  24
ENDBRANCH   1  20
TORSDOF 5
ENDMDL
MODEL 3
REMARK VINA RESULT:      -8.8      2.041      3.604
REMARK  Name = 
REMARK  7 active torsions:
REMARK  status: ('A' for Active; 'I' for Inactive)
REMARK    1  A    between atoms: C_1  and  C_2
REMARK    2  A    between atoms: C_2  and  C_3
REMARK    3  A    between atoms: C_2  and  N_4
REMARK    4  A    between atoms: C_6  and  C_7
REMARK    5  A    between atoms: C_7  and  C_9
REMARK    6  A    between atoms: C_13  and  N_14
REMARK    7  A    between atoms: C_15  and  C_17
REMARK                            x       y       z     vdW  Elec       q    Type
REMARK                         _______ _______ _______ _____ _____    ______ ____
ROOT
ATOM      1  C   UNL     1       2.359   5.542  18.609  0.00  0.00    +0.000 A 
ATOM      2  C   UNL     1       1.962   5.114  19.868  0.00  0.00    +0.000 A 
ATOM      3  N   UNL     1       1.594   5.958  20.854  0.00  0.00    +0.000 NA
ATOM      4  C   UNL     1       1.632   7.285  20.571  0.00  0.00    +0.000 A 
ATOM      5  C   UNL     1       2.002   7.824  19.337  0.00  0.00    +0.000 A 
ATOM      6  C   UNL     1       2.331   6.917  18.327  0.00  0.00    +0.000 A 
ENDROOT
BRANCH   5   7
ATOM      7  N   UNL     1       2.078   9.210  19.067  0.00  0.00    +0.000 N 
ATOM      8  C   UNL     1       0.998  10.034  18.779  0.00  0.00    +0.000 C 
ATOM      9  O   UNL     1      -0.163   9.635  18.729  0.00  0.00    +0.000 OA
ATOM     10  H   UNL     1       2.965   9.694  19.183  0.00  0.00    +0.000 HD
BRANCH   8  11
ATOM     11  C   UNL     1       1.355  11.431  18.593  0.00  0.00    +0.000 A 
ATOM     12  N   UNL     1       2.495  11.822  18.033  0.00  0.00    +0.000 NA
ATOM     13  C   UNL     1       2.461  13.196  18.045  0.00  0.00    +0.000 A 
ATOM     14  C   UNL     1       1.311  13.655  18.641  0.00  0.00    +0.000 A 
ATOM     15  C   UNL     1       0.757  14.928  18.959  0.00  0.00    +0.000 A 
ATOM     16  C   UNL     1      -0.437  14.993  19.579  0.00  0.00    +0.000 A 
ATOM     17  C   UNL     1      -1.182  13.793  19.921  0.00  0.00    +0.000 A 
ATOM     18  C   UNL     1      -0.658  12.593  19.618  0.00  0.00    +0.000 A 
ATOM     19  N   UNL     1       0.587  12.519  18.985  0.00  0.00    +0.000 N 
ENDBRANCH   8  11
ENDBRANCH   5   7
BRANCH   1  20
ATOM     20  C   UNL     1       2.793   4.507  17.640  0.00  0.00    +0.000 C 
ATOM     21  O   UNL     1       1.996   3.635  17.308  0.00  0.00    +0.000 OA
BRANCH  20  24
ATOM     22  N   UNL     1       5.914   4.421  15.728  0.00  0.00    +0.000 N 
ATOM     23  C   UNL     1       4.540   4.395  15.790  0.00  0.00    +0.000 A 
ATOM     24  C   UNL     1       4.153   4.542  17.113  0.00  0.00    +0.000 A 
ATOM     25  C   UNL     1       5.350   4.779  17.857  0.00  0.00    +0.000 A 
ATOM     26  C   UNL     1       5.668   5.036  19.191  0.00  0.00    +0.000 A 
ATOM     27  N   UNL     1       6.963   5.185  19.554  0.00  0.00    +0.000 NA
ATOM     28  C   UNL     1       7.901   5.079  18.593  0.00  0.00    +0.000 A 
ATOM     29  N   UNL     1       7.721   4.827  17.284  0.00  0.00    +0.000 NA
ATOM     30  C   UNL     1       6.420   4.691  16.975  0.00  0.00    +0.000 A 
BRANCH  22  32
ATOM     31  C   UNL     1       5.823   3.598  13.406  0.00  0.00    +0.000 C 
ATOM     32  C   UNL     1       6.707   4.140  14.533  0.00  0.00    +0.000 C 
ATOM     33  C   UNL     1       7.500   5.362  14.070  0.00  0.00    +0.000 C 
ENDBRANCH  22  32
ENDBRANCH  20  24
ENDBRANCH   1  20
TORSDOF 5
ENDMDL
MODEL 4
REMARK VINA RESULT:      -8.7      2.911      9.661
REMARK  Name = 
REMARK  7 active torsions:
REMARK  status: ('A' for Active; 'I' for Inactive)
REMARK    1  A    between atoms: C_1  and  C_2
REMARK    2  A    between atoms: C_2  and  C_3
REMARK    3  A    between atoms: C_2  and  N_4
REMARK    4  A    between atoms: C_6  and  C_7
REMARK    5  A    between atoms: C_7  and  C_9
REMARK    6  A    between atoms: C_13  and  N_14
REMARK    7  A    between atoms: C_15  and  C_17
REMARK                            x       y       z     vdW  Elec       q    Type
REMARK                         _______ _______ _______ _____ _____    ______ ____
ROOT
ATOM      1  C   UNL     1      -0.447  11.087  20.903  0.00  0.00    +0.000 A 
ATOM      2  C   UNL     1      -0.680  11.347  22.246  0.00  0.00    +0.000 A 
ATOM      3  N   UNL     1      -0.373  10.477  23.231  0.00  0.00    +0.000 NA
ATOM      4  C   UNL     1       0.182   9.297  22.856  0.00  0.00    +0.000 A 
ATOM      5  C   UNL     1       0.472   8.938  21.539  0.00  0.00    +0.000 A 
ATOM      6  C   UNL     1       0.184   9.883  20.551  0.00  0.00    +0.000 A 
ENDROOT
BRANCH   5   7
ATOM      7  N   UNL     1       1.012   7.689  21.156  0.00  0.00    +0.000 N 
ATOM      8  C   UNL     1       1.852   7.474  20.071  0.00  0.00    +0.000 C 
ATOM      9  O   UNL     1       2.222   8.368  19.314  0.00  0.00    +0.000 OA
ATOM     10  H   UNL     1       0.878   6.880  21.758  0.00  0.00    +0.000 HD
BRANCH   8  11
ATOM     11  C   UNL     1       2.303   6.097  19.937  0.00  0.00    +0.000 A 
ATOM     12  N   UNL     1       2.002   5.145  20.815  0.00  0.00    +0.000 NA
ATOM     13  C   UNL     1       2.610   4.005  20.346  0.00  0.00    +0.000 A 
ATOM     14  C   UNL     1       3.311   4.259  19.192  0.00  0.00    +0.000 A 
ATOM     15  C   UNL     1       4.134   3.509  18.304  0.00  0.00    +0.000 A 
ATOM     16  C   UNL     1       4.684   4.121  17.237  0.00  0.00    +0.000 A 
ATOM     17  C   UNL     1       4.448   5.528  16.963  0.00  0.00    +0.000 A 
ATOM     18  C   UNL     1       3.670   6.233  17.800  0.00  0.00    +0.000 A 
ATOM     19  N   UNL     1       3.105   5.607  18.916  0.00  0.00    +0.000 N 
ENDBRANCH   8  11
ENDBRANCH   5   7
BRANCH   1  20
ATOM     20  C   UNL     1      -0.887  12.108  19.922  0.00  0.00    +0.000 C 
ATOM     21  O   UNL     1      -0.096  12.984  19.584  0.00  0.00    +0.000 OA
BRANCH  20  24
ATOM     22  N   UNL     1      -4.475  12.203  19.203  0.00  0.00    +0.000 N 
ATOM     23  C   UNL     1      -3.401  12.501  20.009  0.00  0.00    +0.000 A 
ATOM     24  C   UNL     1      -2.244  12.055  19.390  0.00  0.00    +0.000 A 
ATOM     25  C   UNL     1      -2.639  11.571  18.105  0.00  0.00    +0.000 A 
ATOM     26  C   UNL     1      -1.990  11.030  16.995  0.00  0.00    +0.000 A 
ATOM     27  N   UNL     1      -2.714  10.640  15.920  0.00  0.00    +0.000 NA
ATOM     28  C   UNL     1      -4.050  10.797  15.973  0.00  0.00    +0.000 A 
ATOM     29  N   UNL     1      -4.787  11.294  16.983  0.00  0.00    +0.000 NA
ATOM     30  C   UNL     1      -4.022  11.669  18.023  0.00  0.00    +0.000 A 
BRANCH  22  32
ATOM     31  C   UNL     1      -6.500  11.031  19.980  0.00  0.00    +0.000 C 
ATOM     32  C   UNL     1      -5.879  12.371  19.575  0.00  0.00    +0.000 C 
ATOM     33  C   UNL     1      -6.059  13.416  20.675  0.00  0.00    +0.000 C 
ENDBRANCH  22  32
ENDBRANCH  20  24
ENDBRANCH   1  20
TORSDOF 5
ENDMDL
MODEL 5
REMARK VINA RESULT:      -8.7      1.473      2.780
REMARK  Name = 
REMARK  7 active torsions:
REMARK  status: ('A' for Active; 'I' for Inactive)
REMARK    1  A    between atoms: C_1  and  C_2
REMARK    2  A    between atoms: C_2  and  C_3
REMARK    3  A    between atoms: C_2  and  N_4
REMARK    4  A    between atoms: C_6  and  C_7
REMARK    5  A    between atoms: C_7  and  C_9
REMARK    6  A    between atoms: C_13  and  N_14
REMARK    7  A    between atoms: C_15  and  C_17
REMARK                            x       y       z     vdW  Elec       q    Type
REMARK                         _______ _______ _______ _____ _____    ______ ____
ROOT
ATOM      1  C   UNL     1       2.498   4.637  18.729  0.00  0.00    +0.000 A 
ATOM      2  C   UNL     1       2.452   3.921  19.917  0.00  0.00    +0.000 A 
ATOM      3  N   UNL     1       2.153   4.481  21.107  0.00  0.00    +0.000 NA
ATOM      4  C   UNL     1       1.897   5.814  21.110  0.00  0.00    +0.000 A 
ATOM      5  C   UNL     1       1.902   6.626  19.975  0.00  0.00    +0.000 A 
ATOM      6  C   UNL     1       2.170   6.002  18.754  0.00  0.00    +0.000 A 
ENDROOT
BRANCH   5   7
ATOM      7  N   UNL     1       1.676   8.022  19.996  0.00  0.00    +0.000 N 
ATOM      8  C   UNL     1       0.705   8.667  20.752  0.00  0.00    +0.000 C 
ATOM      9  O   UNL     1      -0.073   8.079  21.498  0.00  0.00    +0.000 OA
ATOM     10  H   UNL     1       2.319   8.642  19.511  0.00  0.00    +0.000 HD
BRANCH   8  11
ATOM     11  C   UNL     1       0.725  10.116  20.625  0.00  0.00    +0.000 A 
ATOM     12  N   UNL     1       1.417  10.908  21.437  0.00  0.00    +0.000 NA
ATOM     13  C   UNL     1       1.176  12.189  21.000  0.00  0.00    +0.000 A 
ATOM     14  C   UNL     1       0.311  12.190  19.932  0.00  0.00    +0.000 A 
ATOM     15  C   UNL     1      -0.307  13.177  19.112  0.00  0.00    +0.000 A 
ATOM     16  C   UNL     1      -1.140  12.790  18.126  0.00  0.00    +0.000 A 
ATOM     17  C   UNL     1      -1.416  11.387  17.872  0.00  0.00    +0.000 A 
ATOM     18  C   UNL     1      -0.831  10.457  18.645  0.00  0.00    +0.000 A 
ATOM     19  N   UNL     1       0.027  10.852  19.677  0.00  0.00    +0.000 N 
ENDBRANCH   8  11
ENDBRANCH   5   7
BRANCH   1  20
ATOM     20  C   UNL     1       2.897   3.904  17.503  0.00  0.00    +0.000 C 
ATOM     21  O   UNL     1       2.097   3.127  16.991  0.00  0.00    +0.000 OA
BRANCH  20  24
ATOM     22  N   UNL     1       5.949   4.238  15.508  0.00  0.00    +0.000 N 
ATOM     23  C   UNL     1       4.590   4.045  15.606  0.00  0.00    +0.000 A 
ATOM     24  C   UNL     1       4.227   4.115  16.942  0.00  0.00    +0.000 A 
ATOM     25  C   UNL     1       5.408   4.478  17.660  0.00  0.00    +0.000 A 
ATOM     26  C   UNL     1       5.732   4.742  18.991  0.00  0.00    +0.000 A 
ATOM     27  N   UNL     1       7.009   5.039  19.323  0.00  0.00    +0.000 NA
ATOM     28  C   UNL     1       7.925   5.067  18.336  0.00  0.00    +0.000 A 
ATOM     29  N   UNL     1       7.738   4.825  17.026  0.00  0.00    +0.000 NA
ATOM     30  C   UNL     1       6.455   4.540  16.748  0.00  0.00    +0.000 A 
BRANCH  22  32
ATOM     31  C   UNL     1       5.859   3.580  13.134  0.00  0.00    +0.000 C 
ATOM     32  C   UNL     1       6.735   4.082  14.286  0.00  0.00    +0.000 C 
ATOM     33  C   UNL     1       7.462   5.370  13.903  0.00  0.00    +0.000 C 
ENDBRANCH  22  32
ENDBRANCH  20  24
ENDBRANCH   1  20
TORSDOF 5
ENDMDL
MODEL 6
REMARK VINA RESULT:      -8.7      0.961      1.615
REMARK  Name = 
REMARK  7 active torsions:
REMARK  status: ('A' for Active; 'I' for Inactive)
REMARK    1  A    between atoms: C_1  and  C_2
REMARK    2  A    between atoms: C_2  and  C_3
REMARK    3  A    between atoms: C_2  and  N_4
REMARK    4  A    between atoms: C_6  and  C_7
REMARK    5  A    between atoms: C_7  and  C_9
REMARK    6  A    between atoms: C_13  and  N_14
REMARK    7  A    between atoms: C_15  and  C_17
REMARK                            x       y       z     vdW  Elec       q    Type
REMARK                         _______ _______ _______ _____ _____    ______ ____
ROOT
ATOM      1  C   UNL     1       3.198   3.966  19.027  0.00  0.00    +0.000 A 
ATOM      2  C   UNL     1       2.901   3.096  20.066  0.00  0.00    +0.000 A 
ATOM      3  N   UNL     1       2.212   3.464  21.166  0.00  0.00    +0.000 NA
ATOM      4  C   UNL     1       1.811   4.760  21.232  0.00  0.00    +0.000 A 
ATOM      5  C   UNL     1       2.043   5.715  20.241  0.00  0.00    +0.000 A 
ATOM      6  C   UNL     1       2.718   5.284  19.097  0.00  0.00    +0.000 A 
ENDROOT
BRANCH   5   7
ATOM      7  N   UNL     1       1.657   7.071  20.341  0.00  0.00    +0.000 N 
ATOM      8  C   UNL     1       1.784   8.019  19.333  0.00  0.00    +0.000 C 
ATOM      9  O   UNL     1       2.254   7.771  18.226  0.00  0.00    +0.000 OA
ATOM     10  H   UNL     1       1.151   7.390  21.163  0.00  0.00    +0.000 HD
BRANCH   8  11
ATOM     11  C   UNL     1       1.259   9.329  19.685  0.00  0.00    +0.000 A 
ATOM     12  N   UNL     1       1.413  10.405  18.920  0.00  0.00    +0.000 NA
ATOM     13  C   UNL     1       0.790  11.429  19.592  0.00  0.00    +0.000 A 
ATOM     14  C   UNL     1       0.274  10.992  20.789  0.00  0.00    +0.000 A 
ATOM     15  C   UNL     1      -0.421  11.580  21.884  0.00  0.00    +0.000 A 
ATOM     16  C   UNL     1      -0.772  10.811  22.933  0.00  0.00    +0.000 A 
ATOM     17  C   UNL     1      -0.468   9.392  22.970  0.00  0.00    +0.000 A 
ATOM     18  C   UNL     1       0.186   8.838  21.935  0.00  0.00    +0.000 A 
ATOM     19  N   UNL     1       0.563   9.632  20.848  0.00  0.00    +0.000 N 
ENDBRANCH   8  11
ENDBRANCH   5   7
BRANCH   1  20
ATOM     20  C   UNL     1       4.013   3.441  17.905  0.00  0.00    +0.000 C 
ATOM     21  O   UNL     1       3.692   2.375  17.389  0.00  0.00    +0.000 OA
BRANCH  20  24
ATOM     22  N   UNL     1       6.954   5.561  17.401  0.00  0.00    +0.000 N 
ATOM     23  C   UNL     1       6.028   4.965  18.224  0.00  0.00    +0.000 A 
ATOM     24  C   UNL     1       5.177   4.193  17.449  0.00  0.00    +0.000 A 
ATOM     25  C   UNL     1       5.691   4.244  16.117  0.00  0.00    +0.000 A 
ATOM     26  C   UNL     1       5.347   3.683  14.887  0.00  0.00    +0.000 A 
ATOM     27  N   UNL     1       6.072   3.987  13.786  0.00  0.00    +0.000 NA
ATOM     28  C   UNL     1       7.111   4.832  13.932  0.00  0.00    +0.000 A 
ATOM     29  N   UNL     1       7.533   5.439  15.055  0.00  0.00    +0.000 NA
ATOM     30  C   UNL     1       6.784   5.102  16.119  0.00  0.00    +0.000 A 
BRANCH  22  32
ATOM     31  C   UNL     1       7.434   7.978  17.462  0.00  0.00    +0.000 C 
ATOM     32  C   UNL     1       7.924   6.572  17.818  0.00  0.00    +0.000 C 
ATOM     33  C   UNL     1       8.258   6.466  19.306  0.00  0.00    +0.000 C 
ENDBRANCH  22  32
ENDBRANCH  20  24
ENDBRANCH   1  20
TORSDOF 5
ENDMDL
MODEL 7
REMARK VINA RESULT:      -8.6      1.400      1.948
REMARK  Name = 
REMARK  7 active torsions:
REMARK  status: ('A' for Active; 'I' for Inactive)
REMARK    1  A    between atoms: C_1  and  C_2
REMARK    2  A    between atoms: C_2  and  C_3
REMARK    3  A    between atoms: C_2  and  N_4
REMARK    4  A    between atoms: C_6  and  C_7
REMARK    5  A    between atoms: C_7  and  C_9
REMARK    6  A    between atoms: C_13  and  N_14
REMARK    7  A    between atoms: C_15  and  C_17
REMARK                            x       y       z     vdW  Elec       q    Type
REMARK                         _______ _______ _______ _____ _____    ______ ____
ROOT
ATOM      1  C   UNL     1       2.707   5.039  18.711  0.00  0.00    +0.000 A 
ATOM      2  C   UNL     1       2.325   4.215  19.760  0.00  0.00    +0.000 A 
ATOM      3  N   UNL     1       1.716   4.669  20.874  0.00  0.00    +0.000 NA
ATOM      4  C   UNL     1       1.486   6.005  20.945  0.00  0.00    +0.000 A 
ATOM      5  C   UNL     1       1.815   6.922  19.945  0.00  0.00    +0.000 A 
ATOM      6  C   UNL     1       2.402   6.408  18.787  0.00  0.00    +0.000 A 
ENDROOT
BRANCH   5   7
ATOM      7  N   UNL     1       1.609   8.317  20.049  0.00  0.00    +0.000 N 
ATOM      8  C   UNL     1       0.602   8.929  20.786  0.00  0.00    +0.000 C 
ATOM      9  O   UNL     1      -0.230   8.306  21.440  0.00  0.00    +0.000 OA
ATOM     10  H   UNL     1       2.291   8.956  19.648  0.00  0.00    +0.000 HD
BRANCH   8  11
ATOM     11  C   UNL     1       0.652  10.382  20.760  0.00  0.00    +0.000 A 
ATOM     12  N   UNL     1       1.438  11.068  19.936  0.00  0.00    +0.000 NA
ATOM     13  C   UNL     1       1.204  12.393  20.220  0.00  0.00    +0.000 A 
ATOM     14  C   UNL     1       0.294  12.525  21.241  0.00  0.00    +0.000 A 
ATOM     15  C   UNL     1      -0.292  13.605  21.961  0.00  0.00    +0.000 A 
ATOM     16  C   UNL     1      -1.174  13.342  22.945  0.00  0.00    +0.000 A 
ATOM     17  C   UNL     1      -1.553  11.981  23.282  0.00  0.00    +0.000 A 
ATOM     18  C   UNL     1      -1.001  10.963  22.599  0.00  0.00    +0.000 A 
ATOM     19  N   UNL     1      -0.076  11.229  21.585  0.00  0.00    +0.000 N 
ENDBRANCH   8  11
ENDBRANCH   5   7
BRANCH   1  20
ATOM     20  C   UNL     1       3.421   4.413  17.572  0.00  0.00    +0.000 C 
ATOM     21  O   UNL     1       2.864   3.516  16.945  0.00  0.00    +0.000 OA
BRANCH  20  24
ATOM     22  N   UNL     1       6.790   5.825  17.337  0.00  0.00    +0.000 N 
ATOM     23  C   UNL     1       5.669   5.504  18.065  0.00  0.00    +0.000 A 
ATOM     24  C   UNL     1       4.765   4.867  17.229  0.00  0.00    +0.000 A 
ATOM     25  C   UNL     1       5.427   4.702  15.974  0.00  0.00    +0.000 A 
ATOM     26  C   UNL     1       5.113   4.127  14.742  0.00  0.00    +0.000 A 
ATOM     27  N   UNL     1       6.007   4.184  13.729  0.00  0.00    +0.000 NA
ATOM     28  C   UNL     1       7.181   4.802  13.962  0.00  0.00    +0.000 A 
ATOM     29  N   UNL     1       7.594   5.397  15.096  0.00  0.00    +0.000 NA
ATOM     30  C   UNL     1       6.672   5.310  16.070  0.00  0.00    +0.000 A 
BRANCH  22  32
ATOM     31  C   UNL     1       7.644   8.128  17.551  0.00  0.00    +0.000 C 
ATOM     32  C   UNL     1       7.902   6.643  17.820  0.00  0.00    +0.000 C 
ATOM     33  C   UNL     1       8.195   6.394  19.299  0.00  0.00    +0.000 C 
ENDBRANCH  22  32
ENDBRANCH  20  24
ENDBRANCH   1  20
TORSDOF 5
ENDMDL
MODEL 8
REMARK VINA RESULT:      -8.6      3.038      9.548
REMARK  Name = 
REMARK  7 active torsions:
REMARK  status: ('A' for Active; 'I' for Inactive)
REMARK    1  A    between atoms: C_1  and  C_2
REMARK    2  A    between atoms: C_2  and  C_3
REMARK    3  A    between atoms: C_2  and  N_4
REMARK    4  A    between atoms: C_6  and  C_7
REMARK    5  A    between atoms: C_7  and  C_9
REMARK    6  A    between atoms: C_13  and  N_14
REMARK    7  A    between atoms: C_15  and  C_17
REMARK                            x       y       z     vdW  Elec       q    Type
REMARK                         _______ _______ _______ _____ _____    ______ ____
ROOT
ATOM      1  C   UNL     1      -0.086  11.038  20.938  0.00  0.00    +0.000 A 
ATOM      2  C   UNL     1      -0.440  11.178  22.273  0.00  0.00    +0.000 A 
ATOM      3  N   UNL     1      -0.115  10.277  23.223  0.00  0.00    +0.000 NA
ATOM      4  C   UNL     1       0.585   9.186  22.819  0.00  0.00    +0.000 A 
ATOM      5  C   UNL     1       1.004   8.952  21.509  0.00  0.00    +0.000 A 
ATOM      6  C   UNL     1       0.690   9.930  20.562  0.00  0.00    +0.000 A 
ENDROOT
BRANCH   5   7
ATOM      7  N   UNL     1       1.696   7.791  21.092  0.00  0.00    +0.000 N 
ATOM      8  C   UNL     1       2.085   7.512  19.788  0.00  0.00    +0.000 C 
ATOM      9  O   UNL     1       1.864   8.261  18.841  0.00  0.00    +0.000 OA
ATOM     10  H   UNL     1       2.041   7.137  21.789  0.00  0.00    +0.000 HD
BRANCH   8  11
ATOM     11  C   UNL     1       2.831   6.270  19.648  0.00  0.00    +0.000 A 
ATOM     12  N   UNL     1       4.096   6.223  19.243  0.00  0.00    +0.000 NA
ATOM     13  C   UNL     1       4.432   4.891  19.236  0.00  0.00    +0.000 A 
ATOM     14  C   UNL     1       3.365   4.111  19.610  0.00  0.00    +0.000 A 
ATOM     15  C   UNL     1       3.111   2.717  19.752  0.00  0.00    +0.000 A 
ATOM     16  C   UNL     1       1.891   2.304  20.146  0.00  0.00    +0.000 A 
ATOM     17  C   UNL     1       0.828   3.248  20.443  0.00  0.00    +0.000 A 
ATOM     18  C   UNL     1       1.070   4.564  20.311  0.00  0.00    +0.000 A 
ATOM     19  N   UNL     1       2.331   4.998  19.891  0.00  0.00    +0.000 N 
ENDBRANCH   8  11
ENDBRANCH   5   7
BRANCH   1  20
ATOM     20  C   UNL     1      -0.559  12.077  19.992  0.00  0.00    +0.000 C 
ATOM     21  O   UNL     1       0.215  12.967  19.655  0.00  0.00    +0.000 OA
BRANCH  20  24
ATOM     22  N   UNL     1      -4.153  12.264  19.321  0.00  0.00    +0.000 N 
ATOM     23  C   UNL     1      -3.048  12.612  20.062  0.00  0.00    +0.000 A 
ATOM     24  C   UNL     1      -1.929  12.023  19.493  0.00  0.00    +0.000 A 
ATOM     25  C   UNL     1      -2.376  11.388  18.294  0.00  0.00    +0.000 A 
ATOM     26  C   UNL     1      -1.781  10.666  17.260  0.00  0.00    +0.000 A 
ATOM     27  N   UNL     1      -2.548  10.171  16.261  0.00  0.00    +0.000 NA
ATOM     28  C   UNL     1      -3.873  10.404  16.312  0.00  0.00    +0.000 A 
ATOM     29  N   UNL     1      -4.560  11.075  17.254  0.00  0.00    +0.000 NA
ATOM     30  C   UNL     1      -3.755  11.548  18.220  0.00  0.00    +0.000 A 
BRANCH  22  32
ATOM     31  C   UNL     1      -6.206  13.442  18.633  0.00  0.00    +0.000 C 
ATOM     32  C   UNL     1      -5.538  12.556  19.687  0.00  0.00    +0.000 C 
ATOM     33  C   UNL     1      -6.348  11.283  19.930  0.00  0.00    +0.000 C 
ENDBRANCH  22  32
ENDBRANCH  20  24
ENDBRANCH   1  20
TORSDOF 5
ENDMDL
MODEL 9
REMARK VINA RESULT:      -8.6      1.176      1.336
REMARK  Name = 
REMARK  7 active torsions:
REMARK  status: ('A' for Active; 'I' for Inactive)
REMARK    1  A    between atoms: C_1  and  C_2
REMARK    2  A    between atoms: C_2  and  C_3
REMARK    3  A    between atoms: C_2  and  N_4
REMARK    4  A    between atoms: C_6  and  C_7
REMARK    5  A    between atoms: C_7  and  C_9
REMARK    6  A    between atoms: C_13  and  N_14
REMARK    7  A    between atoms: C_15  and  C_17
REMARK                            x       y       z     vdW  Elec       q    Type
REMARK                         _______ _______ _______ _____ _____    ______ ____
ROOT
ATOM      1  C   UNL     1       2.862   4.666  18.889  0.00  0.00    +0.000 A 
ATOM      2  C   UNL     1       2.462   3.875  19.957  0.00  0.00    +0.000 A 
ATOM      3  N   UNL     1       1.798   4.358  21.028  0.00  0.00    +0.000 NA
ATOM      4  C   UNL     1       1.529   5.689  21.033  0.00  0.00    +0.000 A 
ATOM      5  C   UNL     1       1.872   6.572  20.008  0.00  0.00    +0.000 A 
ATOM      6  C   UNL     1       2.516   6.027  18.895  0.00  0.00    +0.000 A 
ENDROOT
BRANCH   5   7
ATOM      7  N   UNL     1       1.624   7.964  20.044  0.00  0.00    +0.000 N 
ATOM      8  C   UNL     1       0.636   8.585  20.797  0.00  0.00    +0.000 C 
ATOM      9  O   UNL     1      -0.142   7.977  21.527  0.00  0.00    +0.000 OA
ATOM     10  H   UNL     1       2.263   8.599  19.573  0.00  0.00    +0.000 HD
BRANCH   8  11
ATOM     11  C   UNL     1       0.636  10.036  20.687  0.00  0.00    +0.000 A 
ATOM     12  N   UNL     1       1.307  10.828  21.517  0.00  0.00    +0.000 NA
ATOM     13  C   UNL     1       1.051  12.110  21.092  0.00  0.00    +0.000 A 
ATOM     14  C   UNL     1       0.197  12.111  20.016  0.00  0.00    +0.000 A 
ATOM     15  C   UNL     1      -0.427  13.099  19.201  0.00  0.00    +0.000 A 
ATOM     16  C   UNL     1      -1.244  12.712  18.203  0.00  0.00    +0.000 A 
ATOM     17  C   UNL     1      -1.496  11.308  17.928  0.00  0.00    +0.000 A 
ATOM     18  C   UNL     1      -0.905  10.378  18.696  0.00  0.00    +0.000 A 
ATOM     19  N   UNL     1      -0.064  10.773  19.742  0.00  0.00    +0.000 N 
ENDBRANCH   8  11
ENDBRANCH   5   7
BRANCH   1  20
ATOM     20  C   UNL     1       3.636   4.013  17.806  0.00  0.00    +0.000 C 
ATOM     21  O   UNL     1       3.177   3.006  17.275  0.00  0.00    +0.000 OA
BRANCH  20  24
ATOM     22  N   UNL     1       6.876   5.674  17.429  0.00  0.00    +0.000 N 
ATOM     23  C   UNL     1       5.825   5.251  18.208  0.00  0.00    +0.000 A 
ATOM     24  C   UNL     1       4.921   4.574  17.404  0.00  0.00    +0.000 A 
ATOM     25  C   UNL     1       5.519   4.494  16.108  0.00  0.00    +0.000 A 
ATOM     26  C   UNL     1       5.175   3.934  14.878  0.00  0.00    +0.000 A 
ATOM     27  N   UNL     1       6.003   4.086  13.819  0.00  0.00    +0.000 NA
ATOM     28  C   UNL     1       7.141   4.781  14.005  0.00  0.00    +0.000 A 
ATOM     29  N   UNL     1       7.575   5.372  15.133  0.00  0.00    +0.000 NA
ATOM     30  C   UNL     1       6.721   5.189  16.155  0.00  0.00    +0.000 A 
BRANCH  22  32
ATOM     31  C   UNL     1       7.658   8.011  17.499  0.00  0.00    +0.000 C 
ATOM     32  C   UNL     1       7.953   6.557  17.876  0.00  0.00    +0.000 C 
ATOM     33  C   UNL     1       8.221   6.419  19.374  0.00  0.00    +0.000 C 
ENDBRANCH  22  32
ENDBRANCH  20  24
ENDBRANCH   1  20
TORSDOF 5
ENDMDL
