MODEL 1
REMARK VINA RESULT:      -8.6      0.000      0.000
REMARK  Name = 
REMARK  7 active torsions:
REMARK  status: ('A' for Active; 'I' for Inactive)
REMARK    1  A    between atoms: C_1  and  C_2
REMARK    2  A    between atoms: C_2  and  C_3
REMARK    3  A    between atoms: C_2  and  C_4
REMARK    4  A    between atoms: C_4  and  O_5
REMARK    5  A    between atoms: O_5  and  C_6
REMARK    6  A    between atoms: C_6  and  C_7
REMARK    7  A    between atoms: C_15  and  C_17
REMARK                            x       y       z     vdW  Elec       q    Type
REMARK                         _______ _______ _______ _____ _____    ______ ____
ROOT
ATOM      1  C   UNL     1       6.847   5.043  15.551  0.00  0.00    +0.000 C 
ATOM      2  C   UNL     1       7.252   4.325  16.842  0.00  0.00    +0.000 C 
ATOM      3  C   UNL     1       7.322   5.271  18.029  0.00  0.00    +0.000 C 
ATOM      4  C   UNL     1       6.069   6.126  18.147  0.00  0.00    +0.000 C 
ATOM      5  C   UNL     1       5.807   6.824  16.798  0.00  0.00    +0.000 C 
ATOM      6  C   UNL     1       4.420   7.411  16.990  0.00  0.00    +0.000 C 
ATOM      7  C   UNL     1       3.727   6.397  17.895  0.00  0.00    +0.000 C 
ATOM      8  N   UNL     1       4.764   5.518  18.441  0.00  0.00    +0.000 N 
ATOM      9  C   UNL     1       4.582   4.289  19.079  0.00  0.00    +0.000 C 
ATOM     10  O   UNL     1       5.525   3.593  19.461  0.00  0.00    +0.000 OA
ATOM     11  O   UNL     1       5.710   5.897  15.713  0.00  0.00    +0.000 OA
ENDROOT
BRANCH   9  12
ATOM     12  C   UNL     1       3.215   3.761  19.340  0.00  0.00    +0.000 A 
ATOM     13  C   UNL     1       2.455   4.207  20.421  0.00  0.00    +0.000 A 
ATOM     14  C   UNL     1       1.174   3.720  20.609  0.00  0.00    +0.000 A 
ATOM     15  N   UNL     1       0.627   2.760  19.842  0.00  0.00    +0.000 NA
ATOM     16  C   UNL     1       1.407   2.271  18.849  0.00  0.00    +0.000 A 
ATOM     17  C   UNL     1       2.681   2.736  18.556  0.00  0.00    +0.000 A 
ATOM     18  F   UNL     1       3.350   2.178  17.538  0.00  0.00    +0.000 F 
ENDBRANCH   9  12
BRANCH   1  19
ATOM     19  C   UNL     1       6.521   4.022  14.443  0.00  0.00    +0.000 C 
BRANCH  19  20
ATOM     20  O   UNL     1       6.569   4.634  13.146  0.00  0.00    +0.000 OA
BRANCH  20  21
ATOM     21  C   UNL     1       6.792   3.679  12.113  0.00  0.00    +0.000 C 
BRANCH  21  23
ATOM     22  C   UNL     1       4.384   3.289  11.405  0.00  0.00    +0.000 C 
ATOM     23  C   UNL     1       5.637   2.669  12.025  0.00  0.00    +0.000 C 
ATOM     24  C   UNL     1       6.031   1.421  11.235  0.00  0.00    +0.000 C 
ENDBRANCH  21  23
ENDBRANCH  20  21
ENDBRANCH  19  20
ENDBRANCH   1  19
TORSDOF 5
ENDMDL
MODEL 2
REMARK VINA RESULT:      -8.5      0.958      1.352
REMARK  Name = 
REMARK  7 active torsions:
REMARK  status: ('A' for Active; 'I' for Inactive)
REMARK    1  A    between atoms: C_1  and  C_2
REMARK    2  A    between atoms: C_2  and  C_3
REMARK    3  A    between atoms: C_2  and  C_4
REMARK    4  A    between atoms: C_4  and  O_5
REMARK    5  A    between atoms: O_5  and  C_6
REMARK    6  A    between atoms: C_6  and  C_7
REMARK    7  A    between atoms: C_15  and  C_17
REMARK                            x       y       z     vdW  Elec       q    Type
REMARK                         _______ _______ _______ _____ _____    ______ ____
ROOT
ATOM      1  C   UNL     1       6.840   5.124  15.530  0.00  0.00    +0.000 C 
ATOM      2  C   UNL     1       7.219   4.347  16.795  0.00  0.00    +0.000 C 
ATOM      3  C   UNL     1       7.252   5.235  18.027  0.00  0.00    +0.000 C 
ATOM      4  C   UNL     1       5.990   6.074  18.156  0.00  0.00    +0.000 C 
ATOM      5  C   UNL     1       5.754   6.835  16.836  0.00  0.00    +0.000 C 
ATOM      6  C   UNL     1       4.358   7.401  17.022  0.00  0.00    +0.000 C 
ATOM      7  C   UNL     1       3.653   6.340  17.860  0.00  0.00    +0.000 C 
ATOM      8  N   UNL     1       4.683   5.443  18.387  0.00  0.00    +0.000 N 
ATOM      9  C   UNL     1       4.496   4.183  18.960  0.00  0.00    +0.000 C 
ATOM     10  O   UNL     1       5.435   3.476  19.332  0.00  0.00    +0.000 OA
ATOM     11  O   UNL     1       5.692   5.961  15.705  0.00  0.00    +0.000 OA
ENDROOT
BRANCH   9  12
ATOM     12  C   UNL     1       3.127   3.633  19.162  0.00  0.00    +0.000 A 
ATOM     13  C   UNL     1       2.560   2.739  18.254  0.00  0.00    +0.000 A 
ATOM     14  C   UNL     1       1.299   2.222  18.496  0.00  0.00    +0.000 A 
ATOM     15  N   UNL     1       0.533   2.592  19.537  0.00  0.00    +0.000 NA
ATOM     16  C   UNL     1       1.060   3.526  20.364  0.00  0.00    +0.000 A 
ATOM     17  C   UNL     1       2.334   4.061  20.228  0.00  0.00    +0.000 A 
ATOM     18  F   UNL     1       2.747   4.972  21.119  0.00  0.00    +0.000 F 
ENDBRANCH   9  12
BRANCH   1  19
ATOM     19  C   UNL     1       6.549   4.156  14.367  0.00  0.00    +0.000 C 
BRANCH  19  20
ATOM     20  O   UNL     1       6.855   4.761  13.102  0.00  0.00    +0.000 OA
BRANCH  20  21
ATOM     21  C   UNL     1       6.885   3.806  12.046  0.00  0.00    +0.000 C 
BRANCH  21  23
ATOM     22  C   UNL     1       4.428   3.452  11.512  0.00  0.00    +0.000 C 
ATOM     23  C   UNL     1       5.689   2.844  12.126  0.00  0.00    +0.000 C 
ATOM     24  C   UNL     1       5.990   1.505  11.452  0.00  0.00    +0.000 C 
ENDBRANCH  21  23
ENDBRANCH  20  21
ENDBRANCH  19  20
ENDBRANCH   1  19
TORSDOF 5
ENDMDL
MODEL 3
REMARK VINA RESULT:      -7.2      1.050      1.056
REMARK  Name = 
REMARK  7 active torsions:
REMARK  status: ('A' for Active; 'I' for Inactive)
REMARK    1  A    between atoms: C_1  and  C_2
REMARK    2  A    between atoms: C_2  and  C_3
REMARK    3  A    between atoms: C_2  and  C_4
REMARK    4  A    between atoms: C_4  and  O_5
REMARK    5  A    between atoms: O_5  and  C_6
REMARK    6  A    between atoms: C_6  and  C_7
REMARK    7  A    between atoms: C_15  and  C_17
REMARK                            x       y       z     vdW  Elec       q    Type
REMARK                         _______ _______ _______ _____ _____    ______ ____
ROOT
ATOM      1  C   UNL     1       6.283   5.103  15.415  0.00  0.00    +0.000 C 
ATOM      2  C   UNL     1       6.942   4.499  16.661  0.00  0.00    +0.000 C 
ATOM      3  C   UNL     1       7.175   5.534  17.747  0.00  0.00    +0.000 C 
ATOM      4  C   UNL     1       5.925   6.354  18.027  0.00  0.00    +0.000 C 
ATOM      5  C   UNL     1       5.398   6.938  16.703  0.00  0.00    +0.000 C 
ATOM      6  C   UNL     1       4.040   7.492  17.098  0.00  0.00    +0.000 C 
ATOM      7  C   UNL     1       3.565   6.527  18.180  0.00  0.00    +0.000 C 
ATOM      8  N   UNL     1       4.721   5.728  18.591  0.00  0.00    +0.000 N 
ATOM      9  C   UNL     1       4.711   4.545  19.335  0.00  0.00    +0.000 C 
ATOM     10  O   UNL     1       5.737   3.912  19.589  0.00  0.00    +0.000 OA
ATOM     11  O   UNL     1       5.154   5.928  15.718  0.00  0.00    +0.000 OA
ENDROOT
BRANCH   9  12
ATOM     12  C   UNL     1       3.436   3.994  19.872  0.00  0.00    +0.000 A 
ATOM     13  C   UNL     1       2.259   4.740  19.866  0.00  0.00    +0.000 A 
ATOM     14  C   UNL     1       1.086   4.180  20.340  0.00  0.00    +0.000 A 
ATOM     15  N   UNL     1       1.022   2.955  20.893  0.00  0.00    +0.000 NA
ATOM     16  C   UNL     1       2.188   2.273  20.974  0.00  0.00    +0.000 A 
ATOM     17  C   UNL     1       3.400   2.736  20.478  0.00  0.00    +0.000 A 
ATOM     18  F   UNL     1       4.485   1.961  20.607  0.00  0.00    +0.000 F 
ENDBRANCH   9  12
BRANCH   1  19
ATOM     19  C   UNL     1       5.815   3.990  14.457  0.00  0.00    +0.000 C 
BRANCH  19  20
ATOM     20  O   UNL     1       6.839   3.659  13.509  0.00  0.00    +0.000 OA
BRANCH  20  21
ATOM     21  C   UNL     1       6.361   3.702  12.167  0.00  0.00    +0.000 C 
BRANCH  21  23
ATOM     22  C   UNL     1       4.121   3.128  11.116  0.00  0.00    +0.000 C 
ATOM     23  C   UNL     1       5.318   2.603  11.910  0.00  0.00    +0.000 C 
ATOM     24  C   UNL     1       5.925   1.403  11.184  0.00  0.00    +0.000 C 
ENDBRANCH  21  23
ENDBRANCH  20  21
ENDBRANCH  19  20
ENDBRANCH   1  19
TORSDOF 5
ENDMDL
MODEL 4
REMARK VINA RESULT:      -7.2      2.523      3.670
REMARK  Name = 
REMARK  7 active torsions:
REMARK  status: ('A' for Active; 'I' for Inactive)
REMARK    1  A    between atoms: C_1  and  C_2
REMARK    2  A    between atoms: C_2  and  C_3
REMARK    3  A    between atoms: C_2  and  C_4
REMARK    4  A    between atoms: C_4  and  O_5
REMARK    5  A    between atoms: O_5  and  C_6
REMARK    6  A    between atoms: C_6  and  C_7
REMARK    7  A    between atoms: C_15  and  C_17
REMARK                            x       y       z     vdW  Elec       q    Type
REMARK                         _______ _______ _______ _____ _____    ______ ____
ROOT
ATOM      1  C   UNL     1       5.570   3.816  15.890  0.00  0.00    +0.000 C 
ATOM      2  C   UNL     1       4.121   3.429  16.203  0.00  0.00    +0.000 C 
ATOM      3  C   UNL     1       3.946   2.969  17.640  0.00  0.00    +0.000 C 
ATOM      4  C   UNL     1       4.568   3.945  18.628  0.00  0.00    +0.000 C 
ATOM      5  C   UNL     1       6.031   4.209  18.223  0.00  0.00    +0.000 C 
ATOM      6  C   UNL     1       6.422   5.370  19.119  0.00  0.00    +0.000 C 
ATOM      7  C   UNL     1       5.125   6.161  19.261  0.00  0.00    +0.000 C 
ATOM      8  N   UNL     1       4.038   5.308  18.778  0.00  0.00    +0.000 N 
ATOM      9  C   UNL     1       2.736   5.698  18.454  0.00  0.00    +0.000 C 
ATOM     10  O   UNL     1       1.900   4.912  18.004  0.00  0.00    +0.000 OA
ATOM     11  O   UNL     1       6.150   4.676  16.876  0.00  0.00    +0.000 OA
ENDROOT
BRANCH   9  12
ATOM     12  C   UNL     1       2.290   7.105  18.652  0.00  0.00    +0.000 A 
ATOM     13  C   UNL     1       2.444   8.066  17.653  0.00  0.00    +0.000 A 
ATOM     14  C   UNL     1       1.984   9.354  17.861  0.00  0.00    +0.000 A 
ATOM     15  N   UNL     1       1.452   9.771  19.024  0.00  0.00    +0.000 NA
ATOM     16  C   UNL     1       1.388   8.852  20.017  0.00  0.00    +0.000 A 
ATOM     17  C   UNL     1       1.778   7.527  19.880  0.00  0.00    +0.000 A 
ATOM     18  F   UNL     1       1.654   6.709  20.934  0.00  0.00    +0.000 F 
ENDBRANCH   9  12
BRANCH   1  19
ATOM     19  C   UNL     1       5.657   4.530  14.527  0.00  0.00    +0.000 C 
BRANCH  19  20
ATOM     20  O   UNL     1       6.741   4.014  13.741  0.00  0.00    +0.000 OA
BRANCH  20  21
ATOM     21  C   UNL     1       6.409   3.935  12.358  0.00  0.00    +0.000 C 
BRANCH  21  23
ATOM     22  C   UNL     1       4.186   3.283  11.317  0.00  0.00    +0.000 C 
ATOM     23  C   UNL     1       5.415   2.796  12.085  0.00  0.00    +0.000 C 
ATOM     24  C   UNL     1       6.067   1.642  11.324  0.00  0.00    +0.000 C 
ENDBRANCH  21  23
ENDBRANCH  20  21
ENDBRANCH  19  20
ENDBRANCH   1  19
TORSDOF 5
ENDMDL
MODEL 5
REMARK VINA RESULT:      -7.1      2.939      6.653
REMARK  Name = 
REMARK  7 active torsions:
REMARK  status: ('A' for Active; 'I' for Inactive)
REMARK    1  A    between atoms: C_1  and  C_2
REMARK    2  A    between atoms: C_2  and  C_3
REMARK    3  A    between atoms: C_2  and  C_4
REMARK    4  A    between atoms: C_4  and  O_5
REMARK    5  A    between atoms: O_5  and  C_6
REMARK    6  A    between atoms: C_6  and  C_7
REMARK    7  A    between atoms: C_15  and  C_17
REMARK                            x       y       z     vdW  Elec       q    Type
REMARK                         _______ _______ _______ _____ _____    ______ ____
ROOT
ATOM      1  C   UNL     1       1.462   4.901  20.727  0.00  0.00    +0.000 C 
ATOM      2  C   UNL     1       2.734   4.182  21.190  0.00  0.00    +0.000 C 
ATOM      3  C   UNL     1       2.851   2.786  20.603  0.00  0.00    +0.000 C 
ATOM      4  C   UNL     1       2.637   2.783  19.098  0.00  0.00    +0.000 C 
ATOM      5  C   UNL     1       1.307   3.492  18.777  0.00  0.00    +0.000 C 
ATOM      6  C   UNL     1       1.362   3.640  17.267  0.00  0.00    +0.000 C 
ATOM      7  C   UNL     1       2.849   3.836  16.984  0.00  0.00    +0.000 C 
ATOM      8  N   UNL     1       3.577   3.467  18.199  0.00  0.00    +0.000 N 
ATOM      9  C   UNL     1       4.910   3.751  18.506  0.00  0.00    +0.000 C 
ATOM     10  O   UNL     1       5.424   3.441  19.582  0.00  0.00    +0.000 OA
ATOM     11  O   UNL     1       1.250   4.817  19.314  0.00  0.00    +0.000 OA
ENDROOT
BRANCH   9  12
ATOM     12  C   UNL     1       5.789   4.442  17.522  0.00  0.00    +0.000 A 
ATOM     13  C   UNL     1       6.062   3.887  16.273  0.00  0.00    +0.000 A 
ATOM     14  C   UNL     1       6.852   4.577  15.371  0.00  0.00    +0.000 A 
ATOM     15  N   UNL     1       7.455   5.745  15.657  0.00  0.00    +0.000 NA
ATOM     16  C   UNL     1       7.254   6.232  16.905  0.00  0.00    +0.000 A 
ATOM     17  C   UNL     1       6.436   5.634  17.854  0.00  0.00    +0.000 A 
ATOM     18  F   UNL     1       6.308   6.220  19.052  0.00  0.00    +0.000 F 
ENDBRANCH   9  12
BRANCH   1  19
ATOM     19  C   UNL     1       1.512   6.392  21.112  0.00  0.00    +0.000 C 
BRANCH  19  20
ATOM     20  O   UNL     1       2.291   7.144  20.170  0.00  0.00    +0.000 OA
BRANCH  20  21
ATOM     21  C   UNL     1       1.593   8.291  19.694  0.00  0.00    +0.000 C 
BRANCH  21  23
ATOM     22  C   UNL     1       2.051  10.013  17.884  0.00  0.00    +0.000 C 
ATOM     23  C   UNL     1       1.863   8.529  18.200  0.00  0.00    +0.000 C 
ATOM     24  C   UNL     1       3.081   7.745  17.710  0.00  0.00    +0.000 C 
ENDBRANCH  21  23
ENDBRANCH  20  21
ENDBRANCH  19  20
ENDBRANCH   1  19
TORSDOF 5
ENDMDL
MODEL 6
REMARK VINA RESULT:      -7.1      2.953      6.729
REMARK  Name = 
REMARK  7 active torsions:
REMARK  status: ('A' for Active; 'I' for Inactive)
REMARK    1  A    between atoms: C_1  and  C_2
REMARK    2  A    between atoms: C_2  and  C_3
REMARK    3  A    between atoms: C_2  and  C_4
REMARK    4  A    between atoms: C_4  and  O_5
REMARK    5  A    between atoms: O_5  and  C_6
REMARK    6  A    between atoms: C_6  and  C_7
REMARK    7  A    between atoms: C_15  and  C_17
REMARK                            x       y       z     vdW  Elec       q    Type
REMARK                         _______ _______ _______ _____ _____    ______ ____
ROOT
ATOM      1  C   UNL     1       1.445   4.873  20.708  0.00  0.00    +0.000 C 
ATOM      2  C   UNL     1       2.725   4.189  21.200  0.00  0.00    +0.000 C 
ATOM      3  C   UNL     1       2.921   2.818  20.577  0.00  0.00    +0.000 C 
ATOM      4  C   UNL     1       2.765   2.854  19.065  0.00  0.00    +0.000 C 
ATOM      5  C   UNL     1       1.422   3.521  18.712  0.00  0.00    +0.000 C 
ATOM      6  C   UNL     1       1.530   3.718  17.210  0.00  0.00    +0.000 C 
ATOM      7  C   UNL     1       3.017   3.980  16.993  0.00  0.00    +0.000 C 
ATOM      8  N   UNL     1       3.712   3.601  18.225  0.00  0.00    +0.000 N 
ATOM      9  C   UNL     1       5.020   3.926  18.594  0.00  0.00    +0.000 C 
ATOM     10  O   UNL     1       5.504   3.603  19.680  0.00  0.00    +0.000 OA
ATOM     11  O   UNL     1       1.292   4.825  19.285  0.00  0.00    +0.000 OA
ENDROOT
BRANCH   9  12
ATOM     12  C   UNL     1       5.908   4.681  17.666  0.00  0.00    +0.000 A 
ATOM     13  C   UNL     1       6.363   5.962  17.975  0.00  0.00    +0.000 A 
ATOM     14  C   UNL     1       7.217   6.617  17.105  0.00  0.00    +0.000 A 
ATOM     15  N   UNL     1       7.584   6.117  15.912  0.00  0.00    +0.000 NA
ATOM     16  C   UNL     1       7.066   4.910  15.584  0.00  0.00    +0.000 A 
ATOM     17  C   UNL     1       6.245   4.160  16.416  0.00  0.00    +0.000 A 
ATOM     18  F   UNL     1       5.804   2.972  15.982  0.00  0.00    +0.000 F 
ENDBRANCH   9  12
BRANCH   1  19
ATOM     19  C   UNL     1       1.421   6.352  21.139  0.00  0.00    +0.000 C 
BRANCH  19  20
ATOM     20  O   UNL     1       2.013   7.192  20.138  0.00  0.00    +0.000 OA
BRANCH  20  21
ATOM     21  C   UNL     1       1.410   8.482  20.098  0.00  0.00    +0.000 C 
BRANCH  21  23
ATOM     22  C   UNL     1       2.362   8.256  17.754  0.00  0.00    +0.000 C 
ATOM     23  C   UNL     1       1.687   9.187  18.761  0.00  0.00    +0.000 C 
ATOM     24  C   UNL     1       0.410   9.762  18.146  0.00  0.00    +0.000 C 
ENDBRANCH  21  23
ENDBRANCH  20  21
ENDBRANCH  19  20
ENDBRANCH   1  19
TORSDOF 5
ENDMDL
MODEL 7
REMARK VINA RESULT:      -6.6      2.837      5.418
REMARK  Name = 
REMARK  7 active torsions:
REMARK  status: ('A' for Active; 'I' for Inactive)
REMARK    1  A    between atoms: C_1  and  C_2
REMARK    2  A    between atoms: C_2  and  C_3
REMARK    3  A    between atoms: C_2  and  C_4
REMARK    4  A    between atoms: C_4  and  O_5
REMARK    5  A    between atoms: O_5  and  C_6
REMARK    6  A    between atoms: C_6  and  C_7
REMARK    7  A    between atoms: C_15  and  C_17
REMARK                            x       y       z     vdW  Elec       q    Type
REMARK                         _______ _______ _______ _____ _____    ______ ____
ROOT
ATOM      1  C   UNL     1       7.301   6.882  17.251  0.00  0.00    +0.000 C 
ATOM      2  C   UNL     1       5.911   7.527  17.260  0.00  0.00    +0.000 C 
ATOM      3  C   UNL     1       5.122   7.210  16.001  0.00  0.00    +0.000 C 
ATOM      4  C   UNL     1       5.127   5.722  15.689  0.00  0.00    +0.000 C 
ATOM      5  C   UNL     1       6.582   5.216  15.665  0.00  0.00    +0.000 C 
ATOM      6  C   UNL     1       6.411   3.709  15.606  0.00  0.00    +0.000 C 
ATOM      7  C   UNL     1       5.139   3.464  16.412  0.00  0.00    +0.000 C 
ATOM      8  N   UNL     1       4.478   4.759  16.590  0.00  0.00    +0.000 N 
ATOM      9  C   UNL     1       3.454   5.070  17.486  0.00  0.00    +0.000 C 
ATOM     10  O   UNL     1       2.993   6.208  17.599  0.00  0.00    +0.000 OA
ATOM     11  O   UNL     1       7.280   5.500  16.881  0.00  0.00    +0.000 OA
ENDROOT
BRANCH   9  12
ATOM     12  C   UNL     1       2.854   4.018  18.353  0.00  0.00    +0.000 A 
ATOM     13  C   UNL     1       1.545   3.576  18.163  0.00  0.00    +0.000 A 
ATOM     14  C   UNL     1       1.036   2.571  18.966  0.00  0.00    +0.000 A 
ATOM     15  N   UNL     1       1.712   2.031  19.995  0.00  0.00    +0.000 NA
ATOM     16  C   UNL     1       2.949   2.530  20.225  0.00  0.00    +0.000 A 
ATOM     17  C   UNL     1       3.559   3.500  19.441  0.00  0.00    +0.000 A 
ATOM     18  F   UNL     1       4.794   3.904  19.764  0.00  0.00    +0.000 F 
ENDBRANCH   9  12
BRANCH   1  19
ATOM     19  C   UNL     1       7.958   6.992  18.641  0.00  0.00    +0.000 C 
BRANCH  19  20
ATOM     20  O   UNL     1       8.895   8.077  18.686  0.00  0.00    +0.000 OA
BRANCH  20  21
ATOM     21  C   UNL     1       8.333   9.291  18.196  0.00  0.00    +0.000 C 
BRANCH  21  23
ATOM     22  C   UNL     1       8.731  11.773  17.839  0.00  0.00    +0.000 C 
ATOM     23  C   UNL     1       9.247  10.490  18.491  0.00  0.00    +0.000 C 
ATOM     24  C   UNL     1       9.421  10.716  19.993  0.00  0.00    +0.000 C 
ENDBRANCH  21  23
ENDBRANCH  20  21
ENDBRANCH  19  20
ENDBRANCH   1  19
TORSDOF 5
ENDMDL
MODEL 8
REMARK VINA RESULT:      -6.6      3.041      7.347
REMARK  Name = 
REMARK  7 active torsions:
REMARK  status: ('A' for Active; 'I' for Inactive)
REMARK    1  A    between atoms: C_1  and  C_2
REMARK    2  A    between atoms: C_2  and  C_3
REMARK    3  A    between atoms: C_2  and  C_4
REMARK    4  A    between atoms: C_4  and  O_5
REMARK    5  A    between atoms: O_5  and  C_6
REMARK    6  A    between atoms: C_6  and  C_7
REMARK    7  A    between atoms: C_15  and  C_17
REMARK                            x       y       z     vdW  Elec       q    Type
REMARK                         _______ _______ _______ _____ _____    ______ ____
ROOT
ATOM      1  C   UNL     1       1.470   4.797  20.754  0.00  0.00    +0.000 C 
ATOM      2  C   UNL     1       2.744   4.071  21.200  0.00  0.00    +0.000 C 
ATOM      3  C   UNL     1       2.905   2.722  20.520  0.00  0.00    +0.000 C 
ATOM      4  C   UNL     1       2.729   2.822  19.013  0.00  0.00    +0.000 C 
ATOM      5  C   UNL     1       1.393   3.526  18.707  0.00  0.00    +0.000 C 
ATOM      6  C   UNL     1       1.483   3.781  17.213  0.00  0.00    +0.000 C 
ATOM      7  C   UNL     1       2.972   4.025  16.984  0.00  0.00    +0.000 C 
ATOM      8  N   UNL     1       3.677   3.585  18.190  0.00  0.00    +0.000 N 
ATOM      9  C   UNL     1       4.996   3.871  18.551  0.00  0.00    +0.000 C 
ATOM     10  O   UNL     1       5.489   3.496  19.616  0.00  0.00    +0.000 OA
ATOM     11  O   UNL     1       1.295   4.809  19.334  0.00  0.00    +0.000 OA
ENDROOT
BRANCH   9  12
ATOM     12  C   UNL     1       5.884   4.647  17.641  0.00  0.00    +0.000 A 
ATOM     13  C   UNL     1       6.300   5.939  17.955  0.00  0.00    +0.000 A 
ATOM     14  C   UNL     1       7.155   6.614  17.102  0.00  0.00    +0.000 A 
ATOM     15  N   UNL     1       7.561   6.120  15.919  0.00  0.00    +0.000 NA
ATOM     16  C   UNL     1       7.081   4.900  15.583  0.00  0.00    +0.000 A 
ATOM     17  C   UNL     1       6.261   4.131  16.399  0.00  0.00    +0.000 A 
ATOM     18  F   UNL     1       5.861   2.931  15.959  0.00  0.00    +0.000 F 
ENDBRANCH   9  12
BRANCH   1  19
ATOM     19  C   UNL     1       1.480   6.258  21.244  0.00  0.00    +0.000 C 
BRANCH  19  20
ATOM     20  O   UNL     1       1.537   7.173  20.141  0.00  0.00    +0.000 OA
BRANCH  20  21
ATOM     21  C   UNL     1       1.464   8.530  20.567  0.00  0.00    +0.000 C 
BRANCH  21  23
ATOM     22  C   UNL     1      -0.174   9.409  22.297  0.00  0.00    +0.000 C 
ATOM     23  C   UNL     1       0.014   8.950  20.851  0.00  0.00    +0.000 C 
ATOM     24  C   UNL     1      -0.455  10.053  19.902  0.00  0.00    +0.000 C 
ENDBRANCH  21  23
ENDBRANCH  20  21
ENDBRANCH  19  20
ENDBRANCH   1  19
TORSDOF 5
ENDMDL
MODEL 9
REMARK VINA RESULT:      -6.6      8.285     10.611
REMARK  Name = 
REMARK  7 active torsions:
REMARK  status: ('A' for Active; 'I' for Inactive)
REMARK    1  A    between atoms: C_1  and  C_2
REMARK    2  A    between atoms: C_2  and  C_3
REMARK    3  A    between atoms: C_2  and  C_4
REMARK    4  A    between atoms: C_4  and  O_5
REMARK    5  A    between atoms: O_5  and  C_6
REMARK    6  A    between atoms: C_6  and  C_7
REMARK    7  A    between atoms: C_15  and  C_17
REMARK                            x       y       z     vdW  Elec       q    Type
REMARK                         _______ _______ _______ _____ _____    ______ ____
ROOT
ATOM      1  C   UNL     1       9.804  10.439  18.663  0.00  0.00    +0.000 C 
ATOM      2  C   UNL     1       9.742  10.997  20.089  0.00  0.00    +0.000 C 
ATOM      3  C   UNL     1      10.981  11.799  20.447  0.00  0.00    +0.000 C 
ATOM      4  C   UNL     1      11.320  12.828  19.379  0.00  0.00    +0.000 C 
ATOM      5  C   UNL     1      11.396  12.126  18.010  0.00  0.00    +0.000 C 
ATOM      6  C   UNL     1      11.476  13.292  17.040  0.00  0.00    +0.000 C 
ATOM      7  C   UNL     1      10.636  14.372  17.715  0.00  0.00    +0.000 C 
ATOM      8  N   UNL     1      10.416  13.953  19.101  0.00  0.00    +0.000 N 
ATOM      9  C   UNL     1       9.484  14.469  20.004  0.00  0.00    +0.000 C 
ATOM     10  O   UNL     1       9.337  14.015  21.140  0.00  0.00    +0.000 OA
ATOM     11  O   UNL     1      10.197  11.414  17.692  0.00  0.00    +0.000 OA
ENDROOT
BRANCH   9  12
ATOM     12  C   UNL     1       8.618  15.621  19.629  0.00  0.00    +0.000 A 
ATOM     13  C   UNL     1       8.923  16.922  20.027  0.00  0.00    +0.000 A 
ATOM     14  C   UNL     1       8.113  17.971  19.629  0.00  0.00    +0.000 A 
ATOM     15  N   UNL     1       6.978  17.805  18.927  0.00  0.00    +0.000 NA
ATOM     16  C   UNL     1       6.645  16.528  18.622  0.00  0.00    +0.000 A 
ATOM     17  C   UNL     1       7.422  15.422  18.936  0.00  0.00    +0.000 A 
ATOM     18  F   UNL     1       6.991  14.208  18.567  0.00  0.00    +0.000 F 
ENDBRANCH   9  12
BRANCH   1  19
ATOM     19  C   UNL     1       8.433   9.875  18.242  0.00  0.00    +0.000 C 
BRANCH  19  20
ATOM     20  O   UNL     1       8.415   8.443  18.325  0.00  0.00    +0.000 OA
BRANCH  20  21
ATOM     21  C   UNL     1       7.457   7.868  17.441  0.00  0.00    +0.000 C 
BRANCH  21  23
ATOM     22  C   UNL     1       7.207   5.432  16.766  0.00  0.00    +0.000 C 
ATOM     23  C   UNL     1       7.057   6.454  17.893  0.00  0.00    +0.000 C 
ATOM     24  C   UNL     1       7.864   5.996  19.107  0.00  0.00    +0.000 C 
ENDBRANCH  21  23
ENDBRANCH  20  21
ENDBRANCH  19  20
ENDBRANCH   1  19
TORSDOF 5
ENDMDL
