MODEL 1
REMARK VINA RESULT:      -9.1      0.000      0.000
REMARK  Name = 
REMARK  13 active torsions:
REMARK  status: ('A' for Active; 'I' for Inactive)
REMARK    1  A    between atoms: C_1  and  C_2
REMARK    2  A    between atoms: N_4  and  C_5
REMARK    3  A    between atoms: C_6  and  C_7
REMARK    4  A    between atoms: C_8  and  N_9
REMARK    5  A    between atoms: N_9  and  S_10
REMARK    6  A    between atoms: S_10  and  C_13
REMARK    7  A    between atoms: C_16  and  C_17
REMARK    8  A    between atoms: C_17  and  O_18
REMARK    9  A    between atoms: O_18  and  C_19
REMARK   10  A    between atoms: C_22  and  C_23
REMARK   11  A    between atoms: C_23  and  C_24
REMARK   12  A    between atoms: C_23  and  C_25
REMARK   13  A    between atoms: C_23  and  C_26
REMARK                            x       y       z     vdW  Elec       q    Type
REMARK                         _______ _______ _______ _____ _____    ______ ____
ROOT
ATOM      1  C   UNL     1      -2.977  11.138  18.278  0.00  0.00    +0.000 A 
ATOM      2  C   UNL     1      -2.373  10.137  17.511  0.00  0.00    +0.000 A 
ATOM      3  C   UNL     1      -1.028   9.827  17.722  0.00  0.00    +0.000 A 
ATOM      4  C   UNL     1      -0.284  10.511  18.695  0.00  0.00    +0.000 A 
ATOM      5  C   UNL     1      -0.905  11.515  19.454  0.00  0.00    +0.000 A 
ATOM      6  C   UNL     1      -2.248  11.831  19.248  0.00  0.00    +0.000 A 
ENDROOT
BRANCH   1   7
ATOM      7  S   UNL     1      -4.664  11.590  17.972  0.00  0.00    +0.000 S 
ATOM      8  O   UNL     1      -5.506  10.557  18.553  0.00  0.00    +0.000 OA
ATOM      9  O   UNL     1      -4.802  11.964  16.582  0.00  0.00    +0.000 OA
BRANCH   7  10
ATOM     10  N   UNL     1      -4.848  12.940  18.958  0.00  0.00    +0.000 N 
ATOM     11  H   UNL     1      -4.002  13.504  19.036  0.00  0.00    +0.000 HD
BRANCH  10  19
ATOM     12  C   UNL     1      -7.861  13.658  18.368  0.00  0.00    +0.000 C 
ATOM     13  C   UNL     1      -7.197  13.390  19.666  0.00  0.00    +0.000 A 
ATOM     14  N   UNL     1      -7.905  13.463  20.798  0.00  0.00    +0.000 NA
ATOM     15  N   UNL     1      -7.017  13.184  21.763  0.00  0.00    +0.000 N 
ATOM     16  C   UNL     1      -7.472  13.188  23.135  0.00  0.00    +0.000 C 
ATOM     17  C   UNL     1      -5.752  12.927  21.293  0.00  0.00    +0.000 A 
ATOM     18  C   UNL     1      -4.606  12.579  22.172  0.00  0.00    +0.000 C 
ATOM     19  C   UNL     1      -5.845  13.049  19.921  0.00  0.00    +0.000 A 
ENDBRANCH  10  19
ENDBRANCH   7  10
ENDBRANCH   1   7
BRANCH   4  20
ATOM     20  C   UNL     1       1.187  10.223  18.882  0.00  0.00    +0.000 C 
BRANCH  20  21
ATOM     21  O   UNL     1       1.302   9.153  19.818  0.00  0.00    +0.000 OA
BRANCH  21  22
ATOM     22  C   UNL     1       1.951   8.033  19.374  0.00  0.00    +0.000 A 
ATOM     23  C   UNL     1       1.849   6.921  20.206  0.00  0.00    +0.000 A 
ATOM     24  C   UNL     1       2.449   5.706  19.853  0.00  0.00    +0.000 A 
ATOM     25  C   UNL     1       3.141   5.559  18.631  0.00  0.00    +0.000 A 
ATOM     26  C   UNL     1       3.245   6.697  17.824  0.00  0.00    +0.000 A 
ATOM     27  C   UNL     1       2.651   7.920  18.180  0.00  0.00    +0.000 A 
BRANCH  25  28
ATOM     28  C   UNL     1       3.793   4.201  18.231  0.00  0.00    +0.000 C 
ATOM     29  C   UNL     1       4.313   3.460  19.499  0.00  0.00    +0.000 C 
ATOM     30  C   UNL     1       2.710   3.265  17.620  0.00  0.00    +0.000 C 
BRANCH  28  31
ATOM     31  C   UNL     1       4.972   4.341  17.234  0.00  0.00    +0.000 A 
ATOM     32  C   UNL     1       6.293   4.586  17.646  0.00  0.00    +0.000 A 
ATOM     33  C   UNL     1       7.342   4.654  16.721  0.00  0.00    +0.000 A 
ATOM     34  C   UNL     1       7.099   4.479  15.362  0.00  0.00    +0.000 A 
ATOM     35  C   UNL     1       5.801   4.250  14.925  0.00  0.00    +0.000 A 
ATOM     36  C   UNL     1       4.752   4.187  15.847  0.00  0.00    +0.000 A 
ENDBRANCH  28  31
ENDBRANCH  25  28
ENDBRANCH  21  22
ENDBRANCH  20  21
ENDBRANCH   4  20
TORSDOF 8
ENDMDL
MODEL 2
REMARK VINA RESULT:      -8.7      5.529     11.947
REMARK  Name = 
REMARK  13 active torsions:
REMARK  status: ('A' for Active; 'I' for Inactive)
REMARK    1  A    between atoms: C_1  and  C_2
REMARK    2  A    between atoms: N_4  and  C_5
REMARK    3  A    between atoms: C_6  and  C_7
REMARK    4  A    between atoms: C_8  and  N_9
REMARK    5  A    between atoms: N_9  and  S_10
REMARK    6  A    between atoms: S_10  and  C_13
REMARK    7  A    between atoms: C_16  and  C_17
REMARK    8  A    between atoms: C_17  and  O_18
REMARK    9  A    between atoms: O_18  and  C_19
REMARK   10  A    between atoms: C_22  and  C_23
REMARK   11  A    between atoms: C_23  and  C_24
REMARK   12  A    between atoms: C_23  and  C_25
REMARK   13  A    between atoms: C_23  and  C_26
REMARK                            x       y       z     vdW  Elec       q    Type
REMARK                         _______ _______ _______ _____ _____    ______ ____
ROOT
ATOM      1  C   UNL     1       2.695   4.481  18.531  0.00  0.00    +0.000 A 
ATOM      2  C   UNL     1       2.506   4.480  19.916  0.00  0.00    +0.000 A 
ATOM      3  C   UNL     1       2.212   5.677  20.571  0.00  0.00    +0.000 A 
ATOM      4  C   UNL     1       2.107   6.876  19.849  0.00  0.00    +0.000 A 
ATOM      5  C   UNL     1       2.303   6.860  18.460  0.00  0.00    +0.000 A 
ATOM      6  C   UNL     1       2.597   5.667  17.799  0.00  0.00    +0.000 A 
ENDROOT
BRANCH   1   7
ATOM      7  S   UNL     1       3.138   2.980  17.697  0.00  0.00    +0.000 S 
ATOM      8  O   UNL     1       2.660   3.083  16.328  0.00  0.00    +0.000 OA
ATOM      9  O   UNL     1       2.766   1.857  18.530  0.00  0.00    +0.000 OA
BRANCH   7  10
ATOM     10  N   UNL     1       4.812   3.111  17.610  0.00  0.00    +0.000 N 
ATOM     11  H   UNL     1       5.304   2.411  18.166  0.00  0.00    +0.000 HD
BRANCH  10  19
ATOM     12  C   UNL     1       5.365   3.981  14.630  0.00  0.00    +0.000 C 
ATOM     13  C   UNL     1       5.735   4.666  15.893  0.00  0.00    +0.000 A 
ATOM     14  N   UNL     1       6.420   5.813  15.845  0.00  0.00    +0.000 NA
ATOM     15  N   UNL     1       6.596   6.147  17.131  0.00  0.00    +0.000 N 
ATOM     16  C   UNL     1       7.322   7.360  17.432  0.00  0.00    +0.000 C 
ATOM     17  C   UNL     1       6.042   5.254  18.016  0.00  0.00    +0.000 A 
ATOM     18  C   UNL     1       6.096   5.420  19.491  0.00  0.00    +0.000 C 
ATOM     19  C   UNL     1       5.466   4.277  17.228  0.00  0.00    +0.000 A 
ENDBRANCH  10  19
ENDBRANCH   7  10
ENDBRANCH   1   7
BRANCH   4  20
ATOM     20  C   UNL     1       1.853   8.184  20.562  0.00  0.00    +0.000 C 
BRANCH  20  21
ATOM     21  O   UNL     1       0.603   8.071  21.240  0.00  0.00    +0.000 OA
BRANCH  21  22
ATOM     22  C   UNL     1       0.005   9.247  21.598  0.00  0.00    +0.000 A 
ATOM     23  C   UNL     1      -0.125  10.181  20.574  0.00  0.00    +0.000 A 
ATOM     24  C   UNL     1      -0.742  11.417  20.806  0.00  0.00    +0.000 A 
ATOM     25  C   UNL     1      -1.282  11.740  22.069  0.00  0.00    +0.000 A 
ATOM     26  C   UNL     1      -1.120  10.791  23.086  0.00  0.00    +0.000 A 
ATOM     27  C   UNL     1      -0.493   9.554  22.858  0.00  0.00    +0.000 A 
BRANCH  25  28
ATOM     28  C   UNL     1      -1.985  13.108  22.321  0.00  0.00    +0.000 C 
ATOM     29  C   UNL     1      -1.379  13.799  23.579  0.00  0.00    +0.000 C 
ATOM     30  C   UNL     1      -1.690  14.070  21.136  0.00  0.00    +0.000 C 
BRANCH  28  31
ATOM     31  C   UNL     1      -3.518  12.996  22.523  0.00  0.00    +0.000 A 
ATOM     32  C   UNL     1      -4.415  12.800  21.458  0.00  0.00    +0.000 A 
ATOM     33  C   UNL     1      -5.789  12.651  21.683  0.00  0.00    +0.000 A 
ATOM     34  C   UNL     1      -6.303  12.692  22.975  0.00  0.00    +0.000 A 
ATOM     35  C   UNL     1      -5.442  12.898  24.046  0.00  0.00    +0.000 A 
ATOM     36  C   UNL     1      -4.071  13.053  23.822  0.00  0.00    +0.000 A 
ENDBRANCH  28  31
ENDBRANCH  25  28
ENDBRANCH  21  22
ENDBRANCH  20  21
ENDBRANCH   4  20
TORSDOF 8
ENDMDL
MODEL 3
REMARK VINA RESULT:      -8.5      7.090     10.849
REMARK  Name = 
REMARK  13 active torsions:
REMARK  status: ('A' for Active; 'I' for Inactive)
REMARK    1  A    between atoms: C_1  and  C_2
REMARK    2  A    between atoms: N_4  and  C_5
REMARK    3  A    between atoms: C_6  and  C_7
REMARK    4  A    between atoms: C_8  and  N_9
REMARK    5  A    between atoms: N_9  and  S_10
REMARK    6  A    between atoms: S_10  and  C_13
REMARK    7  A    between atoms: C_16  and  C_17
REMARK    8  A    between atoms: C_17  and  O_18
REMARK    9  A    between atoms: O_18  and  C_19
REMARK   10  A    between atoms: C_22  and  C_23
REMARK   11  A    between atoms: C_23  and  C_24
REMARK   12  A    between atoms: C_23  and  C_25
REMARK   13  A    between atoms: C_23  and  C_26
REMARK                            x       y       z     vdW  Elec       q    Type
REMARK                         _______ _______ _______ _____ _____    ______ ____
ROOT
ATOM      1  C   UNL     1       5.386   4.881  17.978  0.00  0.00    +0.000 A 
ATOM      2  C   UNL     1       5.323   5.627  16.799  0.00  0.00    +0.000 A 
ATOM      3  C   UNL     1       6.203   6.695  16.612  0.00  0.00    +0.000 A 
ATOM      4  C   UNL     1       7.147   7.020  17.599  0.00  0.00    +0.000 A 
ATOM      5  C   UNL     1       7.194   6.263  18.779  0.00  0.00    +0.000 A 
ATOM      6  C   UNL     1       6.317   5.195  18.972  0.00  0.00    +0.000 A 
ENDROOT
BRANCH   1   7
ATOM      7  S   UNL     1       4.228   3.568  18.258  0.00  0.00    +0.000 S 
ATOM      8  O   UNL     1       4.369   3.147  19.642  0.00  0.00    +0.000 OA
ATOM      9  O   UNL     1       4.336   2.613  17.177  0.00  0.00    +0.000 OA
BRANCH   7  10
ATOM     10  N   UNL     1       2.756   4.378  18.173  0.00  0.00    +0.000 N 
ATOM     11  H   UNL     1       2.371   4.422  17.230  0.00  0.00    +0.000 HD
BRANCH  10  19
ATOM     12  C   UNL     1       1.385   3.585  20.900  0.00  0.00    +0.000 C 
ATOM     13  C   UNL     1       1.692   4.932  20.360  0.00  0.00    +0.000 A 
ATOM     14  N   UNL     1       1.353   6.017  21.062  0.00  0.00    +0.000 NA
ATOM     15  N   UNL     1       1.753   7.044  20.299  0.00  0.00    +0.000 N 
ATOM     16  C   UNL     1       1.521   8.387  20.779  0.00  0.00    +0.000 C 
ATOM     17  C   UNL     1       2.348   6.659  19.122  0.00  0.00    +0.000 A 
ATOM     18  C   UNL     1       2.885   7.618  18.122  0.00  0.00    +0.000 C 
ATOM     19  C   UNL     1       2.326   5.279  19.141  0.00  0.00    +0.000 A 
ENDBRANCH  10  19
ENDBRANCH   7  10
ENDBRANCH   1   7
BRANCH   4  20
ATOM     20  C   UNL     1       8.057   8.214  17.430  0.00  0.00    +0.000 C 
BRANCH  20  21
ATOM     21  O   UNL     1       8.533   8.580  18.724  0.00  0.00    +0.000 OA
BRANCH  21  22
ATOM     22  C   UNL     1       8.971   9.869  18.861  0.00  0.00    +0.000 A 
ATOM     23  C   UNL     1       8.625  10.725  17.819  0.00  0.00    +0.000 A 
ATOM     24  C   UNL     1       8.993  12.076  17.851  0.00  0.00    +0.000 A 
ATOM     25  C   UNL     1       9.692  12.619  18.951  0.00  0.00    +0.000 A 
ATOM     26  C   UNL     1      10.044  11.732  19.974  0.00  0.00    +0.000 A 
ATOM     27  C   UNL     1       9.684  10.374  19.940  0.00  0.00    +0.000 A 
BRANCH  25  28
ATOM     28  C   UNL     1      10.085  14.127  18.994  0.00  0.00    +0.000 C 
ATOM     29  C   UNL     1      11.098  14.384  20.149  0.00  0.00    +0.000 C 
ATOM     30  C   UNL     1      10.841  14.504  17.688  0.00  0.00    +0.000 C 
BRANCH  28  31
ATOM     31  C   UNL     1       8.880  15.083  19.184  0.00  0.00    +0.000 A 
ATOM     32  C   UNL     1       8.611  16.155  18.316  0.00  0.00    +0.000 A 
ATOM     33  C   UNL     1       7.483  16.966  18.488  0.00  0.00    +0.000 A 
ATOM     34  C   UNL     1       6.594  16.727  19.530  0.00  0.00    +0.000 A 
ATOM     35  C   UNL     1       6.840  15.683  20.413  0.00  0.00    +0.000 A 
ATOM     36  C   UNL     1       7.970  14.877  20.245  0.00  0.00    +0.000 A 
ENDBRANCH  28  31
ENDBRANCH  25  28
ENDBRANCH  21  22
ENDBRANCH  20  21
ENDBRANCH   4  20
TORSDOF 8
ENDMDL
MODEL 4
REMARK VINA RESULT:      -8.3      5.592     11.831
REMARK  Name = 
REMARK  13 active torsions:
REMARK  status: ('A' for Active; 'I' for Inactive)
REMARK    1  A    between atoms: C_1  and  C_2
REMARK    2  A    between atoms: N_4  and  C_5
REMARK    3  A    between atoms: C_6  and  C_7
REMARK    4  A    between atoms: C_8  and  N_9
REMARK    5  A    between atoms: N_9  and  S_10
REMARK    6  A    between atoms: S_10  and  C_13
REMARK    7  A    between atoms: C_16  and  C_17
REMARK    8  A    between atoms: C_17  and  O_18
REMARK    9  A    between atoms: O_18  and  C_19
REMARK   10  A    between atoms: C_22  and  C_23
REMARK   11  A    between atoms: C_23  and  C_24
REMARK   12  A    between atoms: C_23  and  C_25
REMARK   13  A    between atoms: C_23  and  C_26
REMARK                            x       y       z     vdW  Elec       q    Type
REMARK                         _______ _______ _______ _____ _____    ______ ____
ROOT
ATOM      1  C   UNL     1       2.757   4.564  18.587  0.00  0.00    +0.000 A 
ATOM      2  C   UNL     1       2.617   5.838  18.031  0.00  0.00    +0.000 A 
ATOM      3  C   UNL     1       2.267   6.912  18.853  0.00  0.00    +0.000 A 
ATOM      4  C   UNL     1       2.058   6.718  20.227  0.00  0.00    +0.000 A 
ATOM      5  C   UNL     1       2.199   5.431  20.768  0.00  0.00    +0.000 A 
ATOM      6  C   UNL     1       2.547   4.353  19.952  0.00  0.00    +0.000 A 
ENDROOT
BRANCH   1   7
ATOM      7  S   UNL     1       3.131   3.180  17.542  0.00  0.00    +0.000 S 
ATOM      8  O   UNL     1       2.674   3.509  16.202  0.00  0.00    +0.000 OA
ATOM      9  O   UNL     1       2.693   1.968  18.199  0.00  0.00    +0.000 OA
BRANCH   7  10
ATOM     10  N   UNL     1       4.811   3.235  17.481  0.00  0.00    +0.000 N 
ATOM     11  H   UNL     1       5.261   2.495  18.020  0.00  0.00    +0.000 HD
BRANCH  10  19
ATOM     12  C   UNL     1       5.475   4.152  14.538  0.00  0.00    +0.000 C 
ATOM     13  C   UNL     1       5.843   4.789  15.825  0.00  0.00    +0.000 A 
ATOM     14  N   UNL     1       6.578   5.906  15.823  0.00  0.00    +0.000 NA
ATOM     15  N   UNL     1       6.736   6.201  17.122  0.00  0.00    +0.000 N 
ATOM     16  C   UNL     1       7.506   7.373  17.470  0.00  0.00    +0.000 C 
ATOM     17  C   UNL     1       6.121   5.311  17.970  0.00  0.00    +0.000 A 
ATOM     18  C   UNL     1       6.146   5.439  19.449  0.00  0.00    +0.000 C 
ATOM     19  C   UNL     1       5.524   4.380  17.144  0.00  0.00    +0.000 A 
ENDBRANCH  10  19
ENDBRANCH   7  10
ENDBRANCH   1   7
BRANCH   4  20
ATOM     20  C   UNL     1       1.617   7.863  21.107  0.00  0.00    +0.000 C 
BRANCH  20  21
ATOM     21  O   UNL     1       0.981   8.830  20.272  0.00  0.00    +0.000 OA
BRANCH  21  22
ATOM     22  C   UNL     1       0.219   9.769  20.911  0.00  0.00    +0.000 A 
ATOM     23  C   UNL     1      -0.432  10.671  20.075  0.00  0.00    +0.000 A 
ATOM     24  C   UNL     1      -1.262  11.668  20.605  0.00  0.00    +0.000 A 
ATOM     25  C   UNL     1      -1.493  11.766  21.994  0.00  0.00    +0.000 A 
ATOM     26  C   UNL     1      -0.810  10.859  22.813  0.00  0.00    +0.000 A 
ATOM     27  C   UNL     1       0.031   9.864  22.284  0.00  0.00    +0.000 A 
BRANCH  25  28
ATOM     28  C   UNL     1      -2.431  12.863  22.582  0.00  0.00    +0.000 C 
ATOM     29  C   UNL     1      -3.436  13.347  21.495  0.00  0.00    +0.000 C 
ATOM     30  C   UNL     1      -3.307  12.248  23.711  0.00  0.00    +0.000 C 
BRANCH  28  31
ATOM     31  C   UNL     1      -1.679  14.101  23.132  0.00  0.00    +0.000 A 
ATOM     32  C   UNL     1      -1.974  14.682  24.377  0.00  0.00    +0.000 A 
ATOM     33  C   UNL     1      -1.237  15.768  24.867  0.00  0.00    +0.000 A 
ATOM     34  C   UNL     1      -0.188  16.301  24.125  0.00  0.00    +0.000 A 
ATOM     35  C   UNL     1       0.118  15.758  22.885  0.00  0.00    +0.000 A 
ATOM     36  C   UNL     1      -0.621  14.677  22.393  0.00  0.00    +0.000 A 
ENDBRANCH  28  31
ENDBRANCH  25  28
ENDBRANCH  21  22
ENDBRANCH  20  21
ENDBRANCH   4  20
TORSDOF 8
ENDMDL
MODEL 5
REMARK VINA RESULT:      -8.2      2.826      3.733
REMARK  Name = 
REMARK  13 active torsions:
REMARK  status: ('A' for Active; 'I' for Inactive)
REMARK    1  A    between atoms: C_1  and  C_2
REMARK    2  A    between atoms: N_4  and  C_5
REMARK    3  A    between atoms: C_6  and  C_7
REMARK    4  A    between atoms: C_8  and  N_9
REMARK    5  A    between atoms: N_9  and  S_10
REMARK    6  A    between atoms: S_10  and  C_13
REMARK    7  A    between atoms: C_16  and  C_17
REMARK    8  A    between atoms: C_17  and  O_18
REMARK    9  A    between atoms: O_18  and  C_19
REMARK   10  A    between atoms: C_22  and  C_23
REMARK   11  A    between atoms: C_23  and  C_24
REMARK   12  A    between atoms: C_23  and  C_25
REMARK   13  A    between atoms: C_23  and  C_26
REMARK                            x       y       z     vdW  Elec       q    Type
REMARK                         _______ _______ _______ _____ _____    ______ ____
ROOT
ATOM      1  C   UNL     1      -2.280  12.902  23.339  0.00  0.00    +0.000 A 
ATOM      2  C   UNL     1      -1.356  13.739  22.707  0.00  0.00    +0.000 A 
ATOM      3  C   UNL     1      -0.294  13.177  21.994  0.00  0.00    +0.000 A 
ATOM      4  C   UNL     1      -0.152  11.783  21.911  0.00  0.00    +0.000 A 
ATOM      5  C   UNL     1      -1.087  10.958  22.555  0.00  0.00    +0.000 A 
ATOM      6  C   UNL     1      -2.149  11.512  23.269  0.00  0.00    +0.000 A 
ENDROOT
BRANCH   1   7
ATOM      7  S   UNL     1      -3.591  13.603  24.305  0.00  0.00    +0.000 S 
ATOM      8  O   UNL     1      -3.080  14.817  24.921  0.00  0.00    +0.000 OA
ATOM      9  O   UNL     1      -4.189  12.559  25.108  0.00  0.00    +0.000 OA
BRANCH   7  10
ATOM     10  N   UNL     1      -4.667  14.109  23.116  0.00  0.00    +0.000 N 
ATOM     11  H   UNL     1      -5.024  15.053  23.266  0.00  0.00    +0.000 HD
BRANCH  10  19
ATOM     12  C   UNL     1      -3.848  13.378  20.160  0.00  0.00    +0.000 C 
ATOM     13  C   UNL     1      -5.009  12.910  20.956  0.00  0.00    +0.000 A 
ATOM     14  N   UNL     1      -5.892  12.071  20.404  0.00  0.00    +0.000 NA
ATOM     15  N   UNL     1      -6.800  11.866  21.369  0.00  0.00    +0.000 N 
ATOM     16  C   UNL     1      -7.916  10.992  21.086  0.00  0.00    +0.000 C 
ATOM     17  C   UNL     1      -6.532  12.542  22.535  0.00  0.00    +0.000 A 
ATOM     18  C   UNL     1      -7.387  12.458  23.746  0.00  0.00    +0.000 C 
ATOM     19  C   UNL     1      -5.360  13.230  22.291  0.00  0.00    +0.000 A 
ENDBRANCH  10  19
ENDBRANCH   7  10
ENDBRANCH   1   7
BRANCH   4  20
ATOM     20  C   UNL     1       1.030  11.173  21.196  0.00  0.00    +0.000 C 
BRANCH  20  21
ATOM     21  O   UNL     1       0.526  10.423  20.091  0.00  0.00    +0.000 OA
BRANCH  21  22
ATOM     22  C   UNL     1       1.107   9.202  19.878  0.00  0.00    +0.000 A 
ATOM     23  C   UNL     1       1.643   9.016  18.607  0.00  0.00    +0.000 A 
ATOM     24  C   UNL     1       2.285   7.818  18.270  0.00  0.00    +0.000 A 
ATOM     25  C   UNL     1       2.442   6.780  19.214  0.00  0.00    +0.000 A 
ATOM     26  C   UNL     1       1.876   6.987  20.478  0.00  0.00    +0.000 A 
ATOM     27  C   UNL     1       1.223   8.184  20.816  0.00  0.00    +0.000 A 
BRANCH  25  28
ATOM     28  C   UNL     1       3.174   5.455  18.844  0.00  0.00    +0.000 C 
ATOM     29  C   UNL     1       3.210   4.500  20.075  0.00  0.00    +0.000 C 
ATOM     30  C   UNL     1       2.359   4.698  17.756  0.00  0.00    +0.000 C 
BRANCH  28  31
ATOM     31  C   UNL     1       4.627   5.660  18.347  0.00  0.00    +0.000 A 
ATOM     32  C   UNL     1       5.697   4.847  18.760  0.00  0.00    +0.000 A 
ATOM     33  C   UNL     1       6.988   5.028  18.249  0.00  0.00    +0.000 A 
ATOM     34  C   UNL     1       7.244   6.025  17.313  0.00  0.00    +0.000 A 
ATOM     35  C   UNL     1       6.210   6.853  16.897  0.00  0.00    +0.000 A 
ATOM     36  C   UNL     1       4.922   6.676  17.411  0.00  0.00    +0.000 A 
ENDBRANCH  28  31
ENDBRANCH  25  28
ENDBRANCH  21  22
ENDBRANCH  20  21
ENDBRANCH   4  20
TORSDOF 8
ENDMDL
MODEL 6
REMARK VINA RESULT:      -8.2      2.846      3.503
REMARK  Name = 
REMARK  13 active torsions:
REMARK  status: ('A' for Active; 'I' for Inactive)
REMARK    1  A    between atoms: C_1  and  C_2
REMARK    2  A    between atoms: N_4  and  C_5
REMARK    3  A    between atoms: C_6  and  C_7
REMARK    4  A    between atoms: C_8  and  N_9
REMARK    5  A    between atoms: N_9  and  S_10
REMARK    6  A    between atoms: S_10  and  C_13
REMARK    7  A    between atoms: C_16  and  C_17
REMARK    8  A    between atoms: C_17  and  O_18
REMARK    9  A    between atoms: O_18  and  C_19
REMARK   10  A    between atoms: C_22  and  C_23
REMARK   11  A    between atoms: C_23  and  C_24
REMARK   12  A    between atoms: C_23  and  C_25
REMARK   13  A    between atoms: C_23  and  C_26
REMARK                            x       y       z     vdW  Elec       q    Type
REMARK                         _______ _______ _______ _____ _____    ______ ____
ROOT
ATOM      1  C   UNL     1      -1.652  12.381  21.567  0.00  0.00    +0.000 A 
ATOM      2  C   UNL     1      -1.141  11.942  20.342  0.00  0.00    +0.000 A 
ATOM      3  C   UNL     1      -0.323  10.810  20.305  0.00  0.00    +0.000 A 
ATOM      4  C   UNL     1      -0.016  10.115  21.484  0.00  0.00    +0.000 A 
ATOM      5  C   UNL     1      -0.535  10.571  22.705  0.00  0.00    +0.000 A 
ATOM      6  C   UNL     1      -1.352  11.702  22.750  0.00  0.00    +0.000 A 
ENDROOT
BRANCH   1   7
ATOM      7  S   UNL     1      -2.633  13.857  21.637  0.00  0.00    +0.000 S 
ATOM      8  O   UNL     1      -3.760  13.676  20.737  0.00  0.00    +0.000 OA
ATOM      9  O   UNL     1      -1.760  15.003  21.513  0.00  0.00    +0.000 OA
BRANCH   7  10
ATOM     10  N   UNL     1      -3.270  13.777  23.192  0.00  0.00    +0.000 N 
ATOM     11  H   UNL     1      -3.355  12.825  23.548  0.00  0.00    +0.000 HD
BRANCH  10  19
ATOM     12  C   UNL     1      -6.413  13.997  23.056  0.00  0.00    +0.000 C 
ATOM     13  C   UNL     1      -5.434  14.915  23.687  0.00  0.00    +0.000 A 
ATOM     14  N   UNL     1      -5.866  16.028  24.288  0.00  0.00    +0.000 NA
ATOM     15  N   UNL     1      -4.747  16.621  24.729  0.00  0.00    +0.000 N 
ATOM     16  C   UNL     1      -4.868  17.878  25.432  0.00  0.00    +0.000 C 
ATOM     17  C   UNL     1      -3.599  15.924  24.437  0.00  0.00    +0.000 A 
ATOM     18  C   UNL     1      -2.242  16.376  24.837  0.00  0.00    +0.000 C 
ATOM     19  C   UNL     1      -4.024  14.799  23.760  0.00  0.00    +0.000 A 
ENDBRANCH  10  19
ENDBRANCH   7  10
ENDBRANCH   1   7
BRANCH   4  20
ATOM     20  C   UNL     1       0.920   8.929  21.456  0.00  0.00    +0.000 C 
BRANCH  20  21
ATOM     21  O   UNL     1       1.421   8.806  20.126  0.00  0.00    +0.000 OA
BRANCH  21  22
ATOM     22  C   UNL     1       1.919   7.579  19.782  0.00  0.00    +0.000 A 
ATOM     23  C   UNL     1       2.671   7.553  18.612  0.00  0.00    +0.000 A 
ATOM     24  C   UNL     1       3.255   6.361  18.163  0.00  0.00    +0.000 A 
ATOM     25  C   UNL     1       3.131   5.163  18.898  0.00  0.00    +0.000 A 
ATOM     26  C   UNL     1       2.353   5.214  20.060  0.00  0.00    +0.000 A 
ATOM     27  C   UNL     1       1.758   6.406  20.508  0.00  0.00    +0.000 A 
BRANCH  25  28
ATOM     28  C   UNL     1       3.797   3.842  18.408  0.00  0.00    +0.000 C 
ATOM     29  C   UNL     1       4.358   3.041  19.621  0.00  0.00    +0.000 C 
ATOM     30  C   UNL     1       2.718   2.922  17.768  0.00  0.00    +0.000 C 
BRANCH  28  31
ATOM     31  C   UNL     1       4.951   4.060  17.396  0.00  0.00    +0.000 A 
ATOM     32  C   UNL     1       4.762   4.023  16.004  0.00  0.00    +0.000 A 
ATOM     33  C   UNL     1       5.817   4.278  15.119  0.00  0.00    +0.000 A 
ATOM     34  C   UNL     1       7.087   4.576  15.602  0.00  0.00    +0.000 A 
ATOM     35  C   UNL     1       7.308   4.606  16.973  0.00  0.00    +0.000 A 
ATOM     36  C   UNL     1       6.256   4.346  17.856  0.00  0.00    +0.000 A 
ENDBRANCH  28  31
ENDBRANCH  25  28
ENDBRANCH  21  22
ENDBRANCH  20  21
ENDBRANCH   4  20
TORSDOF 8
ENDMDL
MODEL 7
REMARK VINA RESULT:      -8.1      5.486     11.874
REMARK  Name = 
REMARK  13 active torsions:
REMARK  status: ('A' for Active; 'I' for Inactive)
REMARK    1  A    between atoms: C_1  and  C_2
REMARK    2  A    between atoms: N_4  and  C_5
REMARK    3  A    between atoms: C_6  and  C_7
REMARK    4  A    between atoms: C_8  and  N_9
REMARK    5  A    between atoms: N_9  and  S_10
REMARK    6  A    between atoms: S_10  and  C_13
REMARK    7  A    between atoms: C_16  and  C_17
REMARK    8  A    between atoms: C_17  and  O_18
REMARK    9  A    between atoms: O_18  and  C_19
REMARK   10  A    between atoms: C_22  and  C_23
REMARK   11  A    between atoms: C_23  and  C_24
REMARK   12  A    between atoms: C_23  and  C_25
REMARK   13  A    between atoms: C_23  and  C_26
REMARK                            x       y       z     vdW  Elec       q    Type
REMARK                         _______ _______ _______ _____ _____    ______ ____
ROOT
ATOM      1  C   UNL     1       2.816   4.608  18.540  0.00  0.00    +0.000 A 
ATOM      2  C   UNL     1       2.741   5.805  17.824  0.00  0.00    +0.000 A 
ATOM      3  C   UNL     1       2.379   6.980  18.487  0.00  0.00    +0.000 A 
ATOM      4  C   UNL     1       2.092   6.963  19.860  0.00  0.00    +0.000 A 
ATOM      5  C   UNL     1       2.169   5.751  20.563  0.00  0.00    +0.000 A 
ATOM      6  C   UNL     1       2.530   4.573  19.907  0.00  0.00    +0.000 A 
ENDROOT
BRANCH   1   7
ATOM      7  S   UNL     1       3.206   3.097  17.696  0.00  0.00    +0.000 S 
ATOM      8  O   UNL     1       2.691   3.208  16.341  0.00  0.00    +0.000 OA
ATOM      9  O   UNL     1       2.838   1.982  18.541  0.00  0.00    +0.000 OA
BRANCH   7  10
ATOM     10  N   UNL     1       4.880   3.196  17.561  0.00  0.00    +0.000 N 
ATOM     11  H   UNL     1       5.372   2.464  18.073  0.00  0.00    +0.000 HD
BRANCH  10  19
ATOM     12  C   UNL     1       5.324   4.192  14.602  0.00  0.00    +0.000 C 
ATOM     13  C   UNL     1       5.767   4.807  15.877  0.00  0.00    +0.000 A 
ATOM     14  N   UNL     1       6.480   5.938  15.851  0.00  0.00    +0.000 NA
ATOM     15  N   UNL     1       6.722   6.206  17.142  0.00  0.00    +0.000 N 
ATOM     16  C   UNL     1       7.493   7.385  17.465  0.00  0.00    +0.000 C 
ATOM     17  C   UNL     1       6.183   5.286  18.009  0.00  0.00    +0.000 A 
ATOM     18  C   UNL     1       6.306   5.381  19.486  0.00  0.00    +0.000 C 
ATOM     19  C   UNL     1       5.547   4.362  17.204  0.00  0.00    +0.000 A 
ENDBRANCH  10  19
ENDBRANCH   7  10
ENDBRANCH   1   7
BRANCH   4  20
ATOM     20  C   UNL     1       1.638   8.219  20.567  0.00  0.00    +0.000 C 
BRANCH  20  21
ATOM     21  O   UNL     1       1.121   9.108  19.578  0.00  0.00    +0.000 OA
BRANCH  21  22
ATOM     22  C   UNL     1       0.379  10.159  20.043  0.00  0.00    +0.000 A 
ATOM     23  C   UNL     1       0.992  10.925  21.029  0.00  0.00    +0.000 A 
ATOM     24  C   UNL     1       0.346  12.044  21.572  0.00  0.00    +0.000 A 
ATOM     25  C   UNL     1      -0.926  12.449  21.112  0.00  0.00    +0.000 A 
ATOM     26  C   UNL     1      -1.527  11.649  20.133  0.00  0.00    +0.000 A 
ATOM     27  C   UNL     1      -0.885  10.521  19.594  0.00  0.00    +0.000 A 
BRANCH  25  28
ATOM     28  C   UNL     1      -1.636  13.705  21.702  0.00  0.00    +0.000 C 
ATOM     29  C   UNL     1      -0.685  14.443  22.691  0.00  0.00    +0.000 C 
ATOM     30  C   UNL     1      -1.921  14.725  20.562  0.00  0.00    +0.000 C 
BRANCH  28  31
ATOM     31  C   UNL     1      -2.957  13.385  22.447  0.00  0.00    +0.000 A 
ATOM     32  C   UNL     1      -3.014  12.545  23.573  0.00  0.00    +0.000 A 
ATOM     33  C   UNL     1      -4.217  12.320  24.253  0.00  0.00    +0.000 A 
ATOM     34  C   UNL     1      -5.393  12.929  23.828  0.00  0.00    +0.000 A 
ATOM     35  C   UNL     1      -5.370  13.753  22.710  0.00  0.00    +0.000 A 
ATOM     36  C   UNL     1      -4.171  13.973  22.027  0.00  0.00    +0.000 A 
ENDBRANCH  28  31
ENDBRANCH  25  28
ENDBRANCH  21  22
ENDBRANCH  20  21
ENDBRANCH   4  20
TORSDOF 8
ENDMDL
MODEL 8
REMARK VINA RESULT:      -8.1      1.923      2.606
REMARK  Name = 
REMARK  13 active torsions:
REMARK  status: ('A' for Active; 'I' for Inactive)
REMARK    1  A    between atoms: C_1  and  C_2
REMARK    2  A    between atoms: N_4  and  C_5
REMARK    3  A    between atoms: C_6  and  C_7
REMARK    4  A    between atoms: C_8  and  N_9
REMARK    5  A    between atoms: N_9  and  S_10
REMARK    6  A    between atoms: S_10  and  C_13
REMARK    7  A    between atoms: C_16  and  C_17
REMARK    8  A    between atoms: C_17  and  O_18
REMARK    9  A    between atoms: O_18  and  C_19
REMARK   10  A    between atoms: C_22  and  C_23
REMARK   11  A    between atoms: C_23  and  C_24
REMARK   12  A    between atoms: C_23  and  C_25
REMARK   13  A    between atoms: C_23  and  C_26
REMARK                            x       y       z     vdW  Elec       q    Type
REMARK                         _______ _______ _______ _____ _____    ______ ____
ROOT
ATOM      1  C   UNL     1      -2.811  12.311  20.027  0.00  0.00    +0.000 A 
ATOM      2  C   UNL     1      -1.761  12.488  20.933  0.00  0.00    +0.000 A 
ATOM      3  C   UNL     1      -0.513  11.925  20.657  0.00  0.00    +0.000 A 
ATOM      4  C   UNL     1      -0.310  11.187  19.481  0.00  0.00    +0.000 A 
ATOM      5  C   UNL     1      -1.376  11.016  18.584  0.00  0.00    +0.000 A 
ATOM      6  C   UNL     1      -2.626  11.575  18.854  0.00  0.00    +0.000 A 
ENDROOT
BRANCH   1   7
ATOM      7  S   UNL     1      -4.419  12.961  20.400  0.00  0.00    +0.000 S 
ATOM      8  O   UNL     1      -5.400  12.006  19.910  0.00  0.00    +0.000 OA
ATOM      9  O   UNL     1      -4.467  14.348  19.994  0.00  0.00    +0.000 OA
BRANCH   7  10
ATOM     10  N   UNL     1      -4.462  12.843  22.077  0.00  0.00    +0.000 N 
ATOM     11  H   UNL     1      -4.543  11.884  22.415  0.00  0.00    +0.000 HD
BRANCH  10  19
ATOM     12  C   UNL     1      -7.415  13.625  22.857  0.00  0.00    +0.000 C 
ATOM     13  C   UNL     1      -6.139  14.272  23.246  0.00  0.00    +0.000 A 
ATOM     14  N   UNL     1      -6.160  15.361  24.022  0.00  0.00    +0.000 NA
ATOM     15  N   UNL     1      -4.868  15.689  24.167  0.00  0.00    +0.000 N 
ATOM     16  C   UNL     1      -4.541  16.851  24.961  0.00  0.00    +0.000 C 
ATOM     17  C   UNL     1      -4.006  14.844  23.512  0.00  0.00    +0.000 A 
ATOM     18  C   UNL     1      -2.529  14.998  23.539  0.00  0.00    +0.000 C 
ATOM     19  C   UNL     1      -4.814  13.903  22.906  0.00  0.00    +0.000 A 
ENDBRANCH  10  19
ENDBRANCH   7  10
ENDBRANCH   1   7
BRANCH   4  20
ATOM     20  C   UNL     1       1.019  10.522  19.210  0.00  0.00    +0.000 C 
BRANCH  20  21
ATOM     21  O   UNL     1       1.179   9.472  20.163  0.00  0.00    +0.000 OA
BRANCH  21  22
ATOM     22  C   UNL     1       1.715   8.306  19.690  0.00  0.00    +0.000 A 
ATOM     23  C   UNL     1       1.626   7.220  20.555  0.00  0.00    +0.000 A 
ATOM     24  C   UNL     1       2.117   5.963  20.179  0.00  0.00    +0.000 A 
ATOM     25  C   UNL     1       2.681   5.749  18.903  0.00  0.00    +0.000 A 
ATOM     26  C   UNL     1       2.775   6.863  18.061  0.00  0.00    +0.000 A 
ATOM     27  C   UNL     1       2.292   8.127  18.439  0.00  0.00    +0.000 A 
BRANCH  25  28
ATOM     28  C   UNL     1       3.209   4.346  18.478  0.00  0.00    +0.000 C 
ATOM     29  C   UNL     1       3.308   3.411  19.721  0.00  0.00    +0.000 C 
ATOM     30  C   UNL     1       2.178   3.667  17.531  0.00  0.00    +0.000 C 
BRANCH  28  31
ATOM     31  C   UNL     1       4.596   4.382  17.787  0.00  0.00    +0.000 A 
ATOM     32  C   UNL     1       4.765   4.191  16.405  0.00  0.00    +0.000 A 
ATOM     33  C   UNL     1       6.028   4.283  15.807  0.00  0.00    +0.000 A 
ATOM     34  C   UNL     1       7.154   4.568  16.573  0.00  0.00    +0.000 A 
ATOM     35  C   UNL     1       7.019   4.748  17.944  0.00  0.00    +0.000 A 
ATOM     36  C   UNL     1       5.760   4.650  18.542  0.00  0.00    +0.000 A 
ENDBRANCH  28  31
ENDBRANCH  25  28
ENDBRANCH  21  22
ENDBRANCH  20  21
ENDBRANCH   4  20
TORSDOF 8
ENDMDL
MODEL 9
REMARK VINA RESULT:      -8.1      4.582     11.861
REMARK  Name = 
REMARK  13 active torsions:
REMARK  status: ('A' for Active; 'I' for Inactive)
REMARK    1  A    between atoms: C_1  and  C_2
REMARK    2  A    between atoms: N_4  and  C_5
REMARK    3  A    between atoms: C_6  and  C_7
REMARK    4  A    between atoms: C_8  and  N_9
REMARK    5  A    between atoms: N_9  and  S_10
REMARK    6  A    between atoms: S_10  and  C_13
REMARK    7  A    between atoms: C_16  and  C_17
REMARK    8  A    between atoms: C_17  and  O_18
REMARK    9  A    between atoms: O_18  and  C_19
REMARK   10  A    between atoms: C_22  and  C_23
REMARK   11  A    between atoms: C_23  and  C_24
REMARK   12  A    between atoms: C_23  and  C_25
REMARK   13  A    between atoms: C_23  and  C_26
REMARK                            x       y       z     vdW  Elec       q    Type
REMARK                         _______ _______ _______ _____ _____    ______ ____
ROOT
ATOM      1  C   UNL     1       1.779   7.251  19.873  0.00  0.00    +0.000 A 
ATOM      2  C   UNL     1       1.254   7.857  21.018  0.00  0.00    +0.000 A 
ATOM      3  C   UNL     1       0.877   9.201  20.972  0.00  0.00    +0.000 A 
ATOM      4  C   UNL     1       1.021   9.941  19.789  0.00  0.00    +0.000 A 
ATOM      5  C   UNL     1       1.554   9.318  18.650  0.00  0.00    +0.000 A 
ATOM      6  C   UNL     1       1.933   7.975  18.688  0.00  0.00    +0.000 A 
ENDROOT
BRANCH   1   7
ATOM      7  S   UNL     1       2.327   5.565  19.938  0.00  0.00    +0.000 S 
ATOM      8  O   UNL     1       1.590   4.827  18.925  0.00  0.00    +0.000 OA
ATOM      9  O   UNL     1       2.334   5.129  21.316  0.00  0.00    +0.000 OA
BRANCH   7  10
ATOM     10  N   UNL     1       3.902   5.689  19.360  0.00  0.00    +0.000 N 
ATOM     11  H   UNL     1       4.402   6.505  19.714  0.00  0.00    +0.000 HD
BRANCH  10  19
ATOM     12  C   UNL     1       4.256   2.574  19.023  0.00  0.00    +0.000 C 
ATOM     13  C   UNL     1       4.520   3.660  18.048  0.00  0.00    +0.000 A 
ATOM     14  N   UNL     1       4.996   3.357  16.836  0.00  0.00    +0.000 NA
ATOM     15  N   UNL     1       5.129   4.545  16.227  0.00  0.00    +0.000 N 
ATOM     16  C   UNL     1       5.640   4.568  14.875  0.00  0.00    +0.000 C 
ATOM     17  C   UNL     1       4.749   5.611  17.005  0.00  0.00    +0.000 A 
ATOM     18  C   UNL     1       4.794   7.021  16.541  0.00  0.00    +0.000 C 
ATOM     19  C   UNL     1       4.340   5.057  18.201  0.00  0.00    +0.000 A 
ENDBRANCH  10  19
ENDBRANCH   7  10
ENDBRANCH   1   7
BRANCH   4  20
ATOM     20  C   UNL     1       0.675  11.411  19.754  0.00  0.00    +0.000 C 
BRANCH  20  21
ATOM     21  O   UNL     1       0.019  11.670  18.514  0.00  0.00    +0.000 OA
BRANCH  21  22
ATOM     22  C   UNL     1      -1.348  11.705  18.552  0.00  0.00    +0.000 A 
ATOM     23  C   UNL     1      -1.893  12.282  19.696  0.00  0.00    +0.000 A 
ATOM     24  C   UNL     1      -3.281  12.399  19.846  0.00  0.00    +0.000 A 
ATOM     25  C   UNL     1      -4.166  11.972  18.832  0.00  0.00    +0.000 A 
ATOM     26  C   UNL     1      -3.591  11.378  17.702  0.00  0.00    +0.000 A 
ATOM     27  C   UNL     1      -2.199  11.252  17.553  0.00  0.00    +0.000 A 
BRANCH  25  28
ATOM     28  C   UNL     1      -5.709  12.120  18.993  0.00  0.00    +0.000 C 
ATOM     29  C   UNL     1      -6.433  10.881  18.385  0.00  0.00    +0.000 C 
ATOM     30  C   UNL     1      -6.077  12.115  20.504  0.00  0.00    +0.000 C 
BRANCH  28  31
ATOM     31  C   UNL     1      -6.288  13.395  18.327  0.00  0.00    +0.000 A 
ATOM     32  C   UNL     1      -6.696  13.435  16.982  0.00  0.00    +0.000 A 
ATOM     33  C   UNL     1      -7.264  14.589  16.429  0.00  0.00    +0.000 A 
ATOM     34  C   UNL     1      -7.440  15.731  17.204  0.00  0.00    +0.000 A 
ATOM     35  C   UNL     1      -7.034  15.725  18.531  0.00  0.00    +0.000 A 
ATOM     36  C   UNL     1      -6.461  14.576  19.083  0.00  0.00    +0.000 A 
ENDBRANCH  28  31
ENDBRANCH  25  28
ENDBRANCH  21  22
ENDBRANCH  20  21
ENDBRANCH   4  20
TORSDOF 8
ENDMDL
