MODEL 1
REMARK VINA RESULT:      -6.5      0.000      0.000
REMARK  Name = 
REMARK  11 active torsions:
REMARK  status: ('A' for Active; 'I' for Inactive)
REMARK    1  A    between atoms: C_1  and  C_2
REMARK    2  A    between atoms: C_2  and  C_3
REMARK    3  A    between atoms: C_3  and  C_4
REMARK    4  A    between atoms: C_3  and  N_7
REMARK    5  A    between atoms: C_4  and  C_5
REMARK    6  A    between atoms: C_8  and  C_10
REMARK    7  A    between atoms: C_10  and  C_11
REMARK    8  A    between atoms: C_11  and  C_12
REMARK    9  A    between atoms: C_11  and  C_13
REMARK   10  A    between atoms: C_14  and  C_15
REMARK   11  A    between atoms: C_18  and  C_19
REMARK                            x       y       z     vdW  Elec       q    Type
REMARK                         _______ _______ _______ _____ _____    ______ ____
ROOT
ATOM      1  C   UNL     1       3.159   2.462  18.203  0.00  0.00    +0.000 C 
ENDROOT
BRANCH   1   3
ATOM      2  N   UNL     1       4.524   3.998  16.892  0.00  0.00    +0.000 N 
ATOM      3  C   UNL     1       4.400   3.327  18.087  0.00  0.00    +0.000 C 
ATOM      4  O   UNL     1       5.253   3.402  18.966  0.00  0.00    +0.000 OA
ATOM      5  H   UNL     1       3.771   3.929  16.200  0.00  0.00    +0.000 HD
BRANCH   2   6
ATOM      6  C   UNL     1       5.630   4.934  16.641  0.00  0.00    +0.000 C 
BRANCH   6   8
ATOM      7  C   UNL     1       6.953   4.735  14.402  0.00  0.00    +0.000 C 
ATOM      8  C   UNL     1       5.708   5.231  15.128  0.00  0.00    +0.000 C 
ENDBRANCH   6   8
BRANCH   6   9
ATOM      9  C   UNL     1       5.510   6.177  17.553  0.00  0.00    +0.000 C 
BRANCH   9  10
ATOM     10  C   UNL     1       6.700   7.097  17.333  0.00  0.00    +0.000 C 
ATOM     11  N   UNL     1       7.686   7.862  17.150  0.00  0.00    +0.000 NA
ENDBRANCH   9  10
ENDBRANCH   6   9
ENDBRANCH   2   6
ENDBRANCH   1   3
BRANCH   1  12
ATOM     12  C   UNL     1       1.878   3.296  18.386  0.00  0.00    +0.000 C 
ATOM     13  C   UNL     1       0.657   2.416  18.695  0.00  0.00    +0.000 C 
BRANCH  12  14
ATOM     14  C   UNL     1       2.061   4.383  19.423  0.00  0.00    +0.000 A 
ATOM     15  C   UNL     1       2.173   5.790  19.186  0.00  0.00    +0.000 A 
ATOM     16  C   UNL     1       2.142   6.536  17.901  0.00  0.00    +0.000 C 
ATOM     17  N   UNL     1       2.317   6.482  20.322  0.00  0.00    +0.000 NA
ATOM     18  N   UNL     1       2.282   5.549  21.278  0.00  0.00    +0.000 N 
ATOM     19  C   UNL     1       2.151   4.275  20.809  0.00  0.00    +0.000 A 
ATOM     20  C   UNL     1       2.107   3.124  21.737  0.00  0.00    +0.000 C 
ATOM     21  H   UNL     1       2.349   5.859  22.243  0.00  0.00    +0.000 HD
ENDBRANCH  12  14
ENDBRANCH   1  12
TORSDOF 7
ENDMDL
MODEL 2
REMARK VINA RESULT:      -6.5      0.500      1.940
REMARK  Name = 
REMARK  11 active torsions:
REMARK  status: ('A' for Active; 'I' for Inactive)
REMARK    1  A    between atoms: C_1  and  C_2
REMARK    2  A    between atoms: C_2  and  C_3
REMARK    3  A    between atoms: C_3  and  C_4
REMARK    4  A    between atoms: C_3  and  N_7
REMARK    5  A    between atoms: C_4  and  C_5
REMARK    6  A    between atoms: C_8  and  C_10
REMARK    7  A    between atoms: C_10  and  C_11
REMARK    8  A    between atoms: C_11  and  C_12
REMARK    9  A    between atoms: C_11  and  C_13
REMARK   10  A    between atoms: C_14  and  C_15
REMARK   11  A    between atoms: C_18  and  C_19
REMARK                            x       y       z     vdW  Elec       q    Type
REMARK                         _______ _______ _______ _____ _____    ______ ____
ROOT
ATOM      1  C   UNL     1       3.313   2.276  18.318  0.00  0.00    +0.000 C 
ENDROOT
BRANCH   1   3
ATOM      2  N   UNL     1       4.901   3.642  17.071  0.00  0.00    +0.000 N 
ATOM      3  C   UNL     1       4.555   3.147  18.308  0.00  0.00    +0.000 C 
ATOM      4  O   UNL     1       5.228   3.371  19.309  0.00  0.00    +0.000 OA
ATOM      5  H   UNL     1       4.290   3.454  16.269  0.00  0.00    +0.000 HD
BRANCH   2   6
ATOM      6  C   UNL     1       6.035   4.561  16.895  0.00  0.00    +0.000 C 
BRANCH   6   8
ATOM      7  C   UNL     1       6.102   4.432  14.290  0.00  0.00    +0.000 C 
ATOM      8  C   UNL     1       6.807   4.172  15.616  0.00  0.00    +0.000 C 
ENDBRANCH   6   8
BRANCH   6   9
ATOM      9  C   UNL     1       5.561   6.032  16.959  0.00  0.00    +0.000 C 
BRANCH   9  10
ATOM     10  C   UNL     1       6.760   6.958  17.073  0.00  0.00    +0.000 C 
ATOM     11  N   UNL     1       7.755   7.727  17.169  0.00  0.00    +0.000 NA
ENDBRANCH   9  10
ENDBRANCH   6   9
ENDBRANCH   2   6
ENDBRANCH   1   3
BRANCH   1  12
ATOM     12  C   UNL     1       2.016   3.104  18.363  0.00  0.00    +0.000 C 
ATOM     13  C   UNL     1       0.776   2.219  18.572  0.00  0.00    +0.000 C 
BRANCH  12  14
ATOM     14  C   UNL     1       2.094   4.210  19.393  0.00  0.00    +0.000 A 
ATOM     15  C   UNL     1       2.090   4.063  20.816  0.00  0.00    +0.000 A 
ATOM     16  C   UNL     1       2.007   2.828  21.638  0.00  0.00    +0.000 C 
ATOM     17  N   UNL     1       2.183   5.241  21.444  0.00  0.00    +0.000 NA
ATOM     18  N   UNL     1       2.263   6.133  20.452  0.00  0.00    +0.000 N 
ATOM     19  C   UNL     1       2.197   5.587  19.204  0.00  0.00    +0.000 A 
ATOM     20  C   UNL     1       2.261   6.438  17.996  0.00  0.00    +0.000 C 
ATOM     21  H   UNL     1       2.369   7.111  20.704  0.00  0.00    +0.000 HD
ENDBRANCH  12  14
ENDBRANCH   1  12
TORSDOF 7
ENDMDL
MODEL 3
REMARK VINA RESULT:      -6.4      2.204      3.812
REMARK  Name = 
REMARK  11 active torsions:
REMARK  status: ('A' for Active; 'I' for Inactive)
REMARK    1  A    between atoms: C_1  and  C_2
REMARK    2  A    between atoms: C_2  and  C_3
REMARK    3  A    between atoms: C_3  and  C_4
REMARK    4  A    between atoms: C_3  and  N_7
REMARK    5  A    between atoms: C_4  and  C_5
REMARK    6  A    between atoms: C_8  and  C_10
REMARK    7  A    between atoms: C_10  and  C_11
REMARK    8  A    between atoms: C_11  and  C_12
REMARK    9  A    between atoms: C_11  and  C_13
REMARK   10  A    between atoms: C_14  and  C_15
REMARK   11  A    between atoms: C_18  and  C_19
REMARK                            x       y       z     vdW  Elec       q    Type
REMARK                         _______ _______ _______ _____ _____    ______ ____
ROOT
ATOM      1  C   UNL     1       3.694   5.935  19.283  0.00  0.00    +0.000 C 
ENDROOT
BRANCH   1   3
ATOM      2  N   UNL     1       5.475   6.169  17.634  0.00  0.00    +0.000 N 
ATOM      3  C   UNL     1       5.153   5.756  18.907  0.00  0.00    +0.000 C 
ATOM      4  O   UNL     1       5.983   5.250  19.656  0.00  0.00    +0.000 OA
ATOM      5  H   UNL     1       4.754   6.614  17.056  0.00  0.00    +0.000 HD
BRANCH   2   6
ATOM      6  C   UNL     1       6.857   6.132  17.134  0.00  0.00    +0.000 C 
BRANCH   6   8
ATOM      7  C   UNL     1       7.948   8.411  17.780  0.00  0.00    +0.000 C 
ATOM      8  C   UNL     1       7.763   6.931  18.094  0.00  0.00    +0.000 C 
ENDBRANCH   6   8
BRANCH   6   9
ATOM      9  C   UNL     1       7.301   4.675  16.866  0.00  0.00    +0.000 C 
BRANCH   9  10
ATOM     10  C   UNL     1       6.690   4.179  15.565  0.00  0.00    +0.000 C 
ATOM     11  N   UNL     1       6.183   3.767  14.487  0.00  0.00    +0.000 NA
ENDBRANCH   9  10
ENDBRANCH   6   9
ENDBRANCH   2   6
ENDBRANCH   1   3
BRANCH   1  12
ATOM     12  C   UNL     1       3.141   4.737  20.075  0.00  0.00    +0.000 C 
ATOM     13  C   UNL     1       1.803   5.065  20.755  0.00  0.00    +0.000 C 
BRANCH  12  14
ATOM     14  C   UNL     1       3.042   3.495  19.215  0.00  0.00    +0.000 A 
ATOM     15  C   UNL     1       3.762   2.270  19.385  0.00  0.00    +0.000 A 
ATOM     16  C   UNL     1       4.769   1.902  20.415  0.00  0.00    +0.000 C 
ATOM     17  N   UNL     1       3.437   1.362  18.459  0.00  0.00    +0.000 NA
ATOM     18  N   UNL     1       2.512   1.975  17.713  0.00  0.00    +0.000 N 
ATOM     19  C   UNL     1       2.245   3.256  18.098  0.00  0.00    +0.000 A 
ATOM     20  C   UNL     1       1.253   4.078  17.370  0.00  0.00    +0.000 C 
ATOM     21  H   UNL     1       2.097   1.449  16.950  0.00  0.00    +0.000 HD
ENDBRANCH  12  14
ENDBRANCH   1  12
TORSDOF 7
ENDMDL
MODEL 4
REMARK VINA RESULT:      -6.3      1.706      5.884
REMARK  Name = 
REMARK  11 active torsions:
REMARK  status: ('A' for Active; 'I' for Inactive)
REMARK    1  A    between atoms: C_1  and  C_2
REMARK    2  A    between atoms: C_2  and  C_3
REMARK    3  A    between atoms: C_3  and  C_4
REMARK    4  A    between atoms: C_3  and  N_7
REMARK    5  A    between atoms: C_4  and  C_5
REMARK    6  A    between atoms: C_8  and  C_10
REMARK    7  A    between atoms: C_10  and  C_11
REMARK    8  A    between atoms: C_11  and  C_12
REMARK    9  A    between atoms: C_11  and  C_13
REMARK   10  A    between atoms: C_14  and  C_15
REMARK   11  A    between atoms: C_18  and  C_19
REMARK                            x       y       z     vdW  Elec       q    Type
REMARK                         _______ _______ _______ _____ _____    ______ ____
ROOT
ATOM      1  C   UNL     1       5.648   4.335  19.070  0.00  0.00    +0.000 C 
ENDROOT
BRANCH   1   3
ATOM      2  N   UNL     1       3.406   3.671  19.757  0.00  0.00    +0.000 N 
ATOM      3  C   UNL     1       4.729   3.300  19.692  0.00  0.00    +0.000 C 
ATOM      4  O   UNL     1       5.128   2.229  20.138  0.00  0.00    +0.000 OA
ATOM      5  H   UNL     1       3.116   4.562  19.342  0.00  0.00    +0.000 HD
BRANCH   2   6
ATOM      6  C   UNL     1       2.371   2.758  20.265  0.00  0.00    +0.000 C 
BRANCH   6   8
ATOM      7  C   UNL     1       1.189   5.039  20.718  0.00  0.00    +0.000 C 
ATOM      8  C   UNL     1       1.340   3.566  21.081  0.00  0.00    +0.000 C 
ENDBRANCH   6   8
BRANCH   6   9
ATOM      9  C   UNL     1       1.783   1.906  19.116  0.00  0.00    +0.000 C 
BRANCH   9  10
ATOM     10  C   UNL     1       2.070   2.570  17.780  0.00  0.00    +0.000 C 
ATOM     11  N   UNL     1       2.309   3.123  16.672  0.00  0.00    +0.000 NA
ENDBRANCH   9  10
ENDBRANCH   6   9
ENDBRANCH   2   6
ENDBRANCH   1   3
BRANCH   1  12
ATOM     12  C   UNL     1       5.045   4.969  17.802  0.00  0.00    +0.000 C 
ATOM     13  C   UNL     1       4.133   6.161  18.133  0.00  0.00    +0.000 C 
BRANCH  12  14
ATOM     14  C   UNL     1       6.116   5.344  16.801  0.00  0.00    +0.000 A 
ATOM     15  C   UNL     1       6.251   4.860  15.462  0.00  0.00    +0.000 A 
ATOM     16  C   UNL     1       5.406   3.888  14.720  0.00  0.00    +0.000 C 
ATOM     17  N   UNL     1       7.303   5.399  14.835  0.00  0.00    +0.000 NA
ATOM     18  N   UNL     1       7.831   6.229  15.739  0.00  0.00    +0.000 N 
ATOM     19  C   UNL     1       7.183   6.231  16.940  0.00  0.00    +0.000 A 
ATOM     20  C   UNL     1       7.647   7.086  18.053  0.00  0.00    +0.000 C 
ATOM     21  H   UNL     1       8.641   6.776  15.462  0.00  0.00    +0.000 HD
ENDBRANCH  12  14
ENDBRANCH   1  12
TORSDOF 7
ENDMDL
MODEL 5
REMARK VINA RESULT:      -6.3      2.054      5.569
REMARK  Name = 
REMARK  11 active torsions:
REMARK  status: ('A' for Active; 'I' for Inactive)
REMARK    1  A    between atoms: C_1  and  C_2
REMARK    2  A    between atoms: C_2  and  C_3
REMARK    3  A    between atoms: C_3  and  C_4
REMARK    4  A    between atoms: C_3  and  N_7
REMARK    5  A    between atoms: C_4  and  C_5
REMARK    6  A    between atoms: C_8  and  C_10
REMARK    7  A    between atoms: C_10  and  C_11
REMARK    8  A    between atoms: C_11  and  C_12
REMARK    9  A    between atoms: C_11  and  C_13
REMARK   10  A    between atoms: C_14  and  C_15
REMARK   11  A    between atoms: C_18  and  C_19
REMARK                            x       y       z     vdW  Elec       q    Type
REMARK                         _______ _______ _______ _____ _____    ______ ____
ROOT
ATOM      1  C   UNL     1       3.464   3.752  16.947  0.00  0.00    +0.000 C 
ENDROOT
BRANCH   1   3
ATOM      2  N   UNL     1       2.478   4.111  19.147  0.00  0.00    +0.000 N 
ATOM      3  C   UNL     1       2.247   4.079  17.791  0.00  0.00    +0.000 C 
ATOM      4  O   UNL     1       1.131   4.267  17.316  0.00  0.00    +0.000 OA
ATOM      5  H   UNL     1       3.434   3.978  19.494  0.00  0.00    +0.000 HD
BRANCH   2   6
ATOM      6  C   UNL     1       1.425   4.482  20.103  0.00  0.00    +0.000 C 
BRANCH   6   8
ATOM      7  C   UNL     1       1.935   2.504  21.725  0.00  0.00    +0.000 C 
ATOM      8  C   UNL     1       0.928   3.212  20.826  0.00  0.00    +0.000 C 
ENDBRANCH   6   8
BRANCH   6   9
ATOM      9  C   UNL     1       1.905   5.625  21.028  0.00  0.00    +0.000 C 
BRANCH   9  10
ATOM     10  C   UNL     1       1.874   6.946  20.278  0.00  0.00    +0.000 C 
ATOM     11  N   UNL     1       1.848   8.042  19.655  0.00  0.00    +0.000 NA
ENDBRANCH   9  10
ENDBRANCH   6   9
ENDBRANCH   2   6
ENDBRANCH   1   3
BRANCH   1  12
ATOM     12  C   UNL     1       4.266   5.009  16.561  0.00  0.00    +0.000 C 
ATOM     13  C   UNL     1       3.743   6.266  17.274  0.00  0.00    +0.000 C 
BRANCH  12  14
ATOM     14  C   UNL     1       5.751   4.815  16.785  0.00  0.00    +0.000 A 
ATOM     15  C   UNL     1       6.738   4.510  15.795  0.00  0.00    +0.000 A 
ATOM     16  C   UNL     1       6.576   4.304  14.332  0.00  0.00    +0.000 C 
ATOM     17  N   UNL     1       7.964   4.414  16.320  0.00  0.00    +0.000 NA
ATOM     18  N   UNL     1       7.783   4.669  17.620  0.00  0.00    +0.000 N 
ATOM     19  C   UNL     1       6.484   4.897  17.967  0.00  0.00    +0.000 A 
ATOM     20  C   UNL     1       6.110   5.184  19.369  0.00  0.00    +0.000 C 
ATOM     21  H   UNL     1       8.603   4.675  18.219  0.00  0.00    +0.000 HD
ENDBRANCH  12  14
ENDBRANCH   1  12
TORSDOF 7
ENDMDL
MODEL 6
REMARK VINA RESULT:      -6.2      2.071      6.029
REMARK  Name = 
REMARK  11 active torsions:
REMARK  status: ('A' for Active; 'I' for Inactive)
REMARK    1  A    between atoms: C_1  and  C_2
REMARK    2  A    between atoms: C_2  and  C_3
REMARK    3  A    between atoms: C_3  and  C_4
REMARK    4  A    between atoms: C_3  and  N_7
REMARK    5  A    between atoms: C_4  and  C_5
REMARK    6  A    between atoms: C_8  and  C_10
REMARK    7  A    between atoms: C_10  and  C_11
REMARK    8  A    between atoms: C_11  and  C_12
REMARK    9  A    between atoms: C_11  and  C_13
REMARK   10  A    between atoms: C_14  and  C_15
REMARK   11  A    between atoms: C_18  and  C_19
REMARK                            x       y       z     vdW  Elec       q    Type
REMARK                         _______ _______ _______ _____ _____    ______ ____
ROOT
ATOM      1  C   UNL     1       4.479   6.227  18.696  0.00  0.00    +0.000 C 
ENDROOT
BRANCH   1   3
ATOM      2  N   UNL     1       2.916   4.363  18.860  0.00  0.00    +0.000 N 
ATOM      3  C   UNL     1       3.072   5.687  18.520  0.00  0.00    +0.000 C 
ATOM      4  O   UNL     1       2.146   6.358  18.076  0.00  0.00    +0.000 OA
ATOM      5  H   UNL     1       3.712   3.852  19.256  0.00  0.00    +0.000 HD
BRANCH   2   6
ATOM      6  C   UNL     1       1.603   3.702  18.816  0.00  0.00    +0.000 C 
BRANCH   6   8
ATOM      7  C   UNL     1       3.216   1.789  18.080  0.00  0.00    +0.000 C 
ATOM      8  C   UNL     1       1.785   2.249  18.330  0.00  0.00    +0.000 C 
ENDBRANCH   6   8
BRANCH   6   9
ATOM      9  C   UNL     1       0.868   3.861  20.168  0.00  0.00    +0.000 C 
BRANCH   9  10
ATOM     10  C   UNL     1       1.694   3.239  21.282  0.00  0.00    +0.000 C 
ATOM     11  N   UNL     1       2.378   2.723  22.207  0.00  0.00    +0.000 NA
ENDBRANCH   9  10
ENDBRANCH   6   9
ENDBRANCH   2   6
ENDBRANCH   1   3
BRANCH   1  12
ATOM     12  C   UNL     1       5.167   6.522  17.351  0.00  0.00    +0.000 C 
ATOM     13  C   UNL     1       5.676   7.970  17.270  0.00  0.00    +0.000 C 
BRANCH  12  14
ATOM     14  C   UNL     1       6.267   5.525  17.055  0.00  0.00    +0.000 A 
ATOM     15  C   UNL     1       7.391   5.212  17.884  0.00  0.00    +0.000 A 
ATOM     16  C   UNL     1       7.768   5.764  19.211  0.00  0.00    +0.000 C 
ATOM     17  N   UNL     1       8.175   4.276  17.336  0.00  0.00    +0.000 NA
ATOM     18  N   UNL     1       7.566   3.974  16.185  0.00  0.00    +0.000 N 
ATOM     19  C   UNL     1       6.434   4.696  15.947  0.00  0.00    +0.000 A 
ATOM     20  C   UNL     1       5.647   4.492  14.712  0.00  0.00    +0.000 C 
ATOM     21  H   UNL     1       7.983   3.252  15.606  0.00  0.00    +0.000 HD
ENDBRANCH  12  14
ENDBRANCH   1  12
TORSDOF 7
ENDMDL
MODEL 7
REMARK VINA RESULT:      -6.2      1.898      6.110
REMARK  Name = 
REMARK  11 active torsions:
REMARK  status: ('A' for Active; 'I' for Inactive)
REMARK    1  A    between atoms: C_1  and  C_2
REMARK    2  A    between atoms: C_2  and  C_3
REMARK    3  A    between atoms: C_3  and  C_4
REMARK    4  A    between atoms: C_3  and  N_7
REMARK    5  A    between atoms: C_4  and  C_5
REMARK    6  A    between atoms: C_8  and  C_10
REMARK    7  A    between atoms: C_10  and  C_11
REMARK    8  A    between atoms: C_11  and  C_12
REMARK    9  A    between atoms: C_11  and  C_13
REMARK   10  A    between atoms: C_14  and  C_15
REMARK   11  A    between atoms: C_18  and  C_19
REMARK                            x       y       z     vdW  Elec       q    Type
REMARK                         _______ _______ _______ _____ _____    ______ ____
ROOT
ATOM      1  C   UNL     1       4.691   6.006  19.010  0.00  0.00    +0.000 C 
ENDROOT
BRANCH   1   3
ATOM      2  N   UNL     1       3.656   3.920  19.730  0.00  0.00    +0.000 N 
ATOM      3  C   UNL     1       4.824   4.530  19.335  0.00  0.00    +0.000 C 
ATOM      4  O   UNL     1       5.891   3.924  19.288  0.00  0.00    +0.000 OA
ATOM      5  H   UNL     1       2.784   4.459  19.724  0.00  0.00    +0.000 HD
BRANCH   2   6
ATOM      6  C   UNL     1       3.593   2.479  20.013  0.00  0.00    +0.000 C 
BRANCH   6   8
ATOM      7  C   UNL     1       1.908   3.374  21.792  0.00  0.00    +0.000 C 
ATOM      8  C   UNL     1       2.843   2.257  21.344  0.00  0.00    +0.000 C 
ENDBRANCH   6   8
BRANCH   6   9
ATOM      9  C   UNL     1       3.024   1.708  18.799  0.00  0.00    +0.000 C 
BRANCH   9  10
ATOM     10  C   UNL     1       1.554   2.046  18.613  0.00  0.00    +0.000 C 
ATOM     11  N   UNL     1       0.334   2.325  18.459  0.00  0.00    +0.000 NA
ENDBRANCH   9  10
ENDBRANCH   6   9
ENDBRANCH   2   6
ENDBRANCH   1   3
BRANCH   1  12
ATOM     12  C   UNL     1       4.492   6.259  17.504  0.00  0.00    +0.000 C 
ATOM     13  C   UNL     1       3.871   7.638  17.230  0.00  0.00    +0.000 C 
BRANCH  12  14
ATOM     14  C   UNL     1       5.777   6.060  16.729  0.00  0.00    +0.000 A 
ATOM     15  C   UNL     1       6.008   5.123  15.672  0.00  0.00    +0.000 A 
ATOM     16  C   UNL     1       5.082   4.126  15.075  0.00  0.00    +0.000 C 
ATOM     17  N   UNL     1       7.252   5.207  15.188  0.00  0.00    +0.000 NA
ATOM     18  N   UNL     1       7.813   6.189  15.900  0.00  0.00    +0.000 N 
ATOM     19  C   UNL     1       6.994   6.727  16.849  0.00  0.00    +0.000 A 
ATOM     20  C   UNL     1       7.465   7.817  17.731  0.00  0.00    +0.000 C 
ATOM     21  H   UNL     1       8.770   6.447  15.678  0.00  0.00    +0.000 HD
ENDBRANCH  12  14
ENDBRANCH   1  12
TORSDOF 7
ENDMDL
MODEL 8
REMARK VINA RESULT:      -6.1      2.016      2.737
REMARK  Name = 
REMARK  11 active torsions:
REMARK  status: ('A' for Active; 'I' for Inactive)
REMARK    1  A    between atoms: C_1  and  C_2
REMARK    2  A    between atoms: C_2  and  C_3
REMARK    3  A    between atoms: C_3  and  C_4
REMARK    4  A    between atoms: C_3  and  N_7
REMARK    5  A    between atoms: C_4  and  C_5
REMARK    6  A    between atoms: C_8  and  C_10
REMARK    7  A    between atoms: C_10  and  C_11
REMARK    8  A    between atoms: C_11  and  C_12
REMARK    9  A    between atoms: C_11  and  C_13
REMARK   10  A    between atoms: C_14  and  C_15
REMARK   11  A    between atoms: C_18  and  C_19
REMARK                            x       y       z     vdW  Elec       q    Type
REMARK                         _______ _______ _______ _____ _____    ______ ____
ROOT
ATOM      1  C   UNL     1       3.764   5.772  19.598  0.00  0.00    +0.000 C 
ENDROOT
BRANCH   1   3
ATOM      2  N   UNL     1       5.137   5.343  17.630  0.00  0.00    +0.000 N 
ATOM      3  C   UNL     1       5.097   5.356  19.006  0.00  0.00    +0.000 C 
ATOM      4  O   UNL     1       6.060   5.020  19.688  0.00  0.00    +0.000 OA
ATOM      5  H   UNL     1       4.317   5.662  17.104  0.00  0.00    +0.000 HD
BRANCH   2   6
ATOM      6  C   UNL     1       6.372   5.032  16.895  0.00  0.00    +0.000 C 
BRANCH   6   8
ATOM      7  C   UNL     1       6.173   4.273  14.408  0.00  0.00    +0.000 C 
ATOM      8  C   UNL     1       6.088   3.902  15.884  0.00  0.00    +0.000 C 
ENDBRANCH   6   8
BRANCH   6   9
ATOM      9  C   UNL     1       6.987   6.318  16.294  0.00  0.00    +0.000 C 
BRANCH   9  10
ATOM     10  C   UNL     1       7.631   7.146  17.393  0.00  0.00    +0.000 C 
ATOM     11  N   UNL     1       8.164   7.833  18.307  0.00  0.00    +0.000 NA
ENDBRANCH   9  10
ENDBRANCH   6   9
ENDBRANCH   2   6
ENDBRANCH   1   3
BRANCH   1  12
ATOM     12  C   UNL     1       3.024   4.596  20.262  0.00  0.00    +0.000 C 
ATOM     13  C   UNL     1       1.611   4.990  20.719  0.00  0.00    +0.000 C 
BRANCH  12  14
ATOM     14  C   UNL     1       3.004   3.373  19.370  0.00  0.00    +0.000 A 
ATOM     15  C   UNL     1       2.251   3.199  18.166  0.00  0.00    +0.000 A 
ATOM     16  C   UNL     1       1.317   4.137  17.492  0.00  0.00    +0.000 C 
ATOM     17  N   UNL     1       2.465   2.001  17.608  0.00  0.00    +0.000 NA
ATOM     18  N   UNL     1       3.350   1.416  18.421  0.00  0.00    +0.000 N 
ATOM     19  C   UNL     1       3.699   2.173  19.502  0.00  0.00    +0.000 A 
ATOM     20  C   UNL     1       4.660   1.667  20.505  0.00  0.00    +0.000 C 
ATOM     21  H   UNL     1       3.681   0.490  18.170  0.00  0.00    +0.000 HD
ENDBRANCH  12  14
ENDBRANCH   1  12
TORSDOF 7
ENDMDL
MODEL 9
REMARK VINA RESULT:      -6.1      1.904      5.854
REMARK  Name = 
REMARK  11 active torsions:
REMARK  status: ('A' for Active; 'I' for Inactive)
REMARK    1  A    between atoms: C_1  and  C_2
REMARK    2  A    between atoms: C_2  and  C_3
REMARK    3  A    between atoms: C_3  and  C_4
REMARK    4  A    between atoms: C_3  and  N_7
REMARK    5  A    between atoms: C_4  and  C_5
REMARK    6  A    between atoms: C_8  and  C_10
REMARK    7  A    between atoms: C_10  and  C_11
REMARK    8  A    between atoms: C_11  and  C_12
REMARK    9  A    between atoms: C_11  and  C_13
REMARK   10  A    between atoms: C_14  and  C_15
REMARK   11  A    between atoms: C_18  and  C_19
REMARK                            x       y       z     vdW  Elec       q    Type
REMARK                         _______ _______ _______ _____ _____    ______ ____
ROOT
ATOM      1  C   UNL     1       3.679   6.488  18.055  0.00  0.00    +0.000 C 
ENDROOT
BRANCH   1   3
ATOM      2  N   UNL     1       2.164   4.614  18.426  0.00  0.00    +0.000 N 
ATOM      3  C   UNL     1       2.547   5.866  18.851  0.00  0.00    +0.000 C 
ATOM      4  O   UNL     1       1.985   6.437  19.780  0.00  0.00    +0.000 OA
ATOM      5  H   UNL     1       2.685   4.165  17.665  0.00  0.00    +0.000 HD
BRANCH   2   6
ATOM      6  C   UNL     1       1.132   3.840  19.129  0.00  0.00    +0.000 C 
BRANCH   6   8
ATOM      7  C   UNL     1       2.426   1.987  17.827  0.00  0.00    +0.000 C 
ATOM      8  C   UNL     1       1.258   2.353  18.735  0.00  0.00    +0.000 C 
ENDBRANCH   6   8
BRANCH   6   9
ATOM      9  C   UNL     1       1.176   4.127  20.649  0.00  0.00    +0.000 C 
BRANCH   9  10
ATOM     10  C   UNL     1       2.130   3.160  21.330  0.00  0.00    +0.000 C 
ATOM     11  N   UNL     1       2.921   2.357  21.895  0.00  0.00    +0.000 NA
ENDBRANCH   9  10
ENDBRANCH   6   9
ENDBRANCH   2   6
ENDBRANCH   1   3
BRANCH   1  12
ATOM     12  C   UNL     1       5.064   6.030  18.548  0.00  0.00    +0.000 C 
ATOM     13  C   UNL     1       4.988   4.712  19.334  0.00  0.00    +0.000 C 
BRANCH  12  14
ATOM     14  C   UNL     1       6.062   5.949  17.413  0.00  0.00    +0.000 A 
ATOM     15  C   UNL     1       6.024   5.055  16.296  0.00  0.00    +0.000 A 
ATOM     16  C   UNL     1       5.031   4.001  15.963  0.00  0.00    +0.000 C 
ATOM     17  N   UNL     1       7.053   5.247  15.463  0.00  0.00    +0.000 NA
ATOM     18  N   UNL     1       7.736   6.255  16.015  0.00  0.00    +0.000 N 
ATOM     19  C   UNL     1       7.209   6.707  17.190  0.00  0.00    +0.000 A 
ATOM     20  C   UNL     1       7.851   7.812  17.935  0.00  0.00    +0.000 C 
ATOM     21  H   UNL     1       8.560   6.591  15.526  0.00  0.00    +0.000 HD
ENDBRANCH  12  14
ENDBRANCH   1  12
TORSDOF 7
ENDMDL
