MODEL 1
REMARK VINA RESULT:      -8.2      0.000      0.000
REMARK  Name = 
REMARK  9 active torsions:
REMARK  status: ('A' for Active; 'I' for Inactive)
REMARK    1  A    between atoms: C_1  and  C_2
REMARK    2  A    between atoms: N_5  and  C_6
REMARK    3  A    between atoms: C_9  and  C_10
REMARK    4  A    between atoms: C_13  and  N_14
REMARK    5  A    between atoms: N_14  and  C_15
REMARK    6  A    between atoms: C_18  and  O_19
REMARK    7  A    between atoms: C_23  and  C_24
REMARK    8  A    between atoms: C_26  and  C_27
REMARK    9  A    between atoms: C_26  and  C_28
REMARK                            x       y       z     vdW  Elec       q    Type
REMARK                         _______ _______ _______ _____ _____    ______ ____
ROOT
ATOM      1  C   UNL     1       1.881   7.651  19.831  0.00  0.00    +0.000 A 
ATOM      2  C   UNL     1       2.030   7.759  21.213  0.00  0.00    +0.000 A 
ATOM      3  C   UNL     1       1.345   8.744  21.925  0.00  0.00    +0.000 A 
ATOM      4  C   UNL     1       0.537   9.685  21.272  0.00  0.00    +0.000 A 
ATOM      5  C   UNL     1       0.416   9.656  19.861  0.00  0.00    +0.000 A 
ATOM      6  C   UNL     1       1.087   8.613  19.172  0.00  0.00    +0.000 A 
ENDROOT
BRANCH   1  11
ATOM      7  C   UNL     1       4.647   5.189  16.378  0.00  0.00    +0.000 C 
ATOM      8  C   UNL     1       3.741   5.470  17.536  0.00  0.00    +0.000 A 
ATOM      9  C   UNL     1       3.101   4.521  18.361  0.00  0.00    +0.000 A 
ATOM     10  C   UNL     1       2.422   5.211  19.357  0.00  0.00    +0.000 A 
ATOM     11  N   UNL     1       2.533   6.590  19.104  0.00  0.00    +0.000 N 
ATOM     12  C   UNL     1       3.382   6.729  17.998  0.00  0.00    +0.000 A 
ATOM     13  C   UNL     1       3.899   8.014  17.433  0.00  0.00    +0.000 C 
ATOM     14  C   UNL     1       1.586   4.521  20.412  0.00  0.00    +0.000 C 
ATOM     15  C   UNL     1       1.969   3.013  20.555  0.00  0.00    +0.000 C 
ATOM     16  C   UNL     1       0.878   2.279  21.357  0.00  0.00    +0.000 C 
ATOM     17  C   UNL     1       3.300   2.858  21.327  0.00  0.00    +0.000 C 
ATOM     18  C   UNL     1       2.080   2.353  19.167  0.00  0.00    +0.000 C 
ATOM     19  C   UNL     1       3.088   3.059  18.282  0.00  0.00    +0.000 C 
ATOM     20  O   UNL     1       3.794   2.419  17.505  0.00  0.00    +0.000 OA
ENDBRANCH   1  11
BRANCH   4  21
ATOM     21  C   UNL     1      -0.196  10.626  22.175  0.00  0.00    +0.000 C 
ATOM     22  N   UNL     1      -0.952  10.080  23.169  0.00  0.00    +0.000 N 
ATOM     23  O   UNL     1      -0.079  11.843  22.075  0.00  0.00    +0.000 OA
ATOM     24  H   UNL     1      -1.092   9.076  23.211  0.00  0.00    +0.000 HD
ATOM     25  H   UNL     1      -1.410  10.693  23.830  0.00  0.00    +0.000 HD
ENDBRANCH   4  21
BRANCH   5  26
ATOM     26  N   UNL     1      -0.258  10.705  19.181  0.00  0.00    +0.000 N 
ATOM     27  H   UNL     1       0.340  10.994  18.399  0.00  0.00    +0.000 HD
BRANCH  26  28
ATOM     28  C   UNL     1      -1.656  10.544  18.755  0.00  0.00    +0.000 C 
ATOM     29  C   UNL     1      -2.394  11.875  18.957  0.00  0.00    +0.000 C 
ATOM     30  C   UNL     1      -3.839  11.781  18.491  0.00  0.00    +0.000 C 
ATOM     31  C   UNL     1      -3.911  11.385  17.020  0.00  0.00    +0.000 C 
ATOM     32  C   UNL     1      -3.154  10.084  16.752  0.00  0.00    +0.000 C 
ATOM     33  C   UNL     1      -1.712  10.141  17.266  0.00  0.00    +0.000 C 
BRANCH  31  34
ATOM     34  O   UNL     1      -5.271  11.239  16.633  0.00  0.00    +0.000 OA
ATOM     35  H   UNL     1      -5.326  11.291  15.664  0.00  0.00    +0.000 HD
ENDBRANCH  31  34
ENDBRANCH  26  28
ENDBRANCH   5  26
TORSDOF 5
ENDMDL
MODEL 2
REMARK VINA RESULT:      -7.9      1.551      3.502
REMARK  Name = 
REMARK  9 active torsions:
REMARK  status: ('A' for Active; 'I' for Inactive)
REMARK    1  A    between atoms: C_1  and  C_2
REMARK    2  A    between atoms: N_5  and  C_6
REMARK    3  A    between atoms: C_9  and  C_10
REMARK    4  A    between atoms: C_13  and  N_14
REMARK    5  A    between atoms: N_14  and  C_15
REMARK    6  A    between atoms: C_18  and  O_19
REMARK    7  A    between atoms: C_23  and  C_24
REMARK    8  A    between atoms: C_26  and  C_27
REMARK    9  A    between atoms: C_26  and  C_28
REMARK                            x       y       z     vdW  Elec       q    Type
REMARK                         _______ _______ _______ _____ _____    ______ ____
ROOT
ATOM      1  C   UNL     1       2.196   6.593  19.497  0.00  0.00    +0.000 A 
ATOM      2  C   UNL     1       1.797   6.352  20.810  0.00  0.00    +0.000 A 
ATOM      3  C   UNL     1       1.194   7.361  21.564  0.00  0.00    +0.000 A 
ATOM      4  C   UNL     1       1.026   8.653  21.047  0.00  0.00    +0.000 A 
ATOM      5  C   UNL     1       1.485   8.958  19.742  0.00  0.00    +0.000 A 
ATOM      6  C   UNL     1       2.049   7.899  18.986  0.00  0.00    +0.000 A 
ENDROOT
BRANCH   1  11
ATOM      7  C   UNL     1       2.864   2.088  17.281  0.00  0.00    +0.000 C 
ATOM      8  C   UNL     1       3.085   3.500  17.725  0.00  0.00    +0.000 A 
ATOM      9  C   UNL     1       4.204   4.313  17.442  0.00  0.00    +0.000 A 
ATOM     10  C   UNL     1       3.963   5.571  17.978  0.00  0.00    +0.000 A 
ATOM     11  N   UNL     1       2.754   5.532  18.695  0.00  0.00    +0.000 N 
ATOM     12  C   UNL     1       2.210   4.256  18.494  0.00  0.00    +0.000 A 
ATOM     13  C   UNL     1       0.868   3.781  18.956  0.00  0.00    +0.000 C 
ATOM     14  C   UNL     1       4.965   6.703  17.900  0.00  0.00    +0.000 C 
ATOM     15  C   UNL     1       6.017   6.465  16.771  0.00  0.00    +0.000 C 
ATOM     16  C   UNL     1       7.201   7.432  16.959  0.00  0.00    +0.000 C 
ATOM     17  C   UNL     1       5.400   6.747  15.381  0.00  0.00    +0.000 C 
ATOM     18  C   UNL     1       6.553   5.021  16.831  0.00  0.00    +0.000 C 
ATOM     19  C   UNL     1       5.440   3.998  16.722  0.00  0.00    +0.000 C 
ATOM     20  O   UNL     1       5.617   2.943  16.114  0.00  0.00    +0.000 OA
ENDBRANCH   1  11
BRANCH   4  21
ATOM     21  C   UNL     1       0.292   9.602  21.941  0.00  0.00    +0.000 C 
ATOM     22  N   UNL     1      -0.675   9.081  22.749  0.00  0.00    +0.000 N 
ATOM     23  O   UNL     1       0.583  10.792  22.001  0.00  0.00    +0.000 OA
ATOM     24  H   UNL     1      -0.952   8.110  22.653  0.00  0.00    +0.000 HD
ATOM     25  H   UNL     1      -1.145   9.690  23.405  0.00  0.00    +0.000 HD
ENDBRANCH   4  21
BRANCH   5  26
ATOM     26  N   UNL     1       1.474  10.301  19.278  0.00  0.00    +0.000 N 
ATOM     27  H   UNL     1       2.403  10.496  18.890  0.00  0.00    +0.000 HD
BRANCH  26  28
ATOM     28  C   UNL     1       0.410  10.775  18.382  0.00  0.00    +0.000 C 
ATOM     29  C   UNL     1      -0.696   9.712  18.316  0.00  0.00    +0.000 C 
ATOM     30  C   UNL     1      -1.848  10.167  17.434  0.00  0.00    +0.000 C 
ATOM     31  C   UNL     1      -2.440  11.476  17.946  0.00  0.00    +0.000 C 
ATOM     32  C   UNL     1      -1.372  12.563  18.072  0.00  0.00    +0.000 C 
ATOM     33  C   UNL     1      -0.177  12.100  18.912  0.00  0.00    +0.000 C 
BRANCH  31  34
ATOM     34  O   UNL     1      -3.467  11.910  17.065  0.00  0.00    +0.000 OA
ATOM     35  H   UNL     1      -3.962  11.133  16.758  0.00  0.00    +0.000 HD
ENDBRANCH  31  34
ENDBRANCH  26  28
ENDBRANCH   5  26
TORSDOF 5
ENDMDL
MODEL 3
REMARK VINA RESULT:      -7.6      0.518      1.044
REMARK  Name = 
REMARK  9 active torsions:
REMARK  status: ('A' for Active; 'I' for Inactive)
REMARK    1  A    between atoms: C_1  and  C_2
REMARK    2  A    between atoms: N_5  and  C_6
REMARK    3  A    between atoms: C_9  and  C_10
REMARK    4  A    between atoms: C_13  and  N_14
REMARK    5  A    between atoms: N_14  and  C_15
REMARK    6  A    between atoms: C_18  and  O_19
REMARK    7  A    between atoms: C_23  and  C_24
REMARK    8  A    between atoms: C_26  and  C_27
REMARK    9  A    between atoms: C_26  and  C_28
REMARK                            x       y       z     vdW  Elec       q    Type
REMARK                         _______ _______ _______ _____ _____    ______ ____
ROOT
ATOM      1  C   UNL     1       1.944   7.760  19.786  0.00  0.00    +0.000 A 
ATOM      2  C   UNL     1       1.801   7.697  21.171  0.00  0.00    +0.000 A 
ATOM      3  C   UNL     1       1.145   8.716  21.862  0.00  0.00    +0.000 A 
ATOM      4  C   UNL     1       0.663   9.853  21.198  0.00  0.00    +0.000 A 
ATOM      5  C   UNL     1       0.852   9.989  19.801  0.00  0.00    +0.000 A 
ATOM      6  C   UNL     1       1.480   8.914  19.121  0.00  0.00    +0.000 A 
ENDROOT
BRANCH   1  11
ATOM      7  C   UNL     1       4.611   5.189  16.333  0.00  0.00    +0.000 C 
ATOM      8  C   UNL     1       3.723   5.506  17.495  0.00  0.00    +0.000 A 
ATOM      9  C   UNL     1       3.062   4.583  18.333  0.00  0.00    +0.000 A 
ATOM     10  C   UNL     1       2.411   5.301  19.328  0.00  0.00    +0.000 A 
ATOM     11  N   UNL     1       2.559   6.674  19.063  0.00  0.00    +0.000 N 
ATOM     12  C   UNL     1       3.404   6.779  17.949  0.00  0.00    +0.000 A 
ATOM     13  C   UNL     1       3.953   8.044  17.369  0.00  0.00    +0.000 C 
ATOM     14  C   UNL     1       1.564   4.644  20.396  0.00  0.00    +0.000 C 
ATOM     15  C   UNL     1       1.904   3.127  20.549  0.00  0.00    +0.000 C 
ATOM     16  C   UNL     1       0.799   2.432  21.365  0.00  0.00    +0.000 C 
ATOM     17  C   UNL     1       3.236   2.940  21.312  0.00  0.00    +0.000 C 
ATOM     18  C   UNL     1       1.985   2.452  19.165  0.00  0.00    +0.000 C 
ATOM     19  C   UNL     1       3.006   3.121  18.267  0.00  0.00    +0.000 C 
ATOM     20  O   UNL     1       3.688   2.454  17.490  0.00  0.00    +0.000 OA
ENDBRANCH   1  11
BRANCH   4  21
ATOM     21  C   UNL     1      -0.088  10.819  22.059  0.00  0.00    +0.000 C 
ATOM     22  N   UNL     1      -0.973  10.300  22.958  0.00  0.00    +0.000 N 
ATOM     23  O   UNL     1       0.120  12.026  22.012  0.00  0.00    +0.000 OA
ATOM     24  H   UNL     1      -1.185   9.309  22.952  0.00  0.00    +0.000 HD
ATOM     25  H   UNL     1      -1.450  10.926  23.593  0.00  0.00    +0.000 HD
ENDBRANCH   4  21
BRANCH   5  26
ATOM     26  N   UNL     1       0.522  11.209  19.152  0.00  0.00    +0.000 N 
ATOM     27  H   UNL     1       1.346  11.500  18.615  0.00  0.00    +0.000 HD
BRANCH  26  28
ATOM     28  C   UNL     1      -0.706  11.323  18.353  0.00  0.00    +0.000 C 
ATOM     29  C   UNL     1      -1.022   9.957  17.728  0.00  0.00    +0.000 C 
ATOM     30  C   UNL     1      -2.311  10.003  16.922  0.00  0.00    +0.000 C 
ATOM     31  C   UNL     1      -3.483  10.440  17.795  0.00  0.00    +0.000 C 
ATOM     32  C   UNL     1      -3.205  11.780  18.477  0.00  0.00    +0.000 C 
ATOM     33  C   UNL     1      -1.881  11.768  19.248  0.00  0.00    +0.000 C 
BRANCH  31  34
ATOM     34  O   UNL     1      -4.657  10.539  17.000  0.00  0.00    +0.000 OA
ATOM     35  H   UNL     1      -5.192  11.282  17.326  0.00  0.00    +0.000 HD
ENDBRANCH  31  34
ENDBRANCH  26  28
ENDBRANCH   5  26
TORSDOF 5
ENDMDL
MODEL 4
REMARK VINA RESULT:      -7.6      1.400      3.297
REMARK  Name = 
REMARK  9 active torsions:
REMARK  status: ('A' for Active; 'I' for Inactive)
REMARK    1  A    between atoms: C_1  and  C_2
REMARK    2  A    between atoms: N_5  and  C_6
REMARK    3  A    between atoms: C_9  and  C_10
REMARK    4  A    between atoms: C_13  and  N_14
REMARK    5  A    between atoms: N_14  and  C_15
REMARK    6  A    between atoms: C_18  and  O_19
REMARK    7  A    between atoms: C_23  and  C_24
REMARK    8  A    between atoms: C_26  and  C_27
REMARK    9  A    between atoms: C_26  and  C_28
REMARK                            x       y       z     vdW  Elec       q    Type
REMARK                         _______ _______ _______ _____ _____    ______ ____
ROOT
ATOM      1  C   UNL     1       2.217   6.667  19.552  0.00  0.00    +0.000 A 
ATOM      2  C   UNL     1       2.187   6.605  20.944  0.00  0.00    +0.000 A 
ATOM      3  C   UNL     1       1.577   7.617  21.686  0.00  0.00    +0.000 A 
ATOM      4  C   UNL     1       1.032   8.748  21.062  0.00  0.00    +0.000 A 
ATOM      5  C   UNL     1       1.107   8.885  19.654  0.00  0.00    +0.000 A 
ATOM      6  C   UNL     1       1.690   7.816  18.926  0.00  0.00    +0.000 A 
ENDROOT
BRANCH   1  11
ATOM      7  C   UNL     1       2.936   2.098  17.489  0.00  0.00    +0.000 C 
ATOM      8  C   UNL     1       3.138   3.528  17.881  0.00  0.00    +0.000 A 
ATOM      9  C   UNL     1       4.242   4.347  17.560  0.00  0.00    +0.000 A 
ATOM     10  C   UNL     1       3.987   5.620  18.053  0.00  0.00    +0.000 A 
ATOM     11  N   UNL     1       2.785   5.587  18.783  0.00  0.00    +0.000 N 
ATOM     12  C   UNL     1       2.258   4.297  18.632  0.00  0.00    +0.000 A 
ATOM     13  C   UNL     1       0.928   3.818  19.122  0.00  0.00    +0.000 C 
ATOM     14  C   UNL     1       4.969   6.763  17.927  0.00  0.00    +0.000 C 
ATOM     15  C   UNL     1       6.015   6.502  16.796  0.00  0.00    +0.000 C 
ATOM     16  C   UNL     1       7.186   7.493  16.939  0.00  0.00    +0.000 C 
ATOM     17  C   UNL     1       5.382   6.725  15.403  0.00  0.00    +0.000 C 
ATOM     18  C   UNL     1       6.574   5.069  16.902  0.00  0.00    +0.000 C 
ATOM     19  C   UNL     1       5.476   4.026  16.839  0.00  0.00    +0.000 C 
ATOM     20  O   UNL     1       5.664   2.954  16.267  0.00  0.00    +0.000 OA
ENDBRANCH   1  11
BRANCH   4  21
ATOM     21  C   UNL     1       0.341   9.707  21.980  0.00  0.00    +0.000 C 
ATOM     22  N   UNL     1      -0.525   9.185  22.894  0.00  0.00    +0.000 N 
ATOM     23  O   UNL     1       0.584  10.909  21.963  0.00  0.00    +0.000 OA
ATOM     24  H   UNL     1      -0.767   8.201  22.865  0.00  0.00    +0.000 HD
ATOM     25  H   UNL     1      -0.960   9.804  23.566  0.00  0.00    +0.000 HD
ENDBRANCH   4  21
BRANCH   5  26
ATOM     26  N   UNL     1       0.713  10.101  19.033  0.00  0.00    +0.000 N 
ATOM     27  H   UNL     1       1.283  10.209  18.188  0.00  0.00    +0.000 HD
BRANCH  26  28
ATOM     28  C   UNL     1      -0.705  10.377  18.762  0.00  0.00    +0.000 C 
ATOM     29  C   UNL     1      -0.909  11.897  18.680  0.00  0.00    +0.000 C 
ATOM     30  C   UNL     1      -2.354  12.244  18.357  0.00  0.00    +0.000 C 
ATOM     31  C   UNL     1      -2.784  11.607  17.040  0.00  0.00    +0.000 C 
ATOM     32  C   UNL     1      -2.563  10.094  17.050  0.00  0.00    +0.000 C 
ATOM     33  C   UNL     1      -1.126   9.725  17.429  0.00  0.00    +0.000 C 
BRANCH  31  34
ATOM     34  O   UNL     1      -4.156  11.892  16.799  0.00  0.00    +0.000 OA
ATOM     35  H   UNL     1      -4.302  11.931  15.840  0.00  0.00    +0.000 HD
ENDBRANCH  31  34
ENDBRANCH  26  28
ENDBRANCH   5  26
TORSDOF 5
ENDMDL
MODEL 5
REMARK VINA RESULT:      -7.6      1.843      8.344
REMARK  Name = 
REMARK  9 active torsions:
REMARK  status: ('A' for Active; 'I' for Inactive)
REMARK    1  A    between atoms: C_1  and  C_2
REMARK    2  A    between atoms: N_5  and  C_6
REMARK    3  A    between atoms: C_9  and  C_10
REMARK    4  A    between atoms: C_13  and  N_14
REMARK    5  A    between atoms: N_14  and  C_15
REMARK    6  A    between atoms: C_18  and  O_19
REMARK    7  A    between atoms: C_23  and  C_24
REMARK    8  A    between atoms: C_26  and  C_27
REMARK    9  A    between atoms: C_26  and  C_28
REMARK                            x       y       z     vdW  Elec       q    Type
REMARK                         _______ _______ _______ _____ _____    ______ ____
ROOT
ATOM      1  C   UNL     1       0.985   9.526  18.913  0.00  0.00    +0.000 A 
ATOM      2  C   UNL     1       1.860   9.816  17.868  0.00  0.00    +0.000 A 
ATOM      3  C   UNL     1       2.880   8.926  17.530  0.00  0.00    +0.000 A 
ATOM      4  C   UNL     1       3.091   7.750  18.263  0.00  0.00    +0.000 A 
ATOM      5  C   UNL     1       2.270   7.454  19.378  0.00  0.00    +0.000 A 
ATOM      6  C   UNL     1       1.212   8.355  19.665  0.00  0.00    +0.000 A 
ENDROOT
BRANCH   1  11
ATOM      7  C   UNL     1      -1.917  12.952  21.257  0.00  0.00    +0.000 C 
ATOM      8  C   UNL     1      -1.442  11.921  20.282  0.00  0.00    +0.000 A 
ATOM      9  C   UNL     1      -2.160  11.394  19.188  0.00  0.00    +0.000 A 
ATOM     10  C   UNL     1      -1.319  10.526  18.503  0.00  0.00    +0.000 A 
ATOM     11  N   UNL     1      -0.112  10.411  19.217  0.00  0.00    +0.000 N 
ATOM     12  C   UNL     1      -0.195  11.309  20.291  0.00  0.00    +0.000 A 
ATOM     13  C   UNL     1       0.897  11.635  21.260  0.00  0.00    +0.000 C 
ATOM     14  C   UNL     1      -1.759   9.744  17.285  0.00  0.00    +0.000 C 
ATOM     15  C   UNL     1      -3.025  10.374  16.622  0.00  0.00    +0.000 C 
ATOM     16  C   UNL     1      -3.640   9.369  15.630  0.00  0.00    +0.000 C 
ATOM     17  C   UNL     1      -2.649  11.645  15.826  0.00  0.00    +0.000 C 
ATOM     18  C   UNL     1      -4.081  10.711  17.693  0.00  0.00    +0.000 C 
ATOM     19  C   UNL     1      -3.536  11.646  18.753  0.00  0.00    +0.000 C 
ATOM     20  O   UNL     1      -4.252  12.514  19.250  0.00  0.00    +0.000 OA
ENDBRANCH   1  11
BRANCH   4  21
ATOM     21  C   UNL     1       4.169   6.858  17.732  0.00  0.00    +0.000 C 
ATOM     22  N   UNL     1       4.462   6.951  16.404  0.00  0.00    +0.000 N 
ATOM     23  O   UNL     1       4.814   6.115  18.464  0.00  0.00    +0.000 OA
ATOM     24  H   UNL     1       3.888   7.522  15.793  0.00  0.00    +0.000 HD
ATOM     25  H   UNL     1       5.225   6.403  16.031  0.00  0.00    +0.000 HD
ENDBRANCH   4  21
BRANCH   5  26
ATOM     26  N   UNL     1       2.584   6.357  20.224  0.00  0.00    +0.000 N 
ATOM     27  H   UNL     1       2.597   6.710  21.187  0.00  0.00    +0.000 HD
BRANCH  26  28
ATOM     28  C   UNL     1       1.833   5.097  20.127  0.00  0.00    +0.000 C 
ATOM     29  C   UNL     1       1.799   4.650  18.659  0.00  0.00    +0.000 C 
ATOM     30  C   UNL     1       1.070   3.324  18.502  0.00  0.00    +0.000 C 
ATOM     31  C   UNL     1       1.731   2.237  19.344  0.00  0.00    +0.000 C 
ATOM     32  C   UNL     1       1.830   2.648  20.813  0.00  0.00    +0.000 C 
ATOM     33  C   UNL     1       2.512   4.009  20.985  0.00  0.00    +0.000 C 
BRANCH  31  34
ATOM     34  O   UNL     1       0.989   1.030  19.229  0.00  0.00    +0.000 OA
ATOM     35  H   UNL     1       0.993   0.750  18.299  0.00  0.00    +0.000 HD
ENDBRANCH  31  34
ENDBRANCH  26  28
ENDBRANCH   5  26
TORSDOF 5
ENDMDL
MODEL 6
REMARK VINA RESULT:      -7.5      4.392      9.460
REMARK  Name = 
REMARK  9 active torsions:
REMARK  status: ('A' for Active; 'I' for Inactive)
REMARK    1  A    between atoms: C_1  and  C_2
REMARK    2  A    between atoms: N_5  and  C_6
REMARK    3  A    between atoms: C_9  and  C_10
REMARK    4  A    between atoms: C_13  and  N_14
REMARK    5  A    between atoms: N_14  and  C_15
REMARK    6  A    between atoms: C_18  and  O_19
REMARK    7  A    between atoms: C_23  and  C_24
REMARK    8  A    between atoms: C_26  and  C_27
REMARK    9  A    between atoms: C_26  and  C_28
REMARK                            x       y       z     vdW  Elec       q    Type
REMARK                         _______ _______ _______ _____ _____    ______ ____
ROOT
ATOM      1  C   UNL     1      -2.115  12.307  22.465  0.00  0.00    +0.000 A 
ATOM      2  C   UNL     1      -1.546  11.376  23.332  0.00  0.00    +0.000 A 
ATOM      3  C   UNL     1      -0.637  10.429  22.857  0.00  0.00    +0.000 A 
ATOM      4  C   UNL     1      -0.315  10.348  21.496  0.00  0.00    +0.000 A 
ATOM      5  C   UNL     1      -0.927  11.229  20.570  0.00  0.00    +0.000 A 
ATOM      6  C   UNL     1      -1.809  12.210  21.091  0.00  0.00    +0.000 A 
ENDROOT
BRANCH   1  11
ATOM      7  C   UNL     1      -3.860  16.333  24.993  0.00  0.00    +0.000 C 
ATOM      8  C   UNL     1      -3.804  15.113  24.128  0.00  0.00    +0.000 A 
ATOM      9  C   UNL     1      -4.888  14.480  23.484  0.00  0.00    +0.000 A 
ATOM     10  C   UNL     1      -4.381  13.435  22.723  0.00  0.00    +0.000 A 
ATOM     11  N   UNL     1      -3.000  13.329  22.966  0.00  0.00    +0.000 N 
ATOM     12  C   UNL     1      -2.658  14.397  23.807  0.00  0.00    +0.000 A 
ATOM     13  C   UNL     1      -1.277  14.778  24.240  0.00  0.00    +0.000 C 
ATOM     14  C   UNL     1      -5.259  12.504  21.916  0.00  0.00    +0.000 C 
ATOM     15  C   UNL     1      -6.664  13.129  21.642  0.00  0.00    +0.000 C 
ATOM     16  C   UNL     1      -7.627  12.034  21.147  0.00  0.00    +0.000 C 
ATOM     17  C   UNL     1      -6.576  14.208  20.538  0.00  0.00    +0.000 C 
ATOM     18  C   UNL     1      -7.242  13.738  22.935  0.00  0.00    +0.000 C 
ATOM     19  C   UNL     1      -6.321  14.783  23.531  0.00  0.00    +0.000 C 
ATOM     20  O   UNL     1      -6.781  15.785  24.076  0.00  0.00    +0.000 OA
ENDBRANCH   1  11
BRANCH   4  21
ATOM     21  C   UNL     1       0.734   9.339  21.151  0.00  0.00    +0.000 C 
ATOM     22  N   UNL     1       1.509   8.867  22.170  0.00  0.00    +0.000 N 
ATOM     23  O   UNL     1       0.860   8.898  20.014  0.00  0.00    +0.000 OA
ATOM     24  H   UNL     1       1.441   9.277  23.095  0.00  0.00    +0.000 HD
ATOM     25  H   UNL     1       2.185   8.141  21.975  0.00  0.00    +0.000 HD
ENDBRANCH   4  21
BRANCH   5  26
ATOM     26  N   UNL     1      -0.737  11.043  19.175  0.00  0.00    +0.000 N 
ATOM     27  H   UNL     1       0.085  10.441  19.057  0.00  0.00    +0.000 HD
BRANCH  26  28
ATOM     28  C   UNL     1      -1.849  10.602  18.321  0.00  0.00    +0.000 C 
ATOM     29  C   UNL     1      -2.612  11.836  17.819  0.00  0.00    +0.000 C 
ATOM     30  C   UNL     1      -3.751  11.442  16.892  0.00  0.00    +0.000 C 
ATOM     31  C   UNL     1      -3.230  10.652  15.696  0.00  0.00    +0.000 C 
ATOM     32  C   UNL     1      -2.425   9.430  16.138  0.00  0.00    +0.000 C 
ATOM     33  C   UNL     1      -1.307   9.802  17.117  0.00  0.00    +0.000 C 
BRANCH  31  34
ATOM     34  O   UNL     1      -4.324  10.241  14.885  0.00  0.00    +0.000 OA
ATOM     35  H   UNL     1      -4.076  10.349  13.952  0.00  0.00    +0.000 HD
ENDBRANCH  31  34
ENDBRANCH  26  28
ENDBRANCH   5  26
TORSDOF 5
ENDMDL
MODEL 7
REMARK VINA RESULT:      -7.4      2.439      3.312
REMARK  Name = 
REMARK  9 active torsions:
REMARK  status: ('A' for Active; 'I' for Inactive)
REMARK    1  A    between atoms: C_1  and  C_2
REMARK    2  A    between atoms: N_5  and  C_6
REMARK    3  A    between atoms: C_9  and  C_10
REMARK    4  A    between atoms: C_13  and  N_14
REMARK    5  A    between atoms: N_14  and  C_15
REMARK    6  A    between atoms: C_18  and  O_19
REMARK    7  A    between atoms: C_23  and  C_24
REMARK    8  A    between atoms: C_26  and  C_27
REMARK    9  A    between atoms: C_26  and  C_28
REMARK                            x       y       z     vdW  Elec       q    Type
REMARK                         _______ _______ _______ _____ _____    ______ ____
ROOT
ATOM      1  C   UNL     1       2.145   7.601  19.237  0.00  0.00    +0.000 A 
ATOM      2  C   UNL     1       1.809   7.624  20.590  0.00  0.00    +0.000 A 
ATOM      3  C   UNL     1       1.129   8.715  21.133  0.00  0.00    +0.000 A 
ATOM      4  C   UNL     1       0.816   9.838  20.354  0.00  0.00    +0.000 A 
ATOM      5  C   UNL     1       1.204   9.886  18.993  0.00  0.00    +0.000 A 
ATOM      6  C   UNL     1       1.852   8.741  18.460  0.00  0.00    +0.000 A 
ENDROOT
BRANCH   1  11
ATOM      7  C   UNL     1       5.011   4.688  16.246  0.00  0.00    +0.000 C 
ATOM      8  C   UNL     1       4.039   5.122  17.299  0.00  0.00    +0.000 A 
ATOM      9  C   UNL     1       3.283   4.289  18.150  0.00  0.00    +0.000 A 
ATOM     10  C   UNL     1       2.574   5.103  19.024  0.00  0.00    +0.000 A 
ATOM     11  N   UNL     1       2.785   6.445  18.661  0.00  0.00    +0.000 N 
ATOM     12  C   UNL     1       3.722   6.436  17.618  0.00  0.00    +0.000 A 
ATOM     13  C   UNL     1       4.356   7.635  16.985  0.00  0.00    +0.000 C 
ATOM     14  C   UNL     1       1.622   4.558  20.066  0.00  0.00    +0.000 C 
ATOM     15  C   UNL     1       1.902   3.052  20.371  0.00  0.00    +0.000 C 
ATOM     16  C   UNL     1       0.712   2.453  21.145  0.00  0.00    +0.000 C 
ATOM     17  C   UNL     1       3.160   2.899  21.257  0.00  0.00    +0.000 C 
ATOM     18  C   UNL     1       2.077   2.261  19.059  0.00  0.00    +0.000 C 
ATOM     19  C   UNL     1       3.189   2.828  18.200  0.00  0.00    +0.000 C 
ATOM     20  O   UNL     1       3.912   2.083  17.540  0.00  0.00    +0.000 OA
ENDBRANCH   1  11
BRANCH   4  21
ATOM     21  C   UNL     1       0.015  10.890  21.053  0.00  0.00    +0.000 C 
ATOM     22  N   UNL     1      -1.273  11.073  20.643  0.00  0.00    +0.000 N 
ATOM     23  O   UNL     1       0.466  11.526  22.000  0.00  0.00    +0.000 OA
ATOM     24  H   UNL     1      -1.621  10.589  19.824  0.00  0.00    +0.000 HD
ATOM     25  H   UNL     1      -1.855  11.736  21.138  0.00  0.00    +0.000 HD
ENDBRANCH   4  21
BRANCH   5  26
ATOM     26  N   UNL     1       1.044  11.084  18.247  0.00  0.00    +0.000 N 
ATOM     27  H   UNL     1       0.047  11.171  18.021  0.00  0.00    +0.000 HD
BRANCH  26  28
ATOM     28  C   UNL     1       1.592  12.354  18.743  0.00  0.00    +0.000 C 
ATOM     29  C   UNL     1       2.867  12.688  17.955  0.00  0.00    +0.000 C 
ATOM     30  C   UNL     1       3.457  14.018  18.396  0.00  0.00    +0.000 C 
ATOM     31  C   UNL     1       2.446  15.147  18.220  0.00  0.00    +0.000 C 
ATOM     32  C   UNL     1       1.138  14.847  18.952  0.00  0.00    +0.000 C 
ATOM     33  C   UNL     1       0.559  13.485  18.560  0.00  0.00    +0.000 C 
BRANCH  31  34
ATOM     34  O   UNL     1       3.002  16.363  18.704  0.00  0.00    +0.000 OA
ATOM     35  H   UNL     1       2.469  17.103  18.369  0.00  0.00    +0.000 HD
ENDBRANCH  31  34
ENDBRANCH  26  28
ENDBRANCH   5  26
TORSDOF 5
ENDMDL
MODEL 8
REMARK VINA RESULT:      -7.3      7.767      9.506
REMARK  Name = 
REMARK  9 active torsions:
REMARK  status: ('A' for Active; 'I' for Inactive)
REMARK    1  A    between atoms: C_1  and  C_2
REMARK    2  A    between atoms: N_5  and  C_6
REMARK    3  A    between atoms: C_9  and  C_10
REMARK    4  A    between atoms: C_13  and  N_14
REMARK    5  A    between atoms: N_14  and  C_15
REMARK    6  A    between atoms: C_18  and  O_19
REMARK    7  A    between atoms: C_23  and  C_24
REMARK    8  A    between atoms: C_26  and  C_27
REMARK    9  A    between atoms: C_26  and  C_28
REMARK                            x       y       z     vdW  Elec       q    Type
REMARK                         _______ _______ _______ _____ _____    ______ ____
ROOT
ATOM      1  C   UNL     1       7.178  15.348  19.736  0.00  0.00    +0.000 A 
ATOM      2  C   UNL     1       7.184  15.268  21.127  0.00  0.00    +0.000 A 
ATOM      3  C   UNL     1       5.993  15.360  21.848  0.00  0.00    +0.000 A 
ATOM      4  C   UNL     1       4.769  15.592  21.204  0.00  0.00    +0.000 A 
ATOM      5  C   UNL     1       4.730  15.753  19.797  0.00  0.00    +0.000 A 
ATOM      6  C   UNL     1       5.951  15.606  19.090  0.00  0.00    +0.000 A 
ENDROOT
BRANCH   1  11
ATOM      7  C   UNL     1      11.189  16.339  16.806  0.00  0.00    +0.000 C 
ATOM      8  C   UNL     1      10.184  15.607  17.640  0.00  0.00    +0.000 A 
ATOM      9  C   UNL     1      10.153  14.223  17.910  0.00  0.00    +0.000 A 
ATOM     10  C   UNL     1       9.104  13.982  18.787  0.00  0.00    +0.000 A 
ATOM     11  N   UNL     1       8.400  15.183  18.987  0.00  0.00    +0.000 N 
ATOM     12  C   UNL     1       9.105  16.181  18.301  0.00  0.00    +0.000 A 
ATOM     13  C   UNL     1       8.813  17.648  18.322  0.00  0.00    +0.000 C 
ATOM     14  C   UNL     1       8.741  12.597  19.275  0.00  0.00    +0.000 C 
ATOM     15  C   UNL     1       9.926  11.595  19.099  0.00  0.00    +0.000 C 
ATOM     16  C   UNL     1       9.410  10.153  19.264  0.00  0.00    +0.000 C 
ATOM     17  C   UNL     1      11.006  11.830  20.179  0.00  0.00    +0.000 C 
ATOM     18  C   UNL     1      10.542  11.734  17.693  0.00  0.00    +0.000 C 
ATOM     19  C   UNL     1      11.017  13.147  17.419  0.00  0.00    +0.000 C 
ATOM     20  O   UNL     1      12.037  13.347  16.761  0.00  0.00    +0.000 OA
ENDBRANCH   1  11
BRANCH   4  21
ATOM     21  C   UNL     1       3.571  15.584  22.099  0.00  0.00    +0.000 C 
ATOM     22  N   UNL     1       3.169  16.780  22.618  0.00  0.00    +0.000 N 
ATOM     23  O   UNL     1       2.929  14.562  22.313  0.00  0.00    +0.000 OA
ATOM     24  H   UNL     1       3.736  17.610  22.486  0.00  0.00    +0.000 HD
ATOM     25  H   UNL     1       2.327  16.812  23.178  0.00  0.00    +0.000 HD
ENDBRANCH   4  21
BRANCH   5  26
ATOM     26  N   UNL     1       3.527  16.157  19.159  0.00  0.00    +0.000 N 
ATOM     27  H   UNL     1       3.769  16.899  18.494  0.00  0.00    +0.000 HD
BRANCH  26  28
ATOM     28  C   UNL     1       2.633  15.163  18.548  0.00  0.00    +0.000 C 
ATOM     29  C   UNL     1       3.242  13.766  18.731  0.00  0.00    +0.000 C 
ATOM     30  C   UNL     1       2.337  12.688  18.155  0.00  0.00    +0.000 C 
ATOM     31  C   UNL     1       0.961  12.726  18.811  0.00  0.00    +0.000 C 
ATOM     32  C   UNL     1       0.323  14.110  18.695  0.00  0.00    +0.000 C 
ATOM     33  C   UNL     1       1.245  15.215  19.220  0.00  0.00    +0.000 C 
BRANCH  31  34
ATOM     34  O   UNL     1       0.118  11.754  18.206  0.00  0.00    +0.000 OA
ATOM     35  H   UNL     1      -0.775  12.126  18.122  0.00  0.00    +0.000 HD
ENDBRANCH  31  34
ENDBRANCH  26  28
ENDBRANCH   5  26
TORSDOF 5
ENDMDL
MODEL 9
REMARK VINA RESULT:      -7.3      3.493      9.422
REMARK  Name = 
REMARK  9 active torsions:
REMARK  status: ('A' for Active; 'I' for Inactive)
REMARK    1  A    between atoms: C_1  and  C_2
REMARK    2  A    between atoms: N_5  and  C_6
REMARK    3  A    between atoms: C_9  and  C_10
REMARK    4  A    between atoms: C_13  and  N_14
REMARK    5  A    between atoms: N_14  and  C_15
REMARK    6  A    between atoms: C_18  and  O_19
REMARK    7  A    between atoms: C_23  and  C_24
REMARK    8  A    between atoms: C_26  and  C_27
REMARK    9  A    between atoms: C_26  and  C_28
REMARK                            x       y       z     vdW  Elec       q    Type
REMARK                         _______ _______ _______ _____ _____    ______ ____
ROOT
ATOM      1  C   UNL     1      -1.979  12.713  19.990  0.00  0.00    +0.000 A 
ATOM      2  C   UNL     1      -1.450  13.844  19.373  0.00  0.00    +0.000 A 
ATOM      3  C   UNL     1      -0.113  13.876  18.974  0.00  0.00    +0.000 A 
ATOM      4  C   UNL     1       0.748  12.801  19.233  0.00  0.00    +0.000 A 
ATOM      5  C   UNL     1       0.269  11.661  19.924  0.00  0.00    +0.000 A 
ATOM      6  C   UNL     1      -1.106  11.641  20.272  0.00  0.00    +0.000 A 
ENDROOT
BRANCH   1  11
ATOM      7  C   UNL     1      -6.977  11.957  19.687  0.00  0.00    +0.000 C 
ATOM      8  C   UNL     1      -5.628  12.354  20.200  0.00  0.00    +0.000 A 
ATOM      9  C   UNL     1      -5.340  12.977  21.433  0.00  0.00    +0.000 A 
ATOM     10  C   UNL     1      -3.960  13.092  21.540  0.00  0.00    +0.000 A 
ATOM     11  N   UNL     1      -3.377  12.653  20.338  0.00  0.00    +0.000 N 
ATOM     12  C   UNL     1      -4.421  12.166  19.540  0.00  0.00    +0.000 A 
ATOM     13  C   UNL     1      -4.280  11.478  18.218  0.00  0.00    +0.000 C 
ATOM     14  C   UNL     1      -3.279  13.747  22.722  0.00  0.00    +0.000 C 
ATOM     15  C   UNL     1      -4.220  13.809  23.967  0.00  0.00    +0.000 C 
ATOM     16  C   UNL     1      -3.634  14.783  25.007  0.00  0.00    +0.000 C 
ATOM     17  C   UNL     1      -4.331  12.421  24.639  0.00  0.00    +0.000 C 
ATOM     18  C   UNL     1      -5.618  14.316  23.559  0.00  0.00    +0.000 C 
ATOM     19  C   UNL     1      -6.243  13.450  22.485  0.00  0.00    +0.000 C 
ATOM     20  O   UNL     1      -7.454  13.230  22.484  0.00  0.00    +0.000 OA
ENDBRANCH   1  11
BRANCH   4  21
ATOM     21  C   UNL     1       2.128  12.946  18.675  0.00  0.00    +0.000 C 
ATOM     22  N   UNL     1       2.296  12.700  17.344  0.00  0.00    +0.000 N 
ATOM     23  O   UNL     1       3.068  13.332  19.362  0.00  0.00    +0.000 OA
ATOM     24  H   UNL     1       1.531  12.325  16.794  0.00  0.00    +0.000 HD
ATOM     25  H   UNL     1       3.206  12.849  16.929  0.00  0.00    +0.000 HD
ENDBRANCH   4  21
BRANCH   5  26
ATOM     26  N   UNL     1       1.173  10.646  20.339  0.00  0.00    +0.000 N 
ATOM     27  H   UNL     1       1.114  10.587  21.361  0.00  0.00    +0.000 HD
BRANCH  26  28
ATOM     28  C   UNL     1       1.135   9.312  19.723  0.00  0.00    +0.000 C 
ATOM     29  C   UNL     1       1.994   9.327  18.450  0.00  0.00    +0.000 C 
ATOM     30  C   UNL     1       2.029   7.957  17.791  0.00  0.00    +0.000 C 
ATOM     31  C   UNL     1       2.572   6.905  18.752  0.00  0.00    +0.000 C 
ATOM     32  C   UNL     1       1.778   6.875  20.058  0.00  0.00    +0.000 C 
ATOM     33  C   UNL     1       1.686   8.259  20.707  0.00  0.00    +0.000 C 
BRANCH  31  34
ATOM     34  O   UNL     1       2.529   5.627  18.132  0.00  0.00    +0.000 OA
ATOM     35  H   UNL     1       2.248   5.739  17.208  0.00  0.00    +0.000 HD
ENDBRANCH  31  34
ENDBRANCH  26  28
ENDBRANCH   5  26
TORSDOF 5
ENDMDL
