MODEL 1
REMARK VINA RESULT:      -6.8      0.000      0.000
REMARK  Name = 
REMARK  8 active torsions:
REMARK  status: ('A' for Active; 'I' for Inactive)
REMARK    1  A    between atoms: C_1  and  C_2
REMARK    2  A    between atoms: C_2  and  N_3
REMARK    3  A    between atoms: C_6  and  C_7
REMARK    4  A    between atoms: N_22  and  C_23
REMARK    5  A    between atoms: C_27  and  O_28
REMARK    6  A    between atoms: O_28  and  C_29
REMARK    7  A    between atoms: C_31  and  O_32
REMARK    8  A    between atoms: O_32  and  C_33
REMARK                            x       y       z     vdW  Elec       q    Type
REMARK                         _______ _______ _______ _____ _____    ______ ____
ROOT
ATOM      1  N   UNL     1      -0.902  11.077  18.919  0.00  0.00    +0.000 N 
ATOM      2  C   UNL     1      -2.051  11.070  18.083  0.00  0.00    +0.000 A 
ATOM      3  C   UNL     1      -2.056  10.437  16.821  0.00  0.00    +0.000 A 
ATOM      4  C   UNL     1      -3.151  10.472  15.943  0.00  0.00    +0.000 A 
ATOM      5  C   UNL     1      -3.103   9.724  14.642  0.00  0.00    +0.000 C 
ATOM      6  C   UNL     1      -4.288  11.181  16.313  0.00  0.00    +0.000 A 
ATOM      7  C   UNL     1      -4.352  11.775  17.574  0.00  0.00    +0.000 A 
ATOM      8  C   UNL     1      -3.262  11.681  18.461  0.00  0.00    +0.000 A 
ATOM      9  N   UNL     1      -3.357  12.188  19.779  0.00  0.00    +0.000 N 
ATOM     10  C   UNL     1      -4.367  12.954  20.320  0.00  0.00    +0.000 A 
ATOM     11  C   UNL     1      -4.036  13.253  21.622  0.00  0.00    +0.000 A 
ATOM     12  C   UNL     1      -2.770  12.669  21.889  0.00  0.00    +0.000 A 
ATOM     13  C   UNL     1      -2.304  12.150  20.689  0.00  0.00    +0.000 A 
ATOM     14  C   UNL     1      -0.897  12.038  20.084  0.00  0.00    +0.000 C 
ATOM     15  C   UNL     1      -0.716  13.455  19.532  0.00  0.00    +0.000 C 
ATOM     16  C   UNL     1       0.272  14.318  20.227  0.00  0.00    +0.000 C 
ATOM     17  N   UNL     1       1.541  13.859  20.661  0.00  0.00    +0.000 N 
ATOM     18  C   UNL     1       2.412  14.934  20.693  0.00  0.00    +0.000 C 
ATOM     19  O   UNL     1       1.966  16.083  20.556  0.00  0.00    +0.000 OA
ATOM     20  N   UNL     1       3.751  14.727  20.750  0.00  0.00    +0.000 N 
ATOM     21  C   UNL     1       1.655  12.424  20.968  0.00  0.00    +0.000 C 
ATOM     22  C   UNL     1       0.248  11.681  21.121  0.00  0.00    +0.000 C 
ATOM     23  H   UNL     1       4.048  13.907  21.242  0.00  0.00    +0.000 HD
ENDROOT
BRANCH  20  24
ATOM     24  C   UNL     1       4.745  15.704  20.440  0.00  0.00    +0.000 A 
ATOM     25  C   UNL     1       5.376  16.549  21.399  0.00  0.00    +0.000 A 
ATOM     26  C   UNL     1       6.366  17.447  21.029  0.00  0.00    +0.000 A 
ATOM     27 CL   UNL     1       7.133  18.378  22.283  0.00  0.00    +0.000 Cl
ATOM     28  C   UNL     1       6.777  17.569  19.709  0.00  0.00    +0.000 A 
ATOM     29  C   UNL     1       6.144  16.770  18.743  0.00  0.00    +0.000 A 
ATOM     30  C   UNL     1       5.137  15.856  19.104  0.00  0.00    +0.000 A 
BRANCH  28  31
ATOM     31  O   UNL     1       7.788  18.447  19.423  0.00  0.00    +0.000 OA
ATOM     32  C   UNL     1       8.776  18.008  18.499  0.00  0.00    +0.000 C 
ENDBRANCH  28  31
BRANCH  30  33
ATOM     33  O   UNL     1       4.638  15.066  18.093  0.00  0.00    +0.000 OA
ATOM     34  C   UNL     1       3.658  15.729  17.291  0.00  0.00    +0.000 C 
ENDBRANCH  30  33
ENDBRANCH  20  24
BRANCH   1  36
ATOM     35  C   UNL     1       0.870   9.411  18.653  0.00  0.00    +0.000 C 
ATOM     36  C   UNL     1       0.375  10.786  18.246  0.00  0.00    +0.000 C 
ENDBRANCH   1  36
TORSDOF 4
ENDMDL
MODEL 2
REMARK VINA RESULT:      -6.6      4.992      8.754
REMARK  Name = 
REMARK  8 active torsions:
REMARK  status: ('A' for Active; 'I' for Inactive)
REMARK    1  A    between atoms: C_1  and  C_2
REMARK    2  A    between atoms: C_2  and  N_3
REMARK    3  A    between atoms: C_6  and  C_7
REMARK    4  A    between atoms: N_22  and  C_23
REMARK    5  A    between atoms: C_27  and  O_28
REMARK    6  A    between atoms: O_28  and  C_29
REMARK    7  A    between atoms: C_31  and  O_32
REMARK    8  A    between atoms: O_32  and  C_33
REMARK                            x       y       z     vdW  Elec       q    Type
REMARK                         _______ _______ _______ _____ _____    ______ ____
ROOT
ATOM      1  N   UNL     1       1.318  13.878  19.957  0.00  0.00    +0.000 N 
ATOM      2  C   UNL     1       1.428  14.870  20.970  0.00  0.00    +0.000 A 
ATOM      3  C   UNL     1       2.551  15.719  21.069  0.00  0.00    +0.000 A 
ATOM      4  C   UNL     1       2.721  16.660  22.096  0.00  0.00    +0.000 A 
ATOM      5  C   UNL     1       3.916  17.570  22.102  0.00  0.00    +0.000 C 
ATOM      6  C   UNL     1       1.750  16.757  23.087  0.00  0.00    +0.000 A 
ATOM      7  C   UNL     1       0.595  15.980  23.000  0.00  0.00    +0.000 A 
ATOM      8  C   UNL     1       0.420  15.081  21.930  0.00  0.00    +0.000 A 
ATOM      9  N   UNL     1      -0.793  14.367  21.776  0.00  0.00    +0.000 N 
ATOM     10  C   UNL     1      -1.847  14.291  22.660  0.00  0.00    +0.000 A 
ATOM     11  C   UNL     1      -2.805  13.461  22.123  0.00  0.00    +0.000 A 
ATOM     12  C   UNL     1      -2.318  12.994  20.874  0.00  0.00    +0.000 A 
ATOM     13  C   UNL     1      -1.011  13.445  20.757  0.00  0.00    +0.000 A 
ATOM     14  C   UNL     1       0.247  12.827  20.128  0.00  0.00    +0.000 C 
ATOM     15  C   UNL     1       0.684  11.880  21.250  0.00  0.00    +0.000 C 
ATOM     16  C   UNL     1       0.534  10.427  20.990  0.00  0.00    +0.000 C 
ATOM     17  N   UNL     1       0.870   9.816  19.755  0.00  0.00    +0.000 N 
ATOM     18  C   UNL     1       1.202   8.494  19.992  0.00  0.00    +0.000 C 
ATOM     19  O   UNL     1       0.984   8.002  21.110  0.00  0.00    +0.000 OA
ATOM     20  N   UNL     1       1.872   7.778  19.055  0.00  0.00    +0.000 N 
ATOM     21  C   UNL     1       0.796  10.667  18.556  0.00  0.00    +0.000 C 
ATOM     22  C   UNL     1      -0.003  12.033  18.779  0.00  0.00    +0.000 C 
ATOM     23  H   UNL     1       1.682   8.019  18.101  0.00  0.00    +0.000 HD
ENDROOT
BRANCH  20  24
ATOM     24  C   UNL     1       2.567   6.556  19.299  0.00  0.00    +0.000 A 
ATOM     25  C   UNL     1       2.182   5.587  20.271  0.00  0.00    +0.000 A 
ATOM     26  C   UNL     1       2.884   4.400  20.423  0.00  0.00    +0.000 A 
ATOM     27 CL   UNL     1       2.290   3.244  21.581  0.00  0.00    +0.000 Cl
ATOM     28  C   UNL     1       3.995   4.109  19.645  0.00  0.00    +0.000 A 
ATOM     29  C   UNL     1       4.411   5.066  18.704  0.00  0.00    +0.000 A 
ATOM     30  C   UNL     1       3.710   6.275  18.541  0.00  0.00    +0.000 A 
BRANCH  28  31
ATOM     31  O   UNL     1       4.614   2.901  19.821  0.00  0.00    +0.000 OA
ATOM     32  C   UNL     1       4.133   1.815  19.041  0.00  0.00    +0.000 C 
ENDBRANCH  28  31
BRANCH  30  33
ATOM     33  O   UNL     1       4.154   7.108  17.538  0.00  0.00    +0.000 OA
ATOM     34  C   UNL     1       5.044   6.465  16.623  0.00  0.00    +0.000 C 
ENDBRANCH  30  33
ENDBRANCH  20  24
BRANCH   1  36
ATOM     35  C   UNL     1       2.728  14.223  17.988  0.00  0.00    +0.000 C 
ATOM     36  C   UNL     1       2.582  13.491  19.308  0.00  0.00    +0.000 C 
ENDBRANCH   1  36
TORSDOF 4
ENDMDL
MODEL 3
REMARK VINA RESULT:      -6.5      4.749      8.162
REMARK  Name = 
REMARK  8 active torsions:
REMARK  status: ('A' for Active; 'I' for Inactive)
REMARK    1  A    between atoms: C_1  and  C_2
REMARK    2  A    between atoms: C_2  and  N_3
REMARK    3  A    between atoms: C_6  and  C_7
REMARK    4  A    between atoms: N_22  and  C_23
REMARK    5  A    between atoms: C_27  and  O_28
REMARK    6  A    between atoms: O_28  and  C_29
REMARK    7  A    between atoms: C_31  and  O_32
REMARK    8  A    between atoms: O_32  and  C_33
REMARK                            x       y       z     vdW  Elec       q    Type
REMARK                         _______ _______ _______ _____ _____    ______ ____
ROOT
ATOM      1  N   UNL     1      -0.051  13.619  19.472  0.00  0.00    +0.000 N 
ATOM      2  C   UNL     1       0.195  14.693  20.371  0.00  0.00    +0.000 A 
ATOM      3  C   UNL     1       0.878  15.862  19.973  0.00  0.00    +0.000 A 
ATOM      4  C   UNL     1       1.198  16.908  20.852  0.00  0.00    +0.000 A 
ATOM      5  C   UNL     1       1.875  18.147  20.342  0.00  0.00    +0.000 C 
ATOM      6  C   UNL     1       0.849  16.790  22.193  0.00  0.00    +0.000 A 
ATOM      7  C   UNL     1       0.121  15.680  22.623  0.00  0.00    +0.000 A 
ATOM      8  C   UNL     1      -0.236  14.667  21.711  0.00  0.00    +0.000 A 
ATOM      9  N   UNL     1      -1.063  13.591  22.114  0.00  0.00    +0.000 N 
ATOM     10  C   UNL     1      -1.475  13.272  23.390  0.00  0.00    +0.000 A 
ATOM     11  C   UNL     1      -2.239  12.129  23.328  0.00  0.00    +0.000 A 
ATOM     12  C   UNL     1      -2.285  11.717  21.970  0.00  0.00    +0.000 A 
ATOM     13  C   UNL     1      -1.424  12.548  21.267  0.00  0.00    +0.000 A 
ATOM     14  C   UNL     1      -0.497  12.304  20.067  0.00  0.00    +0.000 C 
ATOM     15  C   UNL     1       0.706  11.667  20.769  0.00  0.00    +0.000 C 
ATOM     16  C   UNL     1       0.938  10.224  20.514  0.00  0.00    +0.000 C 
ATOM     17  N   UNL     1       0.823   9.629  19.232  0.00  0.00    +0.000 N 
ATOM     18  C   UNL     1       1.641   8.514  19.187  0.00  0.00    +0.000 C 
ATOM     19  O   UNL     1       2.159   8.096  20.233  0.00  0.00    +0.000 OA
ATOM     20  N   UNL     1       1.974   7.959  17.995  0.00  0.00    +0.000 N 
ATOM     21  C   UNL     1      -0.090  10.283  18.280  0.00  0.00    +0.000 C 
ATOM     22  C   UNL     1      -1.083  11.337  18.956  0.00  0.00    +0.000 C 
ATOM     23  H   UNL     1       1.285   8.027  17.271  0.00  0.00    +0.000 HD
ENDROOT
BRANCH  20  24
ATOM     24  C   UNL     1       3.059   7.055  17.787  0.00  0.00    +0.000 A 
ATOM     25  C   UNL     1       4.418   7.450  17.612  0.00  0.00    +0.000 A 
ATOM     26  C   UNL     1       5.428   6.511  17.457  0.00  0.00    +0.000 A 
ATOM     27 CL   UNL     1       7.065   7.087  17.330  0.00  0.00    +0.000 Cl
ATOM     28  C   UNL     1       5.158   5.149  17.455  0.00  0.00    +0.000 A 
ATOM     29  C   UNL     1       3.821   4.741  17.593  0.00  0.00    +0.000 A 
ATOM     30  C   UNL     1       2.787   5.682  17.749  0.00  0.00    +0.000 A 
BRANCH  28  31
ATOM     31  O   UNL     1       6.208   4.279  17.338  0.00  0.00    +0.000 OA
ATOM     32  C   UNL     1       6.674   4.012  16.021  0.00  0.00    +0.000 C 
ENDBRANCH  28  31
BRANCH  30  33
ATOM     33  O   UNL     1       1.524   5.174  17.955  0.00  0.00    +0.000 OA
ATOM     34  C   UNL     1       1.515   3.765  18.195  0.00  0.00    +0.000 C 
ENDBRANCH  30  33
ENDBRANCH  20  24
BRANCH   1  36
ATOM     35  C   UNL     1       2.222  13.248  18.650  0.00  0.00    +0.000 C 
ATOM     36  C   UNL     1       0.795  13.592  18.268  0.00  0.00    +0.000 C 
ENDBRANCH   1  36
TORSDOF 4
ENDMDL
MODEL 4
REMARK VINA RESULT:      -6.4      1.670      2.591
REMARK  Name = 
REMARK  8 active torsions:
REMARK  status: ('A' for Active; 'I' for Inactive)
REMARK    1  A    between atoms: C_1  and  C_2
REMARK    2  A    between atoms: C_2  and  N_3
REMARK    3  A    between atoms: C_6  and  C_7
REMARK    4  A    between atoms: N_22  and  C_23
REMARK    5  A    between atoms: C_27  and  O_28
REMARK    6  A    between atoms: O_28  and  C_29
REMARK    7  A    between atoms: C_31  and  O_32
REMARK    8  A    between atoms: O_32  and  C_33
REMARK                            x       y       z     vdW  Elec       q    Type
REMARK                         _______ _______ _______ _____ _____    ______ ____
ROOT
ATOM      1  N   UNL     1      -2.954  12.046  19.941  0.00  0.00    +0.000 N 
ATOM      2  C   UNL     1      -4.291  12.511  19.817  0.00  0.00    +0.000 A 
ATOM      3  C   UNL     1      -4.963  12.538  18.576  0.00  0.00    +0.000 A 
ATOM      4  C   UNL     1      -6.257  13.055  18.408  0.00  0.00    +0.000 A 
ATOM      5  C   UNL     1      -6.930  12.995  17.067  0.00  0.00    +0.000 C 
ATOM      6  C   UNL     1      -6.915  13.592  19.509  0.00  0.00    +0.000 A 
ATOM      7  C   UNL     1      -6.315  13.536  20.767  0.00  0.00    +0.000 A 
ATOM      8  C   UNL     1      -5.037  12.963  20.922  0.00  0.00    +0.000 A 
ATOM      9  N   UNL     1      -4.466  12.806  22.208  0.00  0.00    +0.000 N 
ATOM     10  C   UNL     1      -4.931  13.304  23.406  0.00  0.00    +0.000 A 
ATOM     11  C   UNL     1      -4.050  12.940  24.399  0.00  0.00    +0.000 A 
ATOM     12  C   UNL     1      -2.996  12.209  23.791  0.00  0.00    +0.000 A 
ATOM     13  C   UNL     1      -3.198  12.274  22.419  0.00  0.00    +0.000 A 
ATOM     14  C   UNL     1      -2.229  12.353  21.230  0.00  0.00    +0.000 C 
ATOM     15  C   UNL     1      -1.893  13.847  21.243  0.00  0.00    +0.000 C 
ATOM     16  C   UNL     1      -0.516  14.216  21.656  0.00  0.00    +0.000 C 
ATOM     17  N   UNL     1       0.641  13.517  21.227  0.00  0.00    +0.000 N 
ATOM     18  C   UNL     1       1.716  14.388  21.248  0.00  0.00    +0.000 C 
ATOM     19  O   UNL     1       1.590  15.499  21.785  0.00  0.00    +0.000 OA
ATOM     20  N   UNL     1       2.857  14.082  20.582  0.00  0.00    +0.000 N 
ATOM     21  C   UNL     1       0.463  12.100  20.874  0.00  0.00    +0.000 C 
ATOM     22  C   UNL     1      -0.918  11.475  21.379  0.00  0.00    +0.000 C 
ATOM     23  H   UNL     1       3.083  13.108  20.522  0.00  0.00    +0.000 HD
ENDROOT
BRANCH  20  24
ATOM     24  C   UNL     1       3.879  15.017  20.236  0.00  0.00    +0.000 A 
ATOM     25  C   UNL     1       5.051  15.258  21.011  0.00  0.00    +0.000 A 
ATOM     26  C   UNL     1       6.024  16.152  20.589  0.00  0.00    +0.000 A 
ATOM     27 CL   UNL     1       7.455  16.320  21.564  0.00  0.00    +0.000 Cl
ATOM     28  C   UNL     1       5.895  16.857  19.401  0.00  0.00    +0.000 A 
ATOM     29  C   UNL     1       4.731  16.658  18.638  0.00  0.00    +0.000 A 
ATOM     30  C   UNL     1       3.736  15.756  19.055  0.00  0.00    +0.000 A 
BRANCH  28  31
ATOM     31  O   UNL     1       6.913  17.692  19.027  0.00  0.00    +0.000 OA
ATOM     32  C   UNL     1       7.970  17.115  18.272  0.00  0.00    +0.000 C 
ENDBRANCH  28  31
BRANCH  30  33
ATOM     33  O   UNL     1       2.675  15.577  18.196  0.00  0.00    +0.000 OA
ATOM     34  C   UNL     1       1.735  16.654  18.229  0.00  0.00    +0.000 C 
ENDBRANCH  30  33
ENDBRANCH  20  24
BRANCH   1  36
ATOM     35  C   UNL     1      -2.049  10.577  18.207  0.00  0.00    +0.000 C 
ATOM     36  C   UNL     1      -2.175  12.009  18.692  0.00  0.00    +0.000 C 
ENDBRANCH   1  36
TORSDOF 4
ENDMDL
MODEL 5
REMARK VINA RESULT:      -6.2      5.088      8.822
REMARK  Name = 
REMARK  8 active torsions:
REMARK  status: ('A' for Active; 'I' for Inactive)
REMARK    1  A    between atoms: C_1  and  C_2
REMARK    2  A    between atoms: C_2  and  N_3
REMARK    3  A    between atoms: C_6  and  C_7
REMARK    4  A    between atoms: N_22  and  C_23
REMARK    5  A    between atoms: C_27  and  O_28
REMARK    6  A    between atoms: O_28  and  C_29
REMARK    7  A    between atoms: C_31  and  O_32
REMARK    8  A    between atoms: O_32  and  C_33
REMARK                            x       y       z     vdW  Elec       q    Type
REMARK                         _______ _______ _______ _____ _____    ______ ____
ROOT
ATOM      1  N   UNL     1       1.160  13.423  19.705  0.00  0.00    +0.000 N 
ATOM      2  C   UNL     1       1.314  14.454  20.672  0.00  0.00    +0.000 A 
ATOM      3  C   UNL     1       2.351  15.409  20.591  0.00  0.00    +0.000 A 
ATOM      4  C   UNL     1       2.572  16.394  21.566  0.00  0.00    +0.000 A 
ATOM      5  C   UNL     1       3.659  17.413  21.381  0.00  0.00    +0.000 C 
ATOM      6  C   UNL     1       1.748  16.430  22.685  0.00  0.00    +0.000 A 
ATOM      7  C   UNL     1       0.674  15.544  22.782  0.00  0.00    +0.000 A 
ATOM      8  C   UNL     1       0.438  14.598  21.765  0.00  0.00    +0.000 A 
ATOM      9  N   UNL     1      -0.707  13.767  21.802  0.00  0.00    +0.000 N 
ATOM     10  C   UNL     1      -1.612  13.619  22.831  0.00  0.00    +0.000 A 
ATOM     11  C   UNL     1      -2.550  12.685  22.455  0.00  0.00    +0.000 A 
ATOM     12  C   UNL     1      -2.203  12.227  21.157  0.00  0.00    +0.000 A 
ATOM     13  C   UNL     1      -0.977  12.796  20.843  0.00  0.00    +0.000 A 
ATOM     14  C   UNL     1       0.233  12.281  20.049  0.00  0.00    +0.000 C 
ATOM     15  C   UNL     1       0.918  11.417  21.112  0.00  0.00    +0.000 C 
ATOM     16  C   UNL     1       0.877   9.948  20.903  0.00  0.00    +0.000 C 
ATOM     17  N   UNL     1       1.091   9.333  19.644  0.00  0.00    +0.000 N 
ATOM     18  C   UNL     1       1.583   8.056  19.854  0.00  0.00    +0.000 C 
ATOM     19  O   UNL     1       1.577   7.583  21.000  0.00  0.00    +0.000 OA
ATOM     20  N   UNL     1       2.179   7.379  18.842  0.00  0.00    +0.000 N 
ATOM     21  C   UNL     1       0.763  10.133  18.453  0.00  0.00    +0.000 C 
ATOM     22  C   UNL     1      -0.127  11.423  18.765  0.00  0.00    +0.000 C 
ATOM     23  H   UNL     1       1.832   7.569  17.922  0.00  0.00    +0.000 HD
ENDROOT
BRANCH  20  24
ATOM     24  C   UNL     1       3.020   6.237  19.005  0.00  0.00    +0.000 A 
ATOM     25  C   UNL     1       4.444   6.266  18.946  0.00  0.00    +0.000 A 
ATOM     26  C   UNL     1       5.199   5.120  19.156  0.00  0.00    +0.000 A 
ATOM     27 CL   UNL     1       6.932   5.272  19.143  0.00  0.00    +0.000 Cl
ATOM     28  C   UNL     1       4.600   3.897  19.422  0.00  0.00    +0.000 A 
ATOM     29  C   UNL     1       3.197   3.840  19.451  0.00  0.00    +0.000 A 
ATOM     30  C   UNL     1       2.420   4.993  19.237  0.00  0.00    +0.000 A 
BRANCH  28  31
ATOM     31  O   UNL     1       5.408   2.817  19.659  0.00  0.00    +0.000 OA
ATOM     32  C   UNL     1       4.855   1.762  20.434  0.00  0.00    +0.000 C 
ENDBRANCH  28  31
BRANCH  30  33
ATOM     33  O   UNL     1       1.057   4.844  19.366  0.00  0.00    +0.000 OA
ATOM     34  C   UNL     1       0.687   3.794  20.262  0.00  0.00    +0.000 C 
ENDBRANCH  30  33
ENDBRANCH  20  24
BRANCH   1  36
ATOM     35  C   UNL     1       2.351  14.022  17.654  0.00  0.00    +0.000 C 
ATOM     36  C   UNL     1       2.349  13.138  18.886  0.00  0.00    +0.000 C 
ENDBRANCH   1  36
TORSDOF 4
ENDMDL
MODEL 6
REMARK VINA RESULT:      -6.2      8.412     12.119
REMARK  Name = 
REMARK  8 active torsions:
REMARK  status: ('A' for Active; 'I' for Inactive)
REMARK    1  A    between atoms: C_1  and  C_2
REMARK    2  A    between atoms: C_2  and  N_3
REMARK    3  A    between atoms: C_6  and  C_7
REMARK    4  A    between atoms: N_22  and  C_23
REMARK    5  A    between atoms: C_27  and  O_28
REMARK    6  A    between atoms: O_28  and  C_29
REMARK    7  A    between atoms: C_31  and  O_32
REMARK    8  A    between atoms: O_32  and  C_33
REMARK                            x       y       z     vdW  Elec       q    Type
REMARK                         _______ _______ _______ _____ _____    ______ ____
ROOT
ATOM      1  N   UNL     1       9.023  13.712  20.621  0.00  0.00    +0.000 N 
ATOM      2  C   UNL     1       8.608  15.040  20.329  0.00  0.00    +0.000 A 
ATOM      3  C   UNL     1       7.650  15.716  21.115  0.00  0.00    +0.000 A 
ATOM      4  C   UNL     1       7.168  16.999  20.813  0.00  0.00    +0.000 A 
ATOM      5  C   UNL     1       6.192  17.677  21.730  0.00  0.00    +0.000 C 
ATOM      6  C   UNL     1       7.634  17.641  19.672  0.00  0.00    +0.000 A 
ATOM      7  C   UNL     1       8.624  17.038  18.895  0.00  0.00    +0.000 A 
ATOM      8  C   UNL     1       9.133  15.773  19.247  0.00  0.00    +0.000 A 
ATOM      9  N   UNL     1      10.210  15.201  18.528  0.00  0.00    +0.000 N 
ATOM     10  C   UNL     1      10.777  15.650  17.355  0.00  0.00    +0.000 A 
ATOM     11  C   UNL     1      11.773  14.774  16.990  0.00  0.00    +0.000 A 
ATOM     12  C   UNL     1      11.810  13.738  17.960  0.00  0.00    +0.000 A 
ATOM     13  C   UNL     1      10.733  13.943  18.811  0.00  0.00    +0.000 A 
ATOM     14  C   UNL     1       9.799  12.976  19.553  0.00  0.00    +0.000 C 
ATOM     15  C   UNL     1       8.827  12.609  18.428  0.00  0.00    +0.000 C 
ATOM     16  C   UNL     1       8.910  11.223  17.903  0.00  0.00    +0.000 C 
ATOM     17  N   UNL     1       9.061  10.083  18.733  0.00  0.00    +0.000 N 
ATOM     18  C   UNL     1       8.516   8.989  18.083  0.00  0.00    +0.000 C 
ATOM     19  O   UNL     1       8.186   9.090  16.892  0.00  0.00    +0.000 OA
ATOM     20  N   UNL     1       8.229   7.857  18.773  0.00  0.00    +0.000 N 
ATOM     21  C   UNL     1       9.728  10.291  20.028  0.00  0.00    +0.000 C 
ATOM     22  C   UNL     1      10.504  11.684  20.140  0.00  0.00    +0.000 C 
ATOM     23  H   UNL     1       8.829   7.653  19.549  0.00  0.00    +0.000 HD
ENDROOT
BRANCH  20  24
ATOM     24  C   UNL     1       7.364   6.817  18.318  0.00  0.00    +0.000 A 
ATOM     25  C   UNL     1       6.762   6.773  17.026  0.00  0.00    +0.000 A 
ATOM     26  C   UNL     1       5.965   5.706  16.638  0.00  0.00    +0.000 A 
ATOM     27 CL   UNL     1       5.339   5.704  15.014  0.00  0.00    +0.000 Cl
ATOM     28  C   UNL     1       5.712   4.642  17.492  0.00  0.00    +0.000 A 
ATOM     29  C   UNL     1       6.269   4.682  18.781  0.00  0.00    +0.000 A 
ATOM     30  C   UNL     1       7.077   5.759  19.188  0.00  0.00    +0.000 A 
BRANCH  28  31
ATOM     31  O   UNL     1       4.949   3.604  17.027  0.00  0.00    +0.000 OA
ATOM     32  C   UNL     1       3.624   3.506  17.533  0.00  0.00    +0.000 C 
ENDBRANCH  28  31
BRANCH  30  33
ATOM     33  O   UNL     1       7.637   5.662  20.442  0.00  0.00    +0.000 OA
ATOM     34  C   UNL     1       8.900   4.992  20.446  0.00  0.00    +0.000 C 
ENDBRANCH  30  33
ENDBRANCH  20  24
BRANCH   1  36
ATOM     35  C   UNL     1       8.728  12.788  22.866  0.00  0.00    +0.000 C 
ATOM     36  C   UNL     1       8.118  12.939  21.486  0.00  0.00    +0.000 C 
ENDBRANCH   1  36
TORSDOF 4
ENDMDL
MODEL 7
REMARK VINA RESULT:      -6.1      5.268      7.537
REMARK  Name = 
REMARK  8 active torsions:
REMARK  status: ('A' for Active; 'I' for Inactive)
REMARK    1  A    between atoms: C_1  and  C_2
REMARK    2  A    between atoms: C_2  and  N_3
REMARK    3  A    between atoms: C_6  and  C_7
REMARK    4  A    between atoms: N_22  and  C_23
REMARK    5  A    between atoms: C_27  and  O_28
REMARK    6  A    between atoms: O_28  and  C_29
REMARK    7  A    between atoms: C_31  and  O_32
REMARK    8  A    between atoms: O_32  and  C_33
REMARK                            x       y       z     vdW  Elec       q    Type
REMARK                         _______ _______ _______ _____ _____    ______ ____
ROOT
ATOM      1  N   UNL     1      -3.592  14.559  21.972  0.00  0.00    +0.000 N 
ATOM      2  C   UNL     1      -3.763  15.920  21.600  0.00  0.00    +0.000 A 
ATOM      3  C   UNL     1      -4.709  16.318  20.630  0.00  0.00    +0.000 A 
ATOM      4  C   UNL     1      -4.855  17.644  20.190  0.00  0.00    +0.000 A 
ATOM      5  C   UNL     1      -5.924  18.000  19.199  0.00  0.00    +0.000 C 
ATOM      6  C   UNL     1      -4.015  18.621  20.712  0.00  0.00    +0.000 A 
ATOM      7  C   UNL     1      -3.104  18.287  21.715  0.00  0.00    +0.000 A 
ATOM      8  C   UNL     1      -3.013  16.960  22.180  0.00  0.00    +0.000 A 
ATOM      9  N   UNL     1      -2.168  16.632  23.268  0.00  0.00    +0.000 N 
ATOM     10  C   UNL     1      -1.236  17.436  23.887  0.00  0.00    +0.000 A 
ATOM     11  C   UNL     1      -0.617  16.703  24.874  0.00  0.00    +0.000 A 
ATOM     12  C   UNL     1      -1.173  15.397  24.852  0.00  0.00    +0.000 A 
ATOM     13  C   UNL     1      -2.015  15.336  23.750  0.00  0.00    +0.000 A 
ATOM     14  C   UNL     1      -2.356  14.207  22.767  0.00  0.00    +0.000 C 
ATOM     15  C   UNL     1      -1.149  14.281  21.827  0.00  0.00    +0.000 C 
ATOM     16  C   UNL     1      -0.183  13.157  21.896  0.00  0.00    +0.000 C 
ATOM     17  N   UNL     1      -0.573  11.797  21.989  0.00  0.00    +0.000 N 
ATOM     18  C   UNL     1       0.426  11.012  21.441  0.00  0.00    +0.000 C 
ATOM     19  O   UNL     1       1.518  11.526  21.156  0.00  0.00    +0.000 OA
ATOM     20  N   UNL     1       0.174   9.723  21.103  0.00  0.00    +0.000 N 
ATOM     21  C   UNL     1      -1.878  11.526  22.615  0.00  0.00    +0.000 C 
ATOM     22  C   UNL     1      -2.481  12.768  23.420  0.00  0.00    +0.000 C 
ATOM     23  H   UNL     1      -0.500   9.244  21.669  0.00  0.00    +0.000 HD
ENDROOT
BRANCH  20  24
ATOM     24  C   UNL     1       0.981   8.932  20.230  0.00  0.00    +0.000 A 
ATOM     25  C   UNL     1       1.661   7.740  20.617  0.00  0.00    +0.000 A 
ATOM     26  C   UNL     1       2.394   6.999  19.701  0.00  0.00    +0.000 A 
ATOM     27 CL   UNL     1       3.123   5.517  20.248  0.00  0.00    +0.000 Cl
ATOM     28  C   UNL     1       2.505   7.390  18.374  0.00  0.00    +0.000 A 
ATOM     29  C   UNL     1       1.869   8.580  17.981  0.00  0.00    +0.000 A 
ATOM     30  C   UNL     1       1.125   9.342  18.900  0.00  0.00    +0.000 A 
BRANCH  28  31
ATOM     31  O   UNL     1       3.210   6.589  17.518  0.00  0.00    +0.000 OA
ATOM     32  C   UNL     1       4.538   6.993  17.209  0.00  0.00    +0.000 C 
ENDBRANCH  28  31
BRANCH  30  33
ATOM     33  O   UNL     1       0.478  10.447  18.394  0.00  0.00    +0.000 OA
ATOM     34  C   UNL     1      -0.807  10.146  17.843  0.00  0.00    +0.000 C 
ENDBRANCH  30  33
ENDBRANCH  20  24
BRANCH   1  36
ATOM     35  C   UNL     1      -5.393  12.956  21.560  0.00  0.00    +0.000 C 
ATOM     36  C   UNL     1      -4.116  13.568  21.017  0.00  0.00    +0.000 C 
ENDBRANCH   1  36
TORSDOF 4
ENDMDL
MODEL 8
REMARK VINA RESULT:      -6.1      4.801      7.904
REMARK  Name = 
REMARK  8 active torsions:
REMARK  status: ('A' for Active; 'I' for Inactive)
REMARK    1  A    between atoms: C_1  and  C_2
REMARK    2  A    between atoms: C_2  and  N_3
REMARK    3  A    between atoms: C_6  and  C_7
REMARK    4  A    between atoms: N_22  and  C_23
REMARK    5  A    between atoms: C_27  and  O_28
REMARK    6  A    between atoms: O_28  and  C_29
REMARK    7  A    between atoms: C_31  and  O_32
REMARK    8  A    between atoms: O_32  and  C_33
REMARK                            x       y       z     vdW  Elec       q    Type
REMARK                         _______ _______ _______ _____ _____    ______ ____
ROOT
ATOM      1  N   UNL     1      -0.813  13.862  19.477  0.00  0.00    +0.000 N 
ATOM      2  C   UNL     1      -0.546  15.102  20.118  0.00  0.00    +0.000 A 
ATOM      3  C   UNL     1       0.012  16.199  19.425  0.00  0.00    +0.000 A 
ATOM      4  C   UNL     1       0.352  17.412  20.043  0.00  0.00    +0.000 A 
ATOM      5  C   UNL     1       0.887  18.555  19.230  0.00  0.00    +0.000 C 
ATOM      6  C   UNL     1       0.154  17.547  21.413  0.00  0.00    +0.000 A 
ATOM      7  C   UNL     1      -0.448  16.512  22.130  0.00  0.00    +0.000 A 
ATOM      8  C   UNL     1      -0.831  15.324  21.478  0.00  0.00    +0.000 A 
ATOM      9  N   UNL     1      -1.537  14.313  22.173  0.00  0.00    +0.000 N 
ATOM     10  C   UNL     1      -1.790  14.236  23.526  0.00  0.00    +0.000 A 
ATOM     11  C   UNL     1      -2.478  13.070  23.774  0.00  0.00    +0.000 A 
ATOM     12  C   UNL     1      -2.639  12.395  22.536  0.00  0.00    +0.000 A 
ATOM     13  C   UNL     1      -1.915  13.107  21.590  0.00  0.00    +0.000 A 
ATOM     14  C   UNL     1      -1.104  12.672  20.360  0.00  0.00    +0.000 C 
ATOM     15  C   UNL     1       0.206  12.242  21.027  0.00  0.00    +0.000 C 
ATOM     16  C   UNL     1       0.505  10.789  21.029  0.00  0.00    +0.000 C 
ATOM     17  N   UNL     1       0.296   9.947  19.907  0.00  0.00    +0.000 N 
ATOM     18  C   UNL     1       1.178   8.883  19.983  0.00  0.00    +0.000 C 
ATOM     19  O   UNL     1       1.830   8.705  21.023  0.00  0.00    +0.000 OA
ATOM     20  N   UNL     1       1.420   8.118  18.890  0.00  0.00    +0.000 N 
ATOM     21  C   UNL     1      -0.753  10.358  18.961  0.00  0.00    +0.000 C 
ATOM     22  C   UNL     1      -1.738  11.479  19.532  0.00  0.00    +0.000 C 
ATOM     23  H   UNL     1       0.656   8.010  18.252  0.00  0.00    +0.000 HD
ENDROOT
BRANCH  20  24
ATOM     24  C   UNL     1       2.536   7.241  18.735  0.00  0.00    +0.000 A 
ATOM     25  C   UNL     1       3.606   7.448  17.816  0.00  0.00    +0.000 A 
ATOM     26  C   UNL     1       4.680   6.572  17.751  0.00  0.00    +0.000 A 
ATOM     27 CL   UNL     1       5.977   6.953  16.655  0.00  0.00    +0.000 Cl
ATOM     28  C   UNL     1       4.754   5.454  18.568  0.00  0.00    +0.000 A 
ATOM     29  C   UNL     1       3.693   5.213  19.457  0.00  0.00    +0.000 A 
ATOM     30  C   UNL     1       2.597   6.091  19.532  0.00  0.00    +0.000 A 
BRANCH  28  31
ATOM     31  O   UNL     1       5.863   4.656  18.478  0.00  0.00    +0.000 OA
ATOM     32  C   UNL     1       7.032   5.104  19.152  0.00  0.00    +0.000 C 
ENDBRANCH  28  31
BRANCH  30  33
ATOM     33  O   UNL     1       1.650   5.806  20.490  0.00  0.00    +0.000 OA
ATOM     34  C   UNL     1       1.537   4.409  20.773  0.00  0.00    +0.000 C 
ENDBRANCH  30  33
ENDBRANCH  20  24
BRANCH   1  36
ATOM     35  C   UNL     1       1.382  13.443  18.482  0.00  0.00    +0.000 C 
ATOM     36  C   UNL     1      -0.098  13.634  18.210  0.00  0.00    +0.000 C 
ENDBRANCH   1  36
TORSDOF 4
ENDMDL
MODEL 9
REMARK VINA RESULT:      -6.1      5.206      8.229
REMARK  Name = 
REMARK  8 active torsions:
REMARK  status: ('A' for Active; 'I' for Inactive)
REMARK    1  A    between atoms: C_1  and  C_2
REMARK    2  A    between atoms: C_2  and  N_3
REMARK    3  A    between atoms: C_6  and  C_7
REMARK    4  A    between atoms: N_22  and  C_23
REMARK    5  A    between atoms: C_27  and  O_28
REMARK    6  A    between atoms: O_28  and  C_29
REMARK    7  A    between atoms: C_31  and  O_32
REMARK    8  A    between atoms: O_32  and  C_33
REMARK                            x       y       z     vdW  Elec       q    Type
REMARK                         _______ _______ _______ _____ _____    ______ ____
ROOT
ATOM      1  N   UNL     1      -0.996  14.707  22.308  0.00  0.00    +0.000 N 
ATOM      2  C   UNL     1      -0.958  15.346  23.577  0.00  0.00    +0.000 A 
ATOM      3  C   UNL     1      -0.004  16.339  23.887  0.00  0.00    +0.000 A 
ATOM      4  C   UNL     1       0.103  16.940  25.151  0.00  0.00    +0.000 A 
ATOM      5  C   UNL     1       1.106  18.032  25.390  0.00  0.00    +0.000 C 
ATOM      6  C   UNL     1      -0.754  16.529  26.166  0.00  0.00    +0.000 A 
ATOM      7  C   UNL     1      -1.751  15.592  25.891  0.00  0.00    +0.000 A 
ATOM      8  C   UNL     1      -1.876  15.043  24.600  0.00  0.00    +0.000 A 
ATOM      9  N   UNL     1      -2.947  14.174  24.284  0.00  0.00    +0.000 N 
ATOM     10  C   UNL     1      -3.867  13.617  25.147  0.00  0.00    +0.000 A 
ATOM     11  C   UNL     1      -4.711  12.809  24.420  0.00  0.00    +0.000 A 
ATOM     12  C   UNL     1      -4.287  12.853  23.066  0.00  0.00    +0.000 A 
ATOM     13  C   UNL     1      -3.105  13.579  23.036  0.00  0.00    +0.000 A 
ATOM     14  C   UNL     1      -1.832  13.455  22.185  0.00  0.00    +0.000 C 
ATOM     15  C   UNL     1      -1.110  12.326  22.926  0.00  0.00    +0.000 C 
ATOM     16  C   UNL     1      -1.020  11.021  22.225  0.00  0.00    +0.000 C 
ATOM     17  N   UNL     1      -0.716  10.895  20.845  0.00  0.00    +0.000 N 
ATOM     18  C   UNL     1      -0.125   9.662  20.634  0.00  0.00    +0.000 C 
ATOM     19  O   UNL     1      -0.126   8.822  21.546  0.00  0.00    +0.000 OA
ATOM     20  N   UNL     1       0.557   9.419  19.487  0.00  0.00    +0.000 N 
ATOM     21  C   UNL     1      -1.075  12.034  19.984  0.00  0.00    +0.000 C 
ATOM     22  C   UNL     1      -2.080  13.072  20.667  0.00  0.00    +0.000 C 
ATOM     23  H   UNL     1       0.223   9.892  18.669  0.00  0.00    +0.000 HD
ENDROOT
BRANCH  20  24
ATOM     24  C   UNL     1       1.486   8.352  19.297  0.00  0.00    +0.000 A 
ATOM     25  C   UNL     1       1.601   7.218  20.153  0.00  0.00    +0.000 A 
ATOM     26  C   UNL     1       2.500   6.197  19.880  0.00  0.00    +0.000 A 
ATOM     27 CL   UNL     1       2.512   4.816  20.939  0.00  0.00    +0.000 Cl
ATOM     28  C   UNL     1       3.332   6.240  18.770  0.00  0.00    +0.000 A 
ATOM     29  C   UNL     1       3.257   7.366  17.932  0.00  0.00    +0.000 A 
ATOM     30  C   UNL     1       2.352   8.409  18.198  0.00  0.00    +0.000 A 
BRANCH  28  31
ATOM     31  O   UNL     1       4.166   5.179  18.541  0.00  0.00    +0.000 OA
ATOM     32  C   UNL     1       5.505   5.306  19.001  0.00  0.00    +0.000 C 
ENDBRANCH  28  31
BRANCH  30  33
ATOM     33  O   UNL     1       2.304   9.427  17.272  0.00  0.00    +0.000 OA
ATOM     34  C   UNL     1       2.483  10.723  17.848  0.00  0.00    +0.000 C 
ENDBRANCH  30  33
ENDBRANCH  20  24
BRANCH   1  36
ATOM     35  C   UNL     1       0.059  15.831  20.408  0.00  0.00    +0.000 C 
ATOM     36  C   UNL     1       0.238  14.804  21.510  0.00  0.00    +0.000 C 
ENDBRANCH   1  36
TORSDOF 4
ENDMDL
