MODEL 1
REMARK VINA RESULT:      -6.1      0.000      0.000
REMARK  Name = 
REMARK  8 active torsions:
REMARK  status: ('A' for Active; 'I' for Inactive)
REMARK    1  A    between atoms: C_1  and  O_2
REMARK    2  A    between atoms: O_2  and  C_3
REMARK    3  A    between atoms: C_6  and  C_7
REMARK    4  A    between atoms: C_7  and  C_9
REMARK    5  A    between atoms: C_9  and  S_10
REMARK    6  A    between atoms: S_10  and  C_11
REMARK    7  A    between atoms: C_14  and  S_15
REMARK    8  A    between atoms: S_15  and  C_16
REMARK                            x       y       z     vdW  Elec       q    Type
REMARK                         _______ _______ _______ _____ _____    ______ ____
ROOT
ATOM      1  C   UNL     1       4.925   6.262  17.583  0.00  0.00    +0.000 C 
ATOM      2  O   UNL     1       4.547   6.976  16.653  0.00  0.00    +0.000 OA
ENDROOT
BRANCH   1   6
ATOM      3  C   UNL     1       2.137   3.569  19.478  0.00  0.00    +0.000 A 
ATOM      4  C   UNL     1       3.015   4.351  20.229  0.00  0.00    +0.000 A 
ATOM      5  C   UNL     1       3.905   5.223  19.595  0.00  0.00    +0.000 A 
ATOM      6  C   UNL     1       3.943   5.313  18.196  0.00  0.00    +0.000 A 
ATOM      7  C   UNL     1       3.069   4.518  17.446  0.00  0.00    +0.000 A 
ATOM      8  C   UNL     1       2.174   3.648  18.087  0.00  0.00    +0.000 A 
BRANCH   3  10
ATOM      9  C   UNL     1       1.510   2.780  21.616  0.00  0.00    +0.000 C 
ATOM     10  O   UNL     1       1.325   2.745  20.206  0.00  0.00    +0.000 OA
ENDBRANCH   3  10
ENDBRANCH   1   6
BRANCH   1  11
ATOM     11  C   UNL     1       6.363   6.276  18.084  0.00  0.00    +0.000 C 
BRANCH  11  12
ATOM     12  S   UNL     1       7.201   4.688  17.768  0.00  0.00    +0.000 S 
BRANCH  12  13
ATOM     13  C   UNL     1       6.945   4.570  16.042  0.00  0.00    +0.000 A 
ATOM     14  N   UNL     1       7.582   5.346  15.190  0.00  0.00    +0.000 NA
ATOM     15  N   UNL     1       7.187   5.111  13.888  0.00  0.00    +0.000 NA
ATOM     16  C   UNL     1       6.274   4.166  13.815  0.00  0.00    +0.000 A 
ATOM     17  S   UNL     1       5.857   3.464  15.323  0.00  0.00    +0.000 S 
BRANCH  16  18
ATOM     18  S   UNL     1       5.547   3.665  12.305  0.00  0.00    +0.000 S 
ATOM     19  C   UNL     1       6.724   2.404  11.767  0.00  0.00    +0.000 C 
ENDBRANCH  16  18
ENDBRANCH  12  13
ENDBRANCH  11  12
ENDBRANCH   1  11
TORSDOF 6
ENDMDL
MODEL 2
REMARK VINA RESULT:      -6.0      1.239      1.286
REMARK  Name = 
REMARK  8 active torsions:
REMARK  status: ('A' for Active; 'I' for Inactive)
REMARK    1  A    between atoms: C_1  and  O_2
REMARK    2  A    between atoms: O_2  and  C_3
REMARK    3  A    between atoms: C_6  and  C_7
REMARK    4  A    between atoms: C_7  and  C_9
REMARK    5  A    between atoms: C_9  and  S_10
REMARK    6  A    between atoms: S_10  and  C_11
REMARK    7  A    between atoms: C_14  and  S_15
REMARK    8  A    between atoms: S_15  and  C_16
REMARK                            x       y       z     vdW  Elec       q    Type
REMARK                         _______ _______ _______ _____ _____    ______ ____
ROOT
ATOM      1  C   UNL     1       3.500   7.155  17.723  0.00  0.00    +0.000 C 
ATOM      2  O   UNL     1       2.863   8.090  17.238  0.00  0.00    +0.000 OA
ENDROOT
BRANCH   1   6
ATOM      3  C   UNL     1       1.358   4.120  19.917  0.00  0.00    +0.000 A 
ATOM      4  C   UNL     1       1.990   5.177  20.571  0.00  0.00    +0.000 A 
ATOM      5  C   UNL     1       2.672   6.154  19.840  0.00  0.00    +0.000 A 
ATOM      6  C   UNL     1       2.748   6.078  18.442  0.00  0.00    +0.000 A 
ATOM      7  C   UNL     1       2.122   5.009  17.791  0.00  0.00    +0.000 A 
ATOM      8  C   UNL     1       1.435   4.033  18.528  0.00  0.00    +0.000 A 
BRANCH   3  10
ATOM      9  C   UNL     1       1.575   2.536  21.659  0.00  0.00    +0.000 C 
ATOM     10  O   UNL     1       0.735   3.219  20.735  0.00  0.00    +0.000 OA
ENDBRANCH   3  10
ENDBRANCH   1   6
BRANCH   1  11
ATOM     11  C   UNL     1       5.010   7.032  17.565  0.00  0.00    +0.000 C 
BRANCH  11  12
ATOM     12  S   UNL     1       5.557   5.295  17.645  0.00  0.00    +0.000 S 
BRANCH  12  13
ATOM     13  C   UNL     1       6.311   5.162  16.072  0.00  0.00    +0.000 A 
ATOM     14  N   UNL     1       7.474   5.720  15.809  0.00  0.00    +0.000 NA
ATOM     15  N   UNL     1       7.850   5.526  14.495  0.00  0.00    +0.000 NA
ATOM     16  C   UNL     1       6.958   4.829  13.827  0.00  0.00    +0.000 A 
ATOM     17  S   UNL     1       5.611   4.320  14.758  0.00  0.00    +0.000 S 
BRANCH  16  18
ATOM     18  S   UNL     1       7.130   4.449  12.127  0.00  0.00    +0.000 S 
ATOM     19  C   UNL     1       6.330   2.830  12.063  0.00  0.00    +0.000 C 
ENDBRANCH  16  18
ENDBRANCH  12  13
ENDBRANCH  11  12
ENDBRANCH   1  11
TORSDOF 6
ENDMDL
MODEL 3
REMARK VINA RESULT:      -5.9      3.545      4.091
REMARK  Name = 
REMARK  8 active torsions:
REMARK  status: ('A' for Active; 'I' for Inactive)
REMARK    1  A    between atoms: C_1  and  O_2
REMARK    2  A    between atoms: O_2  and  C_3
REMARK    3  A    between atoms: C_6  and  C_7
REMARK    4  A    between atoms: C_7  and  C_9
REMARK    5  A    between atoms: C_9  and  S_10
REMARK    6  A    between atoms: S_10  and  C_11
REMARK    7  A    between atoms: C_14  and  S_15
REMARK    8  A    between atoms: S_15  and  C_16
REMARK                            x       y       z     vdW  Elec       q    Type
REMARK                         _______ _______ _______ _____ _____    ______ ____
ROOT
ATOM      1  C   UNL     1       3.321   6.428  18.515  0.00  0.00    +0.000 C 
ATOM      2  O   UNL     1       3.196   5.424  19.218  0.00  0.00    +0.000 OA
ENDROOT
BRANCH   1   6
ATOM      3  C   UNL     1       0.726   9.757  19.409  0.00  0.00    +0.000 A 
ATOM      4  C   UNL     1       1.046   8.806  20.378  0.00  0.00    +0.000 A 
ATOM      5  C   UNL     1       1.895   7.740  20.070  0.00  0.00    +0.000 A 
ATOM      6  C   UNL     1       2.424   7.597  18.779  0.00  0.00    +0.000 A 
ATOM      7  C   UNL     1       2.090   8.547  17.806  0.00  0.00    +0.000 A 
ATOM      8  C   UNL     1       1.241   9.618  18.122  0.00  0.00    +0.000 A 
BRANCH   3  10
ATOM      9  C   UNL     1      -0.964  11.301  18.817  0.00  0.00    +0.000 C 
ATOM     10  O   UNL     1      -0.124  10.745  19.823  0.00  0.00    +0.000 OA
ENDBRANCH   3  10
ENDBRANCH   1   6
BRANCH   1  11
ATOM     11  C   UNL     1       4.388   6.535  17.434  0.00  0.00    +0.000 C 
BRANCH  11  12
ATOM     12  S   UNL     1       5.838   5.498  17.814  0.00  0.00    +0.000 S 
BRANCH  12  13
ATOM     13  C   UNL     1       6.369   5.145  16.185  0.00  0.00    +0.000 A 
ATOM     14  N   UNL     1       7.349   5.812  15.613  0.00  0.00    +0.000 NA
ATOM     15  N   UNL     1       7.563   5.397  14.314  0.00  0.00    +0.000 NA
ATOM     16  C   UNL     1       6.739   4.433  13.965  0.00  0.00    +0.000 A 
ATOM     17  S   UNL     1       5.667   3.931  15.206  0.00  0.00    +0.000 S 
BRANCH  16  18
ATOM     18  S   UNL     1       6.735   3.720  12.367  0.00  0.00    +0.000 S 
ATOM     19  C   UNL     1       4.972   3.390  12.151  0.00  0.00    +0.000 C 
ENDBRANCH  16  18
ENDBRANCH  12  13
ENDBRANCH  11  12
ENDBRANCH   1  11
TORSDOF 6
ENDMDL
MODEL 4
REMARK VINA RESULT:      -5.9      3.596      4.404
REMARK  Name = 
REMARK  8 active torsions:
REMARK  status: ('A' for Active; 'I' for Inactive)
REMARK    1  A    between atoms: C_1  and  O_2
REMARK    2  A    between atoms: O_2  and  C_3
REMARK    3  A    between atoms: C_6  and  C_7
REMARK    4  A    between atoms: C_7  and  C_9
REMARK    5  A    between atoms: C_9  and  S_10
REMARK    6  A    between atoms: S_10  and  C_11
REMARK    7  A    between atoms: C_14  and  S_15
REMARK    8  A    between atoms: S_15  and  C_16
REMARK                            x       y       z     vdW  Elec       q    Type
REMARK                         _______ _______ _______ _____ _____    ______ ____
ROOT
ATOM      1  C   UNL     1       2.943   6.018  18.783  0.00  0.00    +0.000 C 
ATOM      2  O   UNL     1       2.352   5.167  18.118  0.00  0.00    +0.000 OA
ENDROOT
BRANCH   1   6
ATOM      3  C   UNL     1       1.030   9.852  19.297  0.00  0.00    +0.000 A 
ATOM      4  C   UNL     1       1.576   9.472  18.071  0.00  0.00    +0.000 A 
ATOM      5  C   UNL     1       2.184   8.223  17.924  0.00  0.00    +0.000 A 
ATOM      6  C   UNL     1       2.272   7.338  19.008  0.00  0.00    +0.000 A 
ATOM      7  C   UNL     1       1.734   7.727  20.240  0.00  0.00    +0.000 A 
ATOM      8  C   UNL     1       1.120   8.981  20.382  0.00  0.00    +0.000 A 
BRANCH   3  10
ATOM      9  C   UNL     1      -0.207  11.450  20.524  0.00  0.00    +0.000 C 
ATOM     10  O   UNL     1       0.474  11.101  19.325  0.00  0.00    +0.000 OA
ENDBRANCH   3  10
ENDBRANCH   1   6
BRANCH   1  11
ATOM     11  C   UNL     1       4.299   5.752  19.423  0.00  0.00    +0.000 C 
BRANCH  11  12
ATOM     12  S   UNL     1       4.832   4.026  19.177  0.00  0.00    +0.000 S 
BRANCH  12  13
ATOM     13  C   UNL     1       5.844   4.239  17.767  0.00  0.00    +0.000 A 
ATOM     14  N   UNL     1       7.147   4.402  17.864  0.00  0.00    +0.000 NA
ATOM     15  N   UNL     1       7.732   4.601  16.630  0.00  0.00    +0.000 NA
ATOM     16  C   UNL     1       6.848   4.573  15.657  0.00  0.00    +0.000 A 
ATOM     17  S   UNL     1       5.240   4.264  16.167  0.00  0.00    +0.000 S 
BRANCH  16  18
ATOM     18  S   UNL     1       7.275   4.830  13.980  0.00  0.00    +0.000 S 
ATOM     19  C   UNL     1       6.159   3.663  13.167  0.00  0.00    +0.000 C 
ENDBRANCH  16  18
ENDBRANCH  12  13
ENDBRANCH  11  12
ENDBRANCH   1  11
TORSDOF 6
ENDMDL
MODEL 5
REMARK VINA RESULT:      -5.8      3.659      6.577
REMARK  Name = 
REMARK  8 active torsions:
REMARK  status: ('A' for Active; 'I' for Inactive)
REMARK    1  A    between atoms: C_1  and  O_2
REMARK    2  A    between atoms: O_2  and  C_3
REMARK    3  A    between atoms: C_6  and  C_7
REMARK    4  A    between atoms: C_7  and  C_9
REMARK    5  A    between atoms: C_9  and  S_10
REMARK    6  A    between atoms: S_10  and  C_11
REMARK    7  A    between atoms: C_14  and  S_15
REMARK    8  A    between atoms: S_15  and  C_16
REMARK                            x       y       z     vdW  Elec       q    Type
REMARK                         _______ _______ _______ _____ _____    ______ ____
ROOT
ATOM      1  C   UNL     1       7.303   5.529  16.295  0.00  0.00    +0.000 C 
ATOM      2  O   UNL     1       7.724   6.685  16.252  0.00  0.00    +0.000 OA
ENDROOT
BRANCH   1   6
ATOM      3  C   UNL     1       5.958   3.605  12.674  0.00  0.00    +0.000 A 
ATOM      4  C   UNL     1       5.290   3.421  13.884  0.00  0.00    +0.000 A 
ATOM      5  C   UNL     1       5.738   4.060  15.044  0.00  0.00    +0.000 A 
ATOM      6  C   UNL     1       6.875   4.880  15.014  0.00  0.00    +0.000 A 
ATOM      7  C   UNL     1       7.550   5.053  13.801  0.00  0.00    +0.000 A 
ATOM      8  C   UNL     1       7.094   4.413  12.638  0.00  0.00    +0.000 A 
BRANCH   3  10
ATOM      9  C   UNL     1       4.100   3.250  11.256  0.00  0.00    +0.000 C 
ATOM     10  O   UNL     1       5.437   2.919  11.612  0.00  0.00    +0.000 OA
ENDBRANCH   3  10
ENDBRANCH   1   6
BRANCH   1  11
ATOM     11  C   UNL     1       7.260   4.727  17.588  0.00  0.00    +0.000 C 
BRANCH  11  12
ATOM     12  S   UNL     1       6.422   5.644  18.922  0.00  0.00    +0.000 S 
BRANCH  12  13
ATOM     13  C   UNL     1       5.168   4.490  19.316  0.00  0.00    +0.000 A 
ATOM     14  N   UNL     1       5.401   3.195  19.353  0.00  0.00    +0.000 NA
ATOM     15  N   UNL     1       4.258   2.476  19.637  0.00  0.00    +0.000 NA
ATOM     16  C   UNL     1       3.214   3.259  19.806  0.00  0.00    +0.000 A 
ATOM     17  S   UNL     1       3.555   4.935  19.672  0.00  0.00    +0.000 S 
BRANCH  16  18
ATOM     18  S   UNL     1       1.611   2.645  20.141  0.00  0.00    +0.000 S 
ATOM     19  C   UNL     1       0.696   4.189  20.348  0.00  0.00    +0.000 C 
ENDBRANCH  16  18
ENDBRANCH  12  13
ENDBRANCH  11  12
ENDBRANCH   1  11
TORSDOF 6
ENDMDL
MODEL 6
REMARK VINA RESULT:      -5.8      3.463      5.003
REMARK  Name = 
REMARK  8 active torsions:
REMARK  status: ('A' for Active; 'I' for Inactive)
REMARK    1  A    between atoms: C_1  and  O_2
REMARK    2  A    between atoms: O_2  and  C_3
REMARK    3  A    between atoms: C_6  and  C_7
REMARK    4  A    between atoms: C_7  and  C_9
REMARK    5  A    between atoms: C_9  and  S_10
REMARK    6  A    between atoms: S_10  and  C_11
REMARK    7  A    between atoms: C_14  and  S_15
REMARK    8  A    between atoms: S_15  and  C_16
REMARK                            x       y       z     vdW  Elec       q    Type
REMARK                         _______ _______ _______ _____ _____    ______ ____
ROOT
ATOM      1  C   UNL     1       2.013   4.819  20.382  0.00  0.00    +0.000 C 
ATOM      2  O   UNL     1       2.436   4.663  21.528  0.00  0.00    +0.000 OA
ENDROOT
BRANCH   1   6
ATOM      3  C   UNL     1       1.843   8.864  18.889  0.00  0.00    +0.000 A 
ATOM      4  C   UNL     1       1.379   8.541  20.164  0.00  0.00    +0.000 A 
ATOM      5  C   UNL     1       1.451   7.226  20.631  0.00  0.00    +0.000 A 
ATOM      6  C   UNL     1       1.972   6.207  19.821  0.00  0.00    +0.000 A 
ATOM      7  C   UNL     1       2.426   6.533  18.538  0.00  0.00    +0.000 A 
ATOM      8  C   UNL     1       2.356   7.855  18.075  0.00  0.00    +0.000 A 
BRANCH   3  10
ATOM      9  C   UNL     1       0.459  10.780  18.854  0.00  0.00    +0.000 C 
ATOM     10  O   UNL     1       1.709  10.178  18.537  0.00  0.00    +0.000 OA
ENDBRANCH   3  10
ENDBRANCH   1   6
BRANCH   1  11
ATOM     11  C   UNL     1       1.588   3.648  19.506  0.00  0.00    +0.000 C 
BRANCH  11  12
ATOM     12  S   UNL     1       2.849   2.331  19.484  0.00  0.00    +0.000 S 
BRANCH  12  13
ATOM     13  C   UNL     1       4.182   3.226  18.791  0.00  0.00    +0.000 A 
ATOM     14  N   UNL     1       5.230   3.578  19.506  0.00  0.00    +0.000 NA
ATOM     15  N   UNL     1       6.131   4.317  18.766  0.00  0.00    +0.000 NA
ATOM     16  C   UNL     1       5.726   4.486  17.525  0.00  0.00    +0.000 A 
ATOM     17  S   UNL     1       4.236   3.723  17.155  0.00  0.00    +0.000 S 
BRANCH  16  18
ATOM     18  S   UNL     1       6.633   5.411  16.349  0.00  0.00    +0.000 S 
ATOM     19  C   UNL     1       5.309   6.380  15.593  0.00  0.00    +0.000 C 
ENDBRANCH  16  18
ENDBRANCH  12  13
ENDBRANCH  11  12
ENDBRANCH   1  11
TORSDOF 6
ENDMDL
MODEL 7
REMARK VINA RESULT:      -5.7      2.875      3.366
REMARK  Name = 
REMARK  8 active torsions:
REMARK  status: ('A' for Active; 'I' for Inactive)
REMARK    1  A    between atoms: C_1  and  O_2
REMARK    2  A    between atoms: O_2  and  C_3
REMARK    3  A    between atoms: C_6  and  C_7
REMARK    4  A    between atoms: C_7  and  C_9
REMARK    5  A    between atoms: C_9  and  S_10
REMARK    6  A    between atoms: S_10  and  C_11
REMARK    7  A    between atoms: C_14  and  S_15
REMARK    8  A    between atoms: S_15  and  C_16
REMARK                            x       y       z     vdW  Elec       q    Type
REMARK                         _______ _______ _______ _____ _____    ______ ____
ROOT
ATOM      1  C   UNL     1       3.913   6.550  17.404  0.00  0.00    +0.000 C 
ATOM      2  O   UNL     1       4.397   7.156  16.447  0.00  0.00    +0.000 OA
ENDROOT
BRANCH   1   6
ATOM      3  C   UNL     1       1.241   8.781  19.953  0.00  0.00    +0.000 A 
ATOM      4  C   UNL     1       1.554   9.223  18.668  0.00  0.00    +0.000 A 
ATOM      5  C   UNL     1       2.416   8.481  17.856  0.00  0.00    +0.000 A 
ATOM      6  C   UNL     1       2.994   7.292  18.324  0.00  0.00    +0.000 A 
ATOM      7  C   UNL     1       2.686   6.858  19.619  0.00  0.00    +0.000 A 
ATOM      8  C   UNL     1       1.816   7.604  20.429  0.00  0.00    +0.000 A 
BRANCH   3  10
ATOM      9  C   UNL     1      -0.337   8.970  21.704  0.00  0.00    +0.000 C 
ATOM     10  O   UNL     1       0.399   9.595  20.659  0.00  0.00    +0.000 OA
ENDBRANCH   3  10
ENDBRANCH   1   6
BRANCH   1  11
ATOM     11  C   UNL     1       4.176   5.070  17.645  0.00  0.00    +0.000 C 
BRANCH  11  12
ATOM     12  S   UNL     1       5.939   4.743  17.975  0.00  0.00    +0.000 S 
BRANCH  12  13
ATOM     13  C   UNL     1       6.549   4.797  16.336  0.00  0.00    +0.000 A 
ATOM     14  N   UNL     1       7.499   5.633  15.975  0.00  0.00    +0.000 NA
ATOM     15  N   UNL     1       7.785   5.533  14.628  0.00  0.00    +0.000 NA
ATOM     16  C   UNL     1       7.042   4.623  14.034  0.00  0.00    +0.000 A 
ATOM     17  S   UNL     1       5.966   3.793  15.080  0.00  0.00    +0.000 S 
BRANCH  16  18
ATOM     18  S   UNL     1       7.143   4.288  12.320  0.00  0.00    +0.000 S 
ATOM     19  C   UNL     1       5.800   3.094  12.133  0.00  0.00    +0.000 C 
ENDBRANCH  16  18
ENDBRANCH  12  13
ENDBRANCH  11  12
ENDBRANCH   1  11
TORSDOF 6
ENDMDL
MODEL 8
REMARK VINA RESULT:      -5.7      1.405      1.822
REMARK  Name = 
REMARK  8 active torsions:
REMARK  status: ('A' for Active; 'I' for Inactive)
REMARK    1  A    between atoms: C_1  and  O_2
REMARK    2  A    between atoms: O_2  and  C_3
REMARK    3  A    between atoms: C_6  and  C_7
REMARK    4  A    between atoms: C_7  and  C_9
REMARK    5  A    between atoms: C_9  and  S_10
REMARK    6  A    between atoms: S_10  and  C_11
REMARK    7  A    between atoms: C_14  and  S_15
REMARK    8  A    between atoms: S_15  and  C_16
REMARK                            x       y       z     vdW  Elec       q    Type
REMARK                         _______ _______ _______ _____ _____    ______ ____
ROOT
ATOM      1  C   UNL     1       3.283   7.510  17.729  0.00  0.00    +0.000 C 
ATOM      2  O   UNL     1       2.530   8.349  17.233  0.00  0.00    +0.000 OA
ENDROOT
BRANCH   1   6
ATOM      3  C   UNL     1       1.514   4.182  19.829  0.00  0.00    +0.000 A 
ATOM      4  C   UNL     1       1.545   4.226  18.435  0.00  0.00    +0.000 A 
ATOM      5  C   UNL     1       2.130   5.310  17.775  0.00  0.00    +0.000 A 
ATOM      6  C   UNL     1       2.678   6.378  18.500  0.00  0.00    +0.000 A 
ATOM      7  C   UNL     1       2.635   6.335  19.898  0.00  0.00    +0.000 A 
ATOM      8  C   UNL     1       2.051   5.242  20.557  0.00  0.00    +0.000 A 
BRANCH   3  10
ATOM      9  C   UNL     1       1.463   2.589  21.575  0.00  0.00    +0.000 C 
ATOM     10  O   UNL     1       0.904   3.080  20.362  0.00  0.00    +0.000 OA
ENDBRANCH   3  10
ENDBRANCH   1   6
BRANCH   1  11
ATOM     11  C   UNL     1       4.793   7.559  17.536  0.00  0.00    +0.000 C 
BRANCH  11  12
ATOM     12  S   UNL     1       5.587   5.998  18.038  0.00  0.00    +0.000 S 
BRANCH  12  13
ATOM     13  C   UNL     1       6.058   5.399  16.463  0.00  0.00    +0.000 A 
ATOM     14  N   UNL     1       7.113   5.865  15.829  0.00  0.00    +0.000 NA
ATOM     15  N   UNL     1       7.262   5.283  14.586  0.00  0.00    +0.000 NA
ATOM     16  C   UNL     1       6.317   4.402  14.339  0.00  0.00    +0.000 A 
ATOM     17  S   UNL     1       5.197   4.185  15.619  0.00  0.00    +0.000 S 
BRANCH  16  18
ATOM     18  S   UNL     1       6.211   3.522  12.831  0.00  0.00    +0.000 S 
ATOM     19  C   UNL     1       7.496   4.350  11.868  0.00  0.00    +0.000 C 
ENDBRANCH  16  18
ENDBRANCH  12  13
ENDBRANCH  11  12
ENDBRANCH   1  11
TORSDOF 6
ENDMDL
MODEL 9
REMARK VINA RESULT:      -5.7      2.546      3.714
REMARK  Name = 
REMARK  8 active torsions:
REMARK  status: ('A' for Active; 'I' for Inactive)
REMARK    1  A    between atoms: C_1  and  O_2
REMARK    2  A    between atoms: O_2  and  C_3
REMARK    3  A    between atoms: C_6  and  C_7
REMARK    4  A    between atoms: C_7  and  C_9
REMARK    5  A    between atoms: C_9  and  S_10
REMARK    6  A    between atoms: S_10  and  C_11
REMARK    7  A    between atoms: C_14  and  S_15
REMARK    8  A    between atoms: S_15  and  C_16
REMARK                            x       y       z     vdW  Elec       q    Type
REMARK                         _______ _______ _______ _____ _____    ______ ____
ROOT
ATOM      1  C   UNL     1       1.884   3.182  18.517  0.00  0.00    +0.000 C 
ATOM      2  O   UNL     1       0.800   2.688  18.202  0.00  0.00    +0.000 OA
ENDROOT
BRANCH   1   6
ATOM      3  C   UNL     1       1.929   7.269  19.899  0.00  0.00    +0.000 A 
ATOM      4  C   UNL     1       1.536   6.225  20.736  0.00  0.00    +0.000 A 
ATOM      5  C   UNL     1       1.536   4.907  20.271  0.00  0.00    +0.000 A 
ATOM      6  C   UNL     1       1.913   4.615  18.952  0.00  0.00    +0.000 A 
ATOM      7  C   UNL     1       2.295   5.666  18.112  0.00  0.00    +0.000 A 
ATOM      8  C   UNL     1       2.298   6.987  18.585  0.00  0.00    +0.000 A 
BRANCH   3  10
ATOM      9  C   UNL     1       1.085   8.631  21.637  0.00  0.00    +0.000 C 
ATOM     10  O   UNL     1       1.875   8.515  20.459  0.00  0.00    +0.000 OA
ENDBRANCH   3  10
ENDBRANCH   1   6
BRANCH   1  11
ATOM     11  C   UNL     1       3.173   2.371  18.531  0.00  0.00    +0.000 C 
BRANCH  11  12
ATOM     12  S   UNL     1       4.469   3.184  19.522  0.00  0.00    +0.000 S 
BRANCH  12  13
ATOM     13  C   UNL     1       5.493   3.765  18.229  0.00  0.00    +0.000 A 
ATOM     14  N   UNL     1       6.643   4.360  18.466  0.00  0.00    +0.000 NA
ATOM     15  N   UNL     1       7.255   4.777  17.301  0.00  0.00    +0.000 NA
ATOM     16  C   UNL     1       6.543   4.473  16.236  0.00  0.00    +0.000 A 
ATOM     17  S   UNL     1       5.092   3.622  16.572  0.00  0.00    +0.000 S 
BRANCH  16  18
ATOM     18  S   UNL     1       7.034   4.901  14.613  0.00  0.00    +0.000 S 
ATOM     19  C   UNL     1       5.783   4.030  13.643  0.00  0.00    +0.000 C 
ENDBRANCH  16  18
ENDBRANCH  12  13
ENDBRANCH  11  12
ENDBRANCH   1  11
TORSDOF 6
ENDMDL
