MODEL 1
REMARK VINA RESULT:     -11.1      0.000      0.000
REMARK  Name = 
REMARK  4 active torsions:
REMARK  status: ('A' for Active; 'I' for Inactive)
REMARK    1  A    between atoms: C_1  and  C_2
REMARK    2  A    between atoms: C_2  and  C_3
REMARK    3  A    between atoms: C_2  and  N_16
REMARK    4  A    between atoms: C_18  and  C_19
REMARK                            x       y       z     vdW  Elec       q    Type
REMARK                         _______ _______ _______ _____ _____    ______ ____
ROOT
ATOM      1  N   UNL     1       1.294   9.361  19.376  0.00  0.00    +0.000 N 
ATOM      2  C   UNL     1       1.846   8.657  18.346  0.00  0.00    +0.000 A 
ATOM      3  C   UNL     1       2.202   7.449  18.907  0.00  0.00    +0.000 A 
ATOM      4  N   UNL     1       1.850   7.460  20.231  0.00  0.00    +0.000 NA
ATOM      5  N   UNL     1       1.313   8.643  20.514  0.00  0.00    +0.000 NA
ENDROOT
BRANCH   3   6
ATOM      6  C   UNL     1       2.854   6.362  18.179  0.00  0.00    +0.000 A 
ATOM      7  C   UNL     1       3.935   6.721  17.353  0.00  0.00    +0.000 A 
ATOM      8  C   UNL     1       4.726   5.773  16.709  0.00  0.00    +0.000 A 
ATOM      9  C   UNL     1       5.827   6.204  15.950  0.00  0.00    +0.000 A 
ATOM     10  C   UNL     1       6.669   5.294  15.323  0.00  0.00    +0.000 A 
ATOM     11  C   UNL     1       6.408   3.939  15.439  0.00  0.00    +0.000 A 
ATOM     12  C   UNL     1       5.303   3.504  16.179  0.00  0.00    +0.000 A 
ATOM     13  C   UNL     1       4.424   4.401  16.844  0.00  0.00    +0.000 A 
ATOM     14  C   UNL     1       3.284   4.007  17.636  0.00  0.00    +0.000 A 
ATOM     15  C   UNL     1       2.909   2.646  17.790  0.00  0.00    +0.000 A 
ATOM     16  C   UNL     1       1.826   2.242  18.569  0.00  0.00    +0.000 A 
ATOM     17  C   UNL     1       1.074   3.193  19.230  0.00  0.00    +0.000 A 
ATOM     18  C   UNL     1       1.409   4.542  19.105  0.00  0.00    +0.000 A 
ATOM     19  C   UNL     1       2.499   4.992  18.313  0.00  0.00    +0.000 A 
ENDBRANCH   3   6
BRANCH   1  21
ATOM     20  C   UNL     1       1.777  11.631  18.550  0.00  0.00    +0.000 C 
ATOM     21  C   UNL     1       0.821  10.746  19.364  0.00  0.00    +0.000 C 
BRANCH  21  22
ATOM     22  C   UNL     1      -0.630  10.807  18.896  0.00  0.00    +0.000 A 
ATOM     23  C   UNL     1      -1.034  10.128  17.743  0.00  0.00    +0.000 A 
ATOM     24  C   UNL     1      -2.359  10.191  17.285  0.00  0.00    +0.000 A 
ATOM     25  C   UNL     1      -3.292  10.979  17.987  0.00  0.00    +0.000 A 
ATOM     26  S   UNL     1      -4.949  11.229  17.612  0.00  0.00    +0.000 S 
ATOM     27  C   UNL     1      -5.184  12.315  18.923  0.00  0.00    +0.000 A 
ATOM     28  C   UNL     1      -6.365  13.007  19.260  0.00  0.00    +0.000 A 
ATOM     29  C   UNL     1      -6.360  13.861  20.365  0.00  0.00    +0.000 A 
ATOM     30  C   UNL     1      -5.216  14.018  21.132  0.00  0.00    +0.000 A 
ATOM     31  C   UNL     1      -4.056  13.323  20.802  0.00  0.00    +0.000 A 
ATOM     32  C   UNL     1      -4.019  12.462  19.673  0.00  0.00    +0.000 A 
ATOM     33  C   UNL     1      -2.927  11.684  19.131  0.00  0.00    +0.000 A 
ATOM     34  C   UNL     1      -1.587  11.575  19.579  0.00  0.00    +0.000 A 
ENDBRANCH  21  22
ENDBRANCH   1  21
TORSDOF 3
ENDMDL
MODEL 2
REMARK VINA RESULT:     -10.7      1.096      1.299
REMARK  Name = 
REMARK  4 active torsions:
REMARK  status: ('A' for Active; 'I' for Inactive)
REMARK    1  A    between atoms: C_1  and  C_2
REMARK    2  A    between atoms: C_2  and  C_3
REMARK    3  A    between atoms: C_2  and  N_16
REMARK    4  A    between atoms: C_18  and  C_19
REMARK                            x       y       z     vdW  Elec       q    Type
REMARK                         _______ _______ _______ _____ _____    ______ ____
ROOT
ATOM      1  N   UNL     1       1.218   9.902  19.754  0.00  0.00    +0.000 N 
ATOM      2  C   UNL     1       1.763   9.107  18.788  0.00  0.00    +0.000 A 
ATOM      3  C   UNL     1       1.959   7.893  19.412  0.00  0.00    +0.000 A 
ATOM      4  N   UNL     1       1.524   7.991  20.708  0.00  0.00    +0.000 NA
ATOM      5  N   UNL     1       1.091   9.230  20.914  0.00  0.00    +0.000 NA
ENDROOT
BRANCH   3   6
ATOM      6  C   UNL     1       2.545   6.720  18.766  0.00  0.00    +0.000 A 
ATOM      7  C   UNL     1       3.449   6.967  17.718  0.00  0.00    +0.000 A 
ATOM      8  C   UNL     1       4.177   5.949  17.107  0.00  0.00    +0.000 A 
ATOM      9  C   UNL     1       5.109   6.281  16.108  0.00  0.00    +0.000 A 
ATOM     10  C   UNL     1       5.887   5.304  15.499  0.00  0.00    +0.000 A 
ATOM     11  C   UNL     1       5.731   3.981  15.875  0.00  0.00    +0.000 A 
ATOM     12  C   UNL     1       4.793   3.643  16.857  0.00  0.00    +0.000 A 
ATOM     13  C   UNL     1       3.984   4.612  17.512  0.00  0.00    +0.000 A 
ATOM     14  C   UNL     1       3.018   4.322  18.544  0.00  0.00    +0.000 A 
ATOM     15  C   UNL     1       2.757   2.995  18.978  0.00  0.00    +0.000 A 
ATOM     16  C   UNL     1       1.845   2.695  19.989  0.00  0.00    +0.000 A 
ATOM     17  C   UNL     1       1.158   3.720  20.609  0.00  0.00    +0.000 A 
ATOM     18  C   UNL     1       1.386   5.037  20.211  0.00  0.00    +0.000 A 
ATOM     19  C   UNL     1       2.300   5.381  19.179  0.00  0.00    +0.000 A 
ENDBRANCH   3   6
BRANCH   1  21
ATOM     20  C   UNL     1       1.733  12.002  18.575  0.00  0.00    +0.000 C 
ATOM     21  C   UNL     1       0.887  11.324  19.664  0.00  0.00    +0.000 C 
BRANCH  21  22
ATOM     22  C   UNL     1      -0.616  11.510  19.487  0.00  0.00    +0.000 A 
ATOM     23  C   UNL     1      -1.224  11.250  18.256  0.00  0.00    +0.000 A 
ATOM     24  C   UNL     1      -2.602  11.436  18.068  0.00  0.00    +0.000 A 
ATOM     25  C   UNL     1      -3.382  11.924  19.135  0.00  0.00    +0.000 A 
ATOM     26  S   UNL     1      -5.067  12.252  19.141  0.00  0.00    +0.000 S 
ATOM     27  C   UNL     1      -5.050  12.831  20.759  0.00  0.00    +0.000 A 
ATOM     28  C   UNL     1      -6.135  13.345  21.496  0.00  0.00    +0.000 A 
ATOM     29  C   UNL     1      -5.922  13.778  22.807  0.00  0.00    +0.000 A 
ATOM     30  C   UNL     1      -4.665  13.691  23.384  0.00  0.00    +0.000 A 
ATOM     31  C   UNL     1      -3.599  13.170  22.657  0.00  0.00    +0.000 A 
ATOM     32  C   UNL     1      -3.775  12.740  21.314  0.00  0.00    +0.000 A 
ATOM     33  C   UNL     1      -2.812  12.211  20.373  0.00  0.00    +0.000 A 
ATOM     34  C   UNL     1      -1.423  11.985  20.534  0.00  0.00    +0.000 A 
ENDBRANCH  21  22
ENDBRANCH   1  21
TORSDOF 3
ENDMDL
MODEL 3
REMARK VINA RESULT:     -10.6      1.076      3.096
REMARK  Name = 
REMARK  4 active torsions:
REMARK  status: ('A' for Active; 'I' for Inactive)
REMARK    1  A    between atoms: C_1  and  C_2
REMARK    2  A    between atoms: C_2  and  C_3
REMARK    3  A    between atoms: C_2  and  N_16
REMARK    4  A    between atoms: C_18  and  C_19
REMARK                            x       y       z     vdW  Elec       q    Type
REMARK                         _______ _______ _______ _____ _____    ______ ____
ROOT
ATOM      1  N   UNL     1       1.363  10.198  18.856  0.00  0.00    +0.000 N 
ATOM      2  C   UNL     1       1.471   8.950  19.396  0.00  0.00    +0.000 A 
ATOM      3  C   UNL     1       2.211   8.238  18.476  0.00  0.00    +0.000 A 
ATOM      4  N   UNL     1       2.529   9.069  17.433  0.00  0.00    +0.000 NA
ATOM      5  N   UNL     1       1.988  10.261  17.665  0.00  0.00    +0.000 NA
ENDROOT
BRANCH   3   6
ATOM      6  C   UNL     1       2.571   6.829  18.620  0.00  0.00    +0.000 A 
ATOM      7  C   UNL     1       1.870   6.100  19.597  0.00  0.00    +0.000 A 
ATOM      8  C   UNL     1       2.020   4.723  19.747  0.00  0.00    +0.000 A 
ATOM      9  C   UNL     1       1.238   4.053  20.704  0.00  0.00    +0.000 A 
ATOM     10  C   UNL     1       1.322   2.675  20.862  0.00  0.00    +0.000 A 
ATOM     11  C   UNL     1       2.201   1.955  20.072  0.00  0.00    +0.000 A 
ATOM     12  C   UNL     1       2.994   2.619  19.129  0.00  0.00    +0.000 A 
ATOM     13  C   UNL     1       2.932   4.025  18.929  0.00  0.00    +0.000 A 
ATOM     14  C   UNL     1       3.709   4.757  17.959  0.00  0.00    +0.000 A 
ATOM     15  C   UNL     1       4.664   4.119  17.124  0.00  0.00    +0.000 A 
ATOM     16  C   UNL     1       5.409   4.804  16.164  0.00  0.00    +0.000 A 
ATOM     17  C   UNL     1       5.222   6.162  16.003  0.00  0.00    +0.000 A 
ATOM     18  C   UNL     1       4.294   6.827  16.805  0.00  0.00    +0.000 A 
ATOM     19  C   UNL     1       3.524   6.165  17.798  0.00  0.00    +0.000 A 
ENDBRANCH   3   6
BRANCH   1  21
ATOM     20  C   UNL     1       1.277  12.657  18.963  0.00  0.00    +0.000 C 
ATOM     21  C   UNL     1       0.605  11.337  19.373  0.00  0.00    +0.000 C 
BRANCH  21  22
ATOM     22  C   UNL     1      -0.860  11.232  18.960  0.00  0.00    +0.000 A 
ATOM     23  C   UNL     1      -1.235  10.444  17.869  0.00  0.00    +0.000 A 
ATOM     24  C   UNL     1      -2.575  10.353  17.461  0.00  0.00    +0.000 A 
ATOM     25  C   UNL     1      -3.555  11.096  18.149  0.00  0.00    +0.000 A 
ATOM     26  S   UNL     1      -5.240  11.165  17.825  0.00  0.00    +0.000 S 
ATOM     27  C   UNL     1      -5.533  12.309  19.073  0.00  0.00    +0.000 A 
ATOM     28  C   UNL     1      -6.763  12.909  19.414  0.00  0.00    +0.000 A 
ATOM     29  C   UNL     1      -6.802  13.831  20.462  0.00  0.00    +0.000 A 
ATOM     30  C   UNL     1      -5.653  14.143  21.171  0.00  0.00    +0.000 A 
ATOM     31  C   UNL     1      -4.443  13.539  20.840  0.00  0.00    +0.000 A 
ATOM     32  C   UNL     1      -4.363  12.612  19.766  0.00  0.00    +0.000 A 
ATOM     33  C   UNL     1      -3.220  11.906  19.231  0.00  0.00    +0.000 A 
ATOM     34  C   UNL     1      -1.862  11.952  19.632  0.00  0.00    +0.000 A 
ENDBRANCH  21  22
ENDBRANCH   1  21
TORSDOF 3
ENDMDL
MODEL 4
REMARK VINA RESULT:     -10.3      1.387      2.149
REMARK  Name = 
REMARK  4 active torsions:
REMARK  status: ('A' for Active; 'I' for Inactive)
REMARK    1  A    between atoms: C_1  and  C_2
REMARK    2  A    between atoms: C_2  and  C_3
REMARK    3  A    between atoms: C_2  and  N_16
REMARK    4  A    between atoms: C_18  and  C_19
REMARK                            x       y       z     vdW  Elec       q    Type
REMARK                         _______ _______ _______ _____ _____    ______ ____
ROOT
ATOM      1  N   UNL     1       1.268  10.158  19.975  0.00  0.00    +0.000 N 
ATOM      2  C   UNL     1       1.882   9.400  19.022  0.00  0.00    +0.000 A 
ATOM      3  C   UNL     1       1.878   8.123  19.542  0.00  0.00    +0.000 A 
ATOM      4  N   UNL     1       1.262   8.151  20.766  0.00  0.00    +0.000 NA
ATOM      5  N   UNL     1       0.910   9.405  21.031  0.00  0.00    +0.000 NA
ENDROOT
BRANCH   3   6
ATOM      6  C   UNL     1       2.452   6.958  18.872  0.00  0.00    +0.000 A 
ATOM      7  C   UNL     1       3.321   7.217  17.798  0.00  0.00    +0.000 A 
ATOM      8  C   UNL     1       4.037   6.208  17.159  0.00  0.00    +0.000 A 
ATOM      9  C   UNL     1       4.935   6.552  16.134  0.00  0.00    +0.000 A 
ATOM     10  C   UNL     1       5.702   5.585  15.495  0.00  0.00    +0.000 A 
ATOM     11  C   UNL     1       5.567   4.258  15.869  0.00  0.00    +0.000 A 
ATOM     12  C   UNL     1       4.663   3.908  16.878  0.00  0.00    +0.000 A 
ATOM     13  C   UNL     1       3.867   4.867  17.562  0.00  0.00    +0.000 A 
ATOM     14  C   UNL     1       2.936   4.564  18.622  0.00  0.00    +0.000 A 
ATOM     15  C   UNL     1       2.698   3.234  19.057  0.00  0.00    +0.000 A 
ATOM     16  C   UNL     1       1.820   2.921  20.094  0.00  0.00    +0.000 A 
ATOM     17  C   UNL     1       1.145   3.938  20.741  0.00  0.00    +0.000 A 
ATOM     18  C   UNL     1       1.351   5.259  20.343  0.00  0.00    +0.000 A 
ATOM     19  C   UNL     1       2.230   5.615  19.286  0.00  0.00    +0.000 A 
ENDBRANCH   3   6
BRANCH   1  21
ATOM     20  C   UNL     1       1.511  12.211  18.637  0.00  0.00    +0.000 C 
ATOM     21  C   UNL     1       1.077  11.609  19.981  0.00  0.00    +0.000 C 
BRANCH  21  22
ATOM     22  C   UNL     1      -0.353  11.955  20.384  0.00  0.00    +0.000 A 
ATOM     23  C   UNL     1      -0.648  12.341  21.694  0.00  0.00    +0.000 A 
ATOM     24  C   UNL     1      -1.961  12.642  22.088  0.00  0.00    +0.000 A 
ATOM     25  C   UNL     1      -3.005  12.522  21.150  0.00  0.00    +0.000 A 
ATOM     26  S   UNL     1      -4.679  12.810  21.399  0.00  0.00    +0.000 S 
ATOM     27  C   UNL     1      -5.097  12.357  19.795  0.00  0.00    +0.000 A 
ATOM     28  C   UNL     1      -6.387  12.301  19.229  0.00  0.00    +0.000 A 
ATOM     29  C   UNL     1      -6.529  11.897  17.900  0.00  0.00    +0.000 A 
ATOM     30  C   UNL     1      -5.418  11.569  17.139  0.00  0.00    +0.000 A 
ATOM     31  C   UNL     1      -4.145  11.638  17.698  0.00  0.00    +0.000 A 
ATOM     32  C   UNL     1      -3.965  12.024  19.053  0.00  0.00    +0.000 A 
ATOM     33  C   UNL     1      -2.756  12.125  19.839  0.00  0.00    +0.000 A 
ATOM     34  C   UNL     1      -1.414  11.856  19.470  0.00  0.00    +0.000 A 
ENDBRANCH  21  22
ENDBRANCH   1  21
TORSDOF 3
ENDMDL
MODEL 5
REMARK VINA RESULT:     -10.2      2.411      9.971
REMARK  Name = 
REMARK  4 active torsions:
REMARK  status: ('A' for Active; 'I' for Inactive)
REMARK    1  A    between atoms: C_1  and  C_2
REMARK    2  A    between atoms: C_2  and  C_3
REMARK    3  A    between atoms: C_2  and  N_16
REMARK    4  A    between atoms: C_18  and  C_19
REMARK                            x       y       z     vdW  Elec       q    Type
REMARK                         _______ _______ _______ _____ _____    ______ ____
ROOT
ATOM      1  N   UNL     1       0.673   9.905  20.181  0.00  0.00    +0.000 N 
ATOM      2  C   UNL     1      -0.678   9.831  20.011  0.00  0.00    +0.000 A 
ATOM      3  C   UNL     1      -0.972  10.856  19.137  0.00  0.00    +0.000 A 
ATOM      4  N   UNL     1       0.193  11.498  18.807  0.00  0.00    +0.000 NA
ATOM      5  N   UNL     1       1.192  10.921  19.467  0.00  0.00    +0.000 NA
ENDROOT
BRANCH   3   6
ATOM      6  C   UNL     1      -2.318  11.181  18.669  0.00  0.00    +0.000 A 
ATOM      7  C   UNL     1      -3.124  11.929  19.546  0.00  0.00    +0.000 A 
ATOM      8  C   UNL     1      -4.374  12.417  19.174  0.00  0.00    +0.000 A 
ATOM      9  C   UNL     1      -5.095  13.211  20.084  0.00  0.00    +0.000 A 
ATOM     10  C   UNL     1      -6.327  13.754  19.743  0.00  0.00    +0.000 A 
ATOM     11  C   UNL     1      -6.858  13.497  18.491  0.00  0.00    +0.000 A 
ATOM     12  C   UNL     1      -6.153  12.694  17.587  0.00  0.00    +0.000 A 
ATOM     13  C   UNL     1      -4.885  12.128  17.892  0.00  0.00    +0.000 A 
ATOM     14  C   UNL     1      -4.107  11.311  16.993  0.00  0.00    +0.000 A 
ATOM     15  C   UNL     1      -4.576  10.960  15.699  0.00  0.00    +0.000 A 
ATOM     16  C   UNL     1      -3.830  10.192  14.806  0.00  0.00    +0.000 A 
ATOM     17  C   UNL     1      -2.577   9.746  15.177  0.00  0.00    +0.000 A 
ATOM     18  C   UNL     1      -2.080  10.068  16.440  0.00  0.00    +0.000 A 
ATOM     19  C   UNL     1      -2.814  10.841  17.380  0.00  0.00    +0.000 A 
ENDBRANCH   3   6
BRANCH   1  21
ATOM     20  C   UNL     1       0.898   9.065  22.485  0.00  0.00    +0.000 C 
ATOM     21  C   UNL     1       1.509   9.106  21.077  0.00  0.00    +0.000 C 
BRANCH  21  22
ATOM     22  C   UNL     1       1.769   7.729  20.473  0.00  0.00    +0.000 A 
ATOM     23  C   UNL     1       1.228   6.582  21.061  0.00  0.00    +0.000 A 
ATOM     24  C   UNL     1       1.474   5.305  20.533  0.00  0.00    +0.000 A 
ATOM     25  C   UNL     1       2.308   5.177  19.405  0.00  0.00    +0.000 A 
ATOM     26  S   UNL     1       2.769   3.733  18.599  0.00  0.00    +0.000 S 
ATOM     27  C   UNL     1       3.774   4.562  17.479  0.00  0.00    +0.000 A 
ATOM     28  C   UNL     1       4.568   3.998  16.459  0.00  0.00    +0.000 A 
ATOM     29  C   UNL     1       5.330   4.840  15.647  0.00  0.00    +0.000 A 
ATOM     30  C   UNL     1       5.299   6.214  15.828  0.00  0.00    +0.000 A 
ATOM     31  C   UNL     1       4.504   6.768  16.827  0.00  0.00    +0.000 A 
ATOM     32  C   UNL     1       3.732   5.940  17.685  0.00  0.00    +0.000 A 
ATOM     33  C   UNL     1       2.879   6.293  18.799  0.00  0.00    +0.000 A 
ATOM     34  C   UNL     1       2.586   7.568  19.343  0.00  0.00    +0.000 A 
ENDBRANCH  21  22
ENDBRANCH   1  21
TORSDOF 3
ENDMDL
MODEL 6
REMARK VINA RESULT:     -10.1      1.544      2.730
REMARK  Name = 
REMARK  4 active torsions:
REMARK  status: ('A' for Active; 'I' for Inactive)
REMARK    1  A    between atoms: C_1  and  C_2
REMARK    2  A    between atoms: C_2  and  C_3
REMARK    3  A    between atoms: C_2  and  N_16
REMARK    4  A    between atoms: C_18  and  C_19
REMARK                            x       y       z     vdW  Elec       q    Type
REMARK                         _______ _______ _______ _____ _____    ______ ____
ROOT
ATOM      1  N   UNL     1       1.124   9.758  20.888  0.00  0.00    +0.000 N 
ATOM      2  C   UNL     1       1.606   9.136  19.774  0.00  0.00    +0.000 A 
ATOM      3  C   UNL     1       1.813   7.832  20.170  0.00  0.00    +0.000 A 
ATOM      4  N   UNL     1       1.445   7.709  21.485  0.00  0.00    +0.000 NA
ATOM      5  N   UNL     1       1.043   8.899  21.921  0.00  0.00    +0.000 NA
ENDROOT
BRANCH   3   6
ATOM      6  C   UNL     1       2.346   6.782  19.304  0.00  0.00    +0.000 A 
ATOM      7  C   UNL     1       3.168   7.202  18.243  0.00  0.00    +0.000 A 
ATOM      8  C   UNL     1       3.846   6.301  17.425  0.00  0.00    +0.000 A 
ATOM      9  C   UNL     1       4.700   6.796  16.425  0.00  0.00    +0.000 A 
ATOM     10  C   UNL     1       5.428   5.937  15.612  0.00  0.00    +0.000 A 
ATOM     11  C   UNL     1       5.299   4.569  15.784  0.00  0.00    +0.000 A 
ATOM     12  C   UNL     1       4.438   4.070  16.767  0.00  0.00    +0.000 A 
ATOM     13  C   UNL     1       3.683   4.914  17.626  0.00  0.00    +0.000 A 
ATOM     14  C   UNL     1       2.797   4.454  18.669  0.00  0.00    +0.000 A 
ATOM     15  C   UNL     1       2.567   3.073  18.905  0.00  0.00    +0.000 A 
ATOM     16  C   UNL     1       1.734   2.607  19.921  0.00  0.00    +0.000 A 
ATOM     17  C   UNL     1       1.098   3.514  20.746  0.00  0.00    +0.000 A 
ATOM     18  C   UNL     1       1.297   4.880  20.547  0.00  0.00    +0.000 A 
ATOM     19  C   UNL     1       2.131   5.392  19.517  0.00  0.00    +0.000 A 
ENDBRANCH   3   6
BRANCH   1  21
ATOM     20  C   UNL     1       1.945  12.046  20.490  0.00  0.00    +0.000 C 
ATOM     21  C   UNL     1       0.813  11.177  21.060  0.00  0.00    +0.000 C 
BRANCH  21  22
ATOM     22  C   UNL     1      -0.563  11.494  20.480  0.00  0.00    +0.000 A 
ATOM     23  C   UNL     1      -1.531  12.134  21.259  0.00  0.00    +0.000 A 
ATOM     24  C   UNL     1      -2.809  12.413  20.751  0.00  0.00    +0.000 A 
ATOM     25  C   UNL     1      -3.129  12.012  19.439  0.00  0.00    +0.000 A 
ATOM     26  S   UNL     1      -4.620  12.220  18.611  0.00  0.00    +0.000 S 
ATOM     27  C   UNL     1      -4.069  11.396  17.207  0.00  0.00    +0.000 A 
ATOM     28  C   UNL     1      -4.800  11.121  16.034  0.00  0.00    +0.000 A 
ATOM     29  C   UNL     1      -4.179  10.426  14.994  0.00  0.00    +0.000 A 
ATOM     30  C   UNL     1      -2.856  10.024  15.103  0.00  0.00    +0.000 A 
ATOM     31  C   UNL     1      -2.134  10.310  16.258  0.00  0.00    +0.000 A 
ATOM     32  C   UNL     1      -2.741  10.996  17.344  0.00  0.00    +0.000 A 
ATOM     33  C   UNL     1      -2.199  11.358  18.636  0.00  0.00    +0.000 A 
ATOM     34  C   UNL     1      -0.910  11.117  19.173  0.00  0.00    +0.000 A 
ENDBRANCH  21  22
ENDBRANCH   1  21
TORSDOF 3
ENDMDL
MODEL 7
REMARK VINA RESULT:     -10.0      2.837      5.120
REMARK  Name = 
REMARK  4 active torsions:
REMARK  status: ('A' for Active; 'I' for Inactive)
REMARK    1  A    between atoms: C_1  and  C_2
REMARK    2  A    between atoms: C_2  and  C_3
REMARK    3  A    between atoms: C_2  and  N_16
REMARK    4  A    between atoms: C_18  and  C_19
REMARK                            x       y       z     vdW  Elec       q    Type
REMARK                         _______ _______ _______ _____ _____    ______ ____
ROOT
ATOM      1  N   UNL     1       0.951   9.382  18.776  0.00  0.00    +0.000 N 
ATOM      2  C   UNL     1       1.489   8.572  17.819  0.00  0.00    +0.000 A 
ATOM      3  C   UNL     1       2.182   7.614  18.529  0.00  0.00    +0.000 A 
ATOM      4  N   UNL     1       2.032   7.867  19.867  0.00  0.00    +0.000 NA
ATOM      5  N   UNL     1       1.293   8.964  20.008  0.00  0.00    +0.000 NA
ENDROOT
BRANCH   3   6
ATOM      6  C   UNL     1       2.945   6.528  17.918  0.00  0.00    +0.000 A 
ATOM      7  C   UNL     1       4.121   6.892  17.238  0.00  0.00    +0.000 A 
ATOM      8  C   UNL     1       5.008   5.948  16.727  0.00  0.00    +0.000 A 
ATOM      9  C   UNL     1       6.195   6.388  16.115  0.00  0.00    +0.000 A 
ATOM     10  C   UNL     1       7.129   5.483  15.627  0.00  0.00    +0.000 A 
ATOM     11  C   UNL     1       6.879   4.126  15.735  0.00  0.00    +0.000 A 
ATOM     12  C   UNL     1       5.691   3.683  16.328  0.00  0.00    +0.000 A 
ATOM     13  C   UNL     1       4.715   4.574  16.849  0.00  0.00    +0.000 A 
ATOM     14  C   UNL     1       3.485   4.172  17.489  0.00  0.00    +0.000 A 
ATOM     15  C   UNL     1       3.117   2.807  17.619  0.00  0.00    +0.000 A 
ATOM     16  C   UNL     1       1.946   2.396  18.254  0.00  0.00    +0.000 A 
ATOM     17  C   UNL     1       1.095   3.344  18.787  0.00  0.00    +0.000 A 
ATOM     18  C   UNL     1       1.420   4.696  18.679  0.00  0.00    +0.000 A 
ATOM     19  C   UNL     1       2.599   5.153  18.033  0.00  0.00    +0.000 A 
ENDBRANCH   3   6
BRANCH   1  21
ATOM     20  C   UNL     1      -1.305  10.367  18.857  0.00  0.00    +0.000 C 
ATOM     21  C   UNL     1       0.186  10.614  18.581  0.00  0.00    +0.000 C 
BRANCH  21  22
ATOM     22  C   UNL     1       0.789  11.749  19.403  0.00  0.00    +0.000 A 
ATOM     23  C   UNL     1       0.209  12.135  20.614  0.00  0.00    +0.000 A 
ATOM     24  C   UNL     1       0.736  13.191  21.373  0.00  0.00    +0.000 A 
ATOM     25  C   UNL     1       1.855  13.895  20.886  0.00  0.00    +0.000 A 
ATOM     26  S   UNL     1       2.658  15.226  21.617  0.00  0.00    +0.000 S 
ATOM     27  C   UNL     1       3.766  15.400  20.314  0.00  0.00    +0.000 A 
ATOM     28  C   UNL     1       4.777  16.371  20.174  0.00  0.00    +0.000 A 
ATOM     29  C   UNL     1       5.579  16.358  19.030  0.00  0.00    +0.000 A 
ATOM     30  C   UNL     1       5.396  15.393  18.051  0.00  0.00    +0.000 A 
ATOM     31  C   UNL     1       4.405  14.428  18.200  0.00  0.00    +0.000 A 
ATOM     32  C   UNL     1       3.557  14.425  19.340  0.00  0.00    +0.000 A 
ATOM     33  C   UNL     1       2.453  13.553  19.676  0.00  0.00    +0.000 A 
ATOM     34  C   UNL     1       1.910  12.464  18.951  0.00  0.00    +0.000 A 
ENDBRANCH  21  22
ENDBRANCH   1  21
TORSDOF 3
ENDMDL
MODEL 8
REMARK VINA RESULT:     -10.0      3.366      5.331
REMARK  Name = 
REMARK  4 active torsions:
REMARK  status: ('A' for Active; 'I' for Inactive)
REMARK    1  A    between atoms: C_1  and  C_2
REMARK    2  A    between atoms: C_2  and  C_3
REMARK    3  A    between atoms: C_2  and  N_16
REMARK    4  A    between atoms: C_18  and  C_19
REMARK                            x       y       z     vdW  Elec       q    Type
REMARK                         _______ _______ _______ _____ _____    ______ ____
ROOT
ATOM      1  N   UNL     1       0.860   9.714  20.475  0.00  0.00    +0.000 N 
ATOM      2  C   UNL     1       1.222   8.963  19.395  0.00  0.00    +0.000 A 
ATOM      3  C   UNL     1       1.826   7.849  19.938  0.00  0.00    +0.000 A 
ATOM      4  N   UNL     1       1.799   7.958  21.304  0.00  0.00    +0.000 NA
ATOM      5  N   UNL     1       1.224   9.113  21.623  0.00  0.00    +0.000 NA
ENDROOT
BRANCH   3   6
ATOM      6  C   UNL     1       2.397   6.756  19.153  0.00  0.00    +0.000 A 
ATOM      7  C   UNL     1       3.251   7.122  18.098  0.00  0.00    +0.000 A 
ATOM      8  C   UNL     1       3.963   6.182  17.357  0.00  0.00    +0.000 A 
ATOM      9  C   UNL     1       4.847   6.627  16.358  0.00  0.00    +0.000 A 
ATOM     10  C   UNL     1       5.610   5.729  15.621  0.00  0.00    +0.000 A 
ATOM     11  C   UNL     1       5.485   4.373  15.869  0.00  0.00    +0.000 A 
ATOM     12  C   UNL     1       4.595   3.923  16.850  0.00  0.00    +0.000 A 
ATOM     13  C   UNL     1       3.805   4.808  17.633  0.00  0.00    +0.000 A 
ATOM     14  C   UNL     1       2.888   4.400  18.670  0.00  0.00    +0.000 A 
ATOM     15  C   UNL     1       2.661   3.033  18.978  0.00  0.00    +0.000 A 
ATOM     16  C   UNL     1       1.798   2.618  19.992  0.00  0.00    +0.000 A 
ATOM     17  C   UNL     1       1.127   3.565  20.740  0.00  0.00    +0.000 A 
ATOM     18  C   UNL     1       1.321   4.919  20.469  0.00  0.00    +0.000 A 
ATOM     19  C   UNL     1       2.186   5.379  19.439  0.00  0.00    +0.000 A 
ENDBRANCH   3   6
BRANCH   1  21
ATOM     20  C   UNL     1      -0.284  11.385  21.878  0.00  0.00    +0.000 C 
ATOM     21  C   UNL     1       0.254  11.046  20.479  0.00  0.00    +0.000 C 
BRANCH  21  22
ATOM     22  C   UNL     1       1.233  12.077  19.925  0.00  0.00    +0.000 A 
ATOM     23  C   UNL     1       1.445  12.185  18.548  0.00  0.00    +0.000 A 
ATOM     24  C   UNL     1       2.358  13.112  18.021  0.00  0.00    +0.000 A 
ATOM     25  C   UNL     1       3.095  13.927  18.901  0.00  0.00    +0.000 A 
ATOM     26  S   UNL     1       4.275  15.108  18.499  0.00  0.00    +0.000 S 
ATOM     27  C   UNL     1       4.614  15.472  20.145  0.00  0.00    +0.000 A 
ATOM     28  C   UNL     1       5.567  16.385  20.641  0.00  0.00    +0.000 A 
ATOM     29  C   UNL     1       5.705  16.539  22.022  0.00  0.00    +0.000 A 
ATOM     30  C   UNL     1       4.908  15.817  22.897  0.00  0.00    +0.000 A 
ATOM     31  C   UNL     1       3.959  14.927  22.402  0.00  0.00    +0.000 A 
ATOM     32  C   UNL     1       3.806  14.729  21.003  0.00  0.00    +0.000 A 
ATOM     33  C   UNL     1       2.926  13.839  20.280  0.00  0.00    +0.000 A 
ATOM     34  C   UNL     1       1.975  12.911  20.775  0.00  0.00    +0.000 A 
ENDBRANCH  21  22
ENDBRANCH   1  21
TORSDOF 3
ENDMDL
MODEL 9
REMARK VINA RESULT:     -10.0      3.228      5.591
REMARK  Name = 
REMARK  4 active torsions:
REMARK  status: ('A' for Active; 'I' for Inactive)
REMARK    1  A    between atoms: C_1  and  C_2
REMARK    2  A    between atoms: C_2  and  C_3
REMARK    3  A    between atoms: C_2  and  N_16
REMARK    4  A    between atoms: C_18  and  C_19
REMARK                            x       y       z     vdW  Elec       q    Type
REMARK                         _______ _______ _______ _____ _____    ______ ____
ROOT
ATOM      1  N   UNL     1       0.788  10.073  19.252  0.00  0.00    +0.000 N 
ATOM      2  C   UNL     1       1.356   9.192  18.379  0.00  0.00    +0.000 A 
ATOM      3  C   UNL     1       1.833   8.174  19.177  0.00  0.00    +0.000 A 
ATOM      4  N   UNL     1       1.533   8.465  20.483  0.00  0.00    +0.000 NA
ATOM      5  N   UNL     1       0.911   9.639  20.520  0.00  0.00    +0.000 NA
ENDROOT
BRANCH   3   6
ATOM      6  C   UNL     1       2.544   6.999  18.678  0.00  0.00    +0.000 A 
ATOM      7  C   UNL     1       3.429   7.210  17.605  0.00  0.00    +0.000 A 
ATOM      8  C   UNL     1       4.264   6.207  17.122  0.00  0.00    +0.000 A 
ATOM      9  C   UNL     1       5.168   6.510  16.088  0.00  0.00    +0.000 A 
ATOM     10  C   UNL     1       6.050   5.553  15.601  0.00  0.00    +0.000 A 
ATOM     11  C   UNL     1       6.027   4.276  16.136  0.00  0.00    +0.000 A 
ATOM     12  C   UNL     1       5.119   3.964  17.153  0.00  0.00    +0.000 A 
ATOM     13  C   UNL     1       4.207   4.915  17.687  0.00  0.00    +0.000 A 
ATOM     14  C   UNL     1       3.265   4.654  18.748  0.00  0.00    +0.000 A 
ATOM     15  C   UNL     1       3.138   3.370  19.341  0.00  0.00    +0.000 A 
ATOM     16  C   UNL     1       2.252   3.101  20.383  0.00  0.00    +0.000 A 
ATOM     17  C   UNL     1       1.456   4.117  20.875  0.00  0.00    +0.000 A 
ATOM     18  C   UNL     1       1.550   5.393  20.319  0.00  0.00    +0.000 A 
ATOM     19  C   UNL     1       2.434   5.702  19.252  0.00  0.00    +0.000 A 
ENDBRANCH   3   6
BRANCH   1  21
ATOM     20  C   UNL     1      -1.298  11.381  19.291  0.00  0.00    +0.000 C 
ATOM     21  C   UNL     1       0.201  11.379  18.954  0.00  0.00    +0.000 C 
BRANCH  21  22
ATOM     22  C   UNL     1       0.993  12.487  19.642  0.00  0.00    +0.000 A 
ATOM     23  C   UNL     1       0.511  13.085  20.809  0.00  0.00    +0.000 A 
ATOM     24  C   UNL     1       1.214  14.121  21.443  0.00  0.00    +0.000 A 
ATOM     25  C   UNL     1       2.415  14.586  20.872  0.00  0.00    +0.000 A 
ATOM     26  S   UNL     1       3.432  15.845  21.446  0.00  0.00    +0.000 S 
ATOM     27  C   UNL     1       4.519  15.704  20.121  0.00  0.00    +0.000 A 
ATOM     28  C   UNL     1       5.664  16.486  19.866  0.00  0.00    +0.000 A 
ATOM     29  C   UNL     1       6.424  16.226  18.724  0.00  0.00    +0.000 A 
ATOM     30  C   UNL     1       6.069  15.204  17.857  0.00  0.00    +0.000 A 
ATOM     31  C   UNL     1       4.945  14.426  18.120  0.00  0.00    +0.000 A 
ATOM     32  C   UNL     1       4.138  14.676  19.261  0.00  0.00    +0.000 A 
ATOM     33  C   UNL     1       2.921  14.028  19.701  0.00  0.00    +0.000 A 
ATOM     34  C   UNL     1       2.198  12.966  19.103  0.00  0.00    +0.000 A 
ENDBRANCH  21  22
ENDBRANCH   1  21
TORSDOF 3
ENDMDL
