MODEL 1
REMARK VINA RESULT:      -6.5      0.000      0.000
REMARK  Name = 
REMARK  8 active torsions:
REMARK  status: ('A' for Active; 'I' for Inactive)
REMARK    1  A    between atoms: C_1  and  C_2
REMARK    2  A    between atoms: C_2  and  C_3
REMARK    3  A    between atoms: C_2  and  C_4
REMARK    4  A    between atoms: C_4  and  C_5
REMARK    5  A    between atoms: C_4  and  N_7
REMARK    6  A    between atoms: C_5  and  O_6
REMARK    7  A    between atoms: N_7  and  S_8
REMARK    8  A    between atoms: S_8  and  C_11
REMARK                            x       y       z     vdW  Elec       q    Type
REMARK                         _______ _______ _______ _____ _____    ______ ____
ROOT
ATOM      1  S   UNL     1       5.283   5.014  18.963  0.00  0.00    +0.000 S 
ATOM      2  O   UNL     1       4.408   6.159  18.907  0.00  0.00    +0.000 OA
ATOM      3  O   UNL     1       6.494   5.026  19.747  0.00  0.00    +0.000 OA
ENDROOT
BRANCH   1   4
ATOM      4  C   UNL     1       5.786   4.652  17.294  0.00  0.00    +0.000 A 
ATOM      5  C   UNL     1       4.854   4.167  16.368  0.00  0.00    +0.000 A 
ATOM      6  C   UNL     1       5.216   4.049  15.023  0.00  0.00    +0.000 A 
ATOM      7  C   UNL     1       6.498   4.416  14.614  0.00  0.00    +0.000 A 
ATOM      8 CL   UNL     1       6.929   4.303  12.952  0.00  0.00    +0.000 Cl
ATOM      9  C   UNL     1       7.427   4.899  15.537  0.00  0.00    +0.000 A 
ATOM     10  C   UNL     1       7.071   5.027  16.880  0.00  0.00    +0.000 A 
ENDBRANCH   1   4
BRANCH   1  11
ATOM     11  N   UNL     1       4.430   3.628  19.434  0.00  0.00    +0.000 NA
ATOM     12  H   UNL     1       4.688   2.859  18.814  0.00  0.00    +0.000 HD
BRANCH  11  13
ATOM     13  C   UNL     1       2.993   3.638  19.835  0.00  0.00    +0.000 C 
BRANCH  13  15
ATOM     14  C   UNL     1       0.929   2.310  18.959  0.00  0.00    +0.000 C 
ATOM     15  C   UNL     1       2.123   3.206  18.588  0.00  0.00    +0.000 C 
ATOM     16  C   UNL     1       1.561   4.390  17.786  0.00  0.00    +0.000 C 
ENDBRANCH  13  15
BRANCH  13  17
ATOM     17  C   UNL     1       2.752   2.660  21.020  0.00  0.00    +0.000 C 
BRANCH  17  18
ATOM     18  O   UNL     1       2.143   3.288  22.144  0.00  0.00    +0.000 OA
ATOM     19  H   UNL     1       1.221   3.483  21.911  0.00  0.00    +0.000 HD
ENDBRANCH  17  18
ENDBRANCH  13  17
ENDBRANCH  11  13
ENDBRANCH   1  11
TORSDOF 6
ENDMDL
MODEL 2
REMARK VINA RESULT:      -6.4      1.329      1.401
REMARK  Name = 
REMARK  8 active torsions:
REMARK  status: ('A' for Active; 'I' for Inactive)
REMARK    1  A    between atoms: C_1  and  C_2
REMARK    2  A    between atoms: C_2  and  C_3
REMARK    3  A    between atoms: C_2  and  C_4
REMARK    4  A    between atoms: C_4  and  C_5
REMARK    5  A    between atoms: C_4  and  N_7
REMARK    6  A    between atoms: C_5  and  O_6
REMARK    7  A    between atoms: N_7  and  S_8
REMARK    8  A    between atoms: S_8  and  C_11
REMARK                            x       y       z     vdW  Elec       q    Type
REMARK                         _______ _______ _______ _____ _____    ______ ____
ROOT
ATOM      1  S   UNL     1       5.456   4.833  18.022  0.00  0.00    +0.000 S 
ATOM      2  O   UNL     1       4.945   6.182  18.075  0.00  0.00    +0.000 OA
ATOM      3  O   UNL     1       6.545   4.404  18.865  0.00  0.00    +0.000 OA
ENDROOT
BRANCH   1   4
ATOM      4  C   UNL     1       5.986   4.534  16.349  0.00  0.00    +0.000 A 
ATOM      5  C   UNL     1       5.129   3.899  15.442  0.00  0.00    +0.000 A 
ATOM      6  C   UNL     1       5.487   3.823  14.093  0.00  0.00    +0.000 A 
ATOM      7  C   UNL     1       6.690   4.381  13.662  0.00  0.00    +0.000 A 
ATOM      8 CL   UNL     1       7.112   4.317  11.995  0.00  0.00    +0.000 Cl
ATOM      9  C   UNL     1       7.545   5.013  14.565  0.00  0.00    +0.000 A 
ATOM     10  C   UNL     1       7.191   5.100  15.912  0.00  0.00    +0.000 A 
ENDBRANCH   1   4
BRANCH   1  11
ATOM     11  N   UNL     1       4.208   3.709  18.254  0.00  0.00    +0.000 NA
ATOM     12  H   UNL     1       3.666   3.643  17.392  0.00  0.00    +0.000 HD
BRANCH  11  13
ATOM     13  C   UNL     1       3.395   3.621  19.501  0.00  0.00    +0.000 C 
BRANCH  13  15
ATOM     14  C   UNL     1       0.902   3.905  20.201  0.00  0.00    +0.000 C 
ATOM     15  C   UNL     1       1.876   3.460  19.098  0.00  0.00    +0.000 C 
ATOM     16  C   UNL     1       1.490   4.229  17.824  0.00  0.00    +0.000 C 
ENDBRANCH  13  15
BRANCH  13  17
ATOM     17  C   UNL     1       3.852   2.410  20.363  0.00  0.00    +0.000 C 
BRANCH  17  18
ATOM     18  O   UNL     1       5.101   1.870  19.946  0.00  0.00    +0.000 OA
ATOM     19  H   UNL     1       5.654   1.757  20.736  0.00  0.00    +0.000 HD
ENDBRANCH  17  18
ENDBRANCH  13  17
ENDBRANCH  11  13
ENDBRANCH   1  11
TORSDOF 6
ENDMDL
MODEL 3
REMARK VINA RESULT:      -6.3      1.323      1.790
REMARK  Name = 
REMARK  8 active torsions:
REMARK  status: ('A' for Active; 'I' for Inactive)
REMARK    1  A    between atoms: C_1  and  C_2
REMARK    2  A    between atoms: C_2  and  C_3
REMARK    3  A    between atoms: C_2  and  C_4
REMARK    4  A    between atoms: C_4  and  C_5
REMARK    5  A    between atoms: C_4  and  N_7
REMARK    6  A    between atoms: C_5  and  O_6
REMARK    7  A    between atoms: N_7  and  S_8
REMARK    8  A    between atoms: S_8  and  C_11
REMARK                            x       y       z     vdW  Elec       q    Type
REMARK                         _______ _______ _______ _____ _____    ______ ____
ROOT
ATOM      1  S   UNL     1       5.648   4.804  18.104  0.00  0.00    +0.000 S 
ATOM      2  O   UNL     1       4.981   6.053  18.377  0.00  0.00    +0.000 OA
ATOM      3  O   UNL     1       6.893   4.456  18.745  0.00  0.00    +0.000 OA
ENDROOT
BRANCH   1   4
ATOM      4  C   UNL     1       5.969   4.747  16.353  0.00  0.00    +0.000 A 
ATOM      5  C   UNL     1       7.197   5.192  15.849  0.00  0.00    +0.000 A 
ATOM      6  C   UNL     1       7.504   4.986  14.500  0.00  0.00    +0.000 A 
ATOM      7  C   UNL     1       6.587   4.338  13.671  0.00  0.00    +0.000 A 
ATOM      8 CL   UNL     1       6.982   4.054  12.021  0.00  0.00    +0.000 Cl
ATOM      9  C   UNL     1       5.363   3.895  14.174  0.00  0.00    +0.000 A 
ATOM     10  C   UNL     1       5.053   4.090  15.520  0.00  0.00    +0.000 A 
ENDBRANCH   1   4
BRANCH   1  11
ATOM     11  N   UNL     1       4.602   3.495  18.362  0.00  0.00    +0.000 NA
ATOM     12  H   UNL     1       4.247   3.179  17.459  0.00  0.00    +0.000 HD
BRANCH  11  13
ATOM     13  C   UNL     1       3.605   3.440  19.469  0.00  0.00    +0.000 C 
BRANCH  13  15
ATOM     14  C   UNL     1       1.037   3.253  19.872  0.00  0.00    +0.000 C 
ATOM     15  C   UNL     1       2.179   3.170  18.844  0.00  0.00    +0.000 C 
ATOM     16  C   UNL     1       1.816   4.125  17.696  0.00  0.00    +0.000 C 
ENDBRANCH  13  15
BRANCH  13  17
ATOM     17  C   UNL     1       3.971   2.311  20.475  0.00  0.00    +0.000 C 
BRANCH  17  18
ATOM     18  O   UNL     1       5.174   1.630  20.133  0.00  0.00    +0.000 OA
ATOM     19  H   UNL     1       5.710   2.230  19.590  0.00  0.00    +0.000 HD
ENDBRANCH  17  18
ENDBRANCH  13  17
ENDBRANCH  11  13
ENDBRANCH   1  11
TORSDOF 6
ENDMDL
MODEL 4
REMARK VINA RESULT:      -6.3      1.557      1.909
REMARK  Name = 
REMARK  8 active torsions:
REMARK  status: ('A' for Active; 'I' for Inactive)
REMARK    1  A    between atoms: C_1  and  C_2
REMARK    2  A    between atoms: C_2  and  C_3
REMARK    3  A    between atoms: C_2  and  C_4
REMARK    4  A    between atoms: C_4  and  C_5
REMARK    5  A    between atoms: C_4  and  N_7
REMARK    6  A    between atoms: C_5  and  O_6
REMARK    7  A    between atoms: N_7  and  S_8
REMARK    8  A    between atoms: S_8  and  C_11
REMARK                            x       y       z     vdW  Elec       q    Type
REMARK                         _______ _______ _______ _____ _____    ______ ____
ROOT
ATOM      1  S   UNL     1       4.846   4.276  19.085  0.00  0.00    +0.000 S 
ATOM      2  O   UNL     1       5.099   5.578  19.654  0.00  0.00    +0.000 OA
ATOM      3  O   UNL     1       5.330   3.070  19.713  0.00  0.00    +0.000 OA
ENDROOT
BRANCH   1   4
ATOM      4  C   UNL     1       5.526   4.276  17.440  0.00  0.00    +0.000 A 
ATOM      5  C   UNL     1       4.677   4.209  16.328  0.00  0.00    +0.000 A 
ATOM      6  C   UNL     1       5.206   4.383  15.046  0.00  0.00    +0.000 A 
ATOM      7  C   UNL     1       6.571   4.623  14.884  0.00  0.00    +0.000 A 
ATOM      8 CL   UNL     1       7.213   4.871  13.307  0.00  0.00    +0.000 Cl
ATOM      9  C   UNL     1       7.417   4.689  15.992  0.00  0.00    +0.000 A 
ATOM     10  C   UNL     1       6.895   4.525  17.275  0.00  0.00    +0.000 A 
ENDBRANCH   1   4
BRANCH   1  11
ATOM     11  N   UNL     1       3.187   4.043  18.833  0.00  0.00    +0.000 NA
ATOM     12  H   UNL     1       2.711   4.939  18.944  0.00  0.00    +0.000 HD
BRANCH  11  13
ATOM     13  C   UNL     1       2.426   2.872  19.359  0.00  0.00    +0.000 C 
BRANCH  13  15
ATOM     14  C   UNL     1       1.686   2.811  21.856  0.00  0.00    +0.000 C 
ATOM     15  C   UNL     1       1.413   3.387  20.456  0.00  0.00    +0.000 C 
ATOM     16  C   UNL     1       1.383   4.917  20.601  0.00  0.00    +0.000 C 
ENDBRANCH  13  15
BRANCH  13  17
ATOM     17  C   UNL     1       1.656   2.163  18.209  0.00  0.00    +0.000 C 
BRANCH  17  18
ATOM     18  O   UNL     1       0.244   2.173  18.396  0.00  0.00    +0.000 OA
ATOM     19  H   UNL     1      -0.011   1.316  18.773  0.00  0.00    +0.000 HD
ENDBRANCH  17  18
ENDBRANCH  13  17
ENDBRANCH  11  13
ENDBRANCH   1  11
TORSDOF 6
ENDMDL
MODEL 5
REMARK VINA RESULT:      -6.3      0.673      1.498
REMARK  Name = 
REMARK  8 active torsions:
REMARK  status: ('A' for Active; 'I' for Inactive)
REMARK    1  A    between atoms: C_1  and  C_2
REMARK    2  A    between atoms: C_2  and  C_3
REMARK    3  A    between atoms: C_2  and  C_4
REMARK    4  A    between atoms: C_4  and  C_5
REMARK    5  A    between atoms: C_4  and  N_7
REMARK    6  A    between atoms: C_5  and  O_6
REMARK    7  A    between atoms: N_7  and  S_8
REMARK    8  A    between atoms: S_8  and  C_11
REMARK                            x       y       z     vdW  Elec       q    Type
REMARK                         _______ _______ _______ _____ _____    ______ ____
ROOT
ATOM      1  S   UNL     1       5.418   5.118  19.156  0.00  0.00    +0.000 S 
ATOM      2  O   UNL     1       4.410   6.143  19.284  0.00  0.00    +0.000 OA
ATOM      3  O   UNL     1       6.698   5.231  19.810  0.00  0.00    +0.000 OA
ENDROOT
BRANCH   1   4
ATOM      4  C   UNL     1       5.771   4.938  17.420  0.00  0.00    +0.000 A 
ATOM      5  C   UNL     1       7.092   4.782  16.984  0.00  0.00    +0.000 A 
ATOM      6  C   UNL     1       7.343   4.472  15.644  0.00  0.00    +0.000 A 
ATOM      7  C   UNL     1       6.279   4.317  14.756  0.00  0.00    +0.000 A 
ATOM      8 CL   UNL     1       6.589   3.899  13.116  0.00  0.00    +0.000 Cl
ATOM      9  C   UNL     1       4.962   4.473  15.191  0.00  0.00    +0.000 A 
ATOM     10  C   UNL     1       4.703   4.775  16.528  0.00  0.00    +0.000 A 
ENDBRANCH   1   4
BRANCH   1  11
ATOM     11  N   UNL     1       4.795   3.605  19.597  0.00  0.00    +0.000 NA
ATOM     12  H   UNL     1       5.203   2.894  18.989  0.00  0.00    +0.000 HD
BRANCH  11  13
ATOM     13  C   UNL     1       3.363   3.369  19.943  0.00  0.00    +0.000 C 
BRANCH  13  15
ATOM     14  C   UNL     1       3.357   1.597  18.033  0.00  0.00    +0.000 C 
ATOM     15  C   UNL     1       2.629   2.794  18.667  0.00  0.00    +0.000 C 
ATOM     16  C   UNL     1       1.183   2.346  18.935  0.00  0.00    +0.000 C 
ENDBRANCH  13  15
BRANCH  13  17
ATOM     17  C   UNL     1       3.247   2.365  21.125  0.00  0.00    +0.000 C 
BRANCH  17  18
ATOM     18  O   UNL     1       2.434   2.850  22.189  0.00  0.00    +0.000 OA
ATOM     19  H   UNL     1       2.685   2.371  22.995  0.00  0.00    +0.000 HD
ENDBRANCH  17  18
ENDBRANCH  13  17
ENDBRANCH  11  13
ENDBRANCH   1  11
TORSDOF 6
ENDMDL
MODEL 6
REMARK VINA RESULT:      -6.2      1.482      2.102
REMARK  Name = 
REMARK  8 active torsions:
REMARK  status: ('A' for Active; 'I' for Inactive)
REMARK    1  A    between atoms: C_1  and  C_2
REMARK    2  A    between atoms: C_2  and  C_3
REMARK    3  A    between atoms: C_2  and  C_4
REMARK    4  A    between atoms: C_4  and  C_5
REMARK    5  A    between atoms: C_4  and  N_7
REMARK    6  A    between atoms: C_5  and  O_6
REMARK    7  A    between atoms: N_7  and  S_8
REMARK    8  A    between atoms: S_8  and  C_11
REMARK                            x       y       z     vdW  Elec       q    Type
REMARK                         _______ _______ _______ _____ _____    ______ ____
ROOT
ATOM      1  S   UNL     1       5.062   4.536  18.765  0.00  0.00    +0.000 S 
ATOM      2  O   UNL     1       5.351   5.852  19.282  0.00  0.00    +0.000 OA
ATOM      3  O   UNL     1       5.523   3.343  19.433  0.00  0.00    +0.000 OA
ENDROOT
BRANCH   1   4
ATOM      4  C   UNL     1       5.728   4.458  17.115  0.00  0.00    +0.000 A 
ATOM      5  C   UNL     1       4.879   4.230  16.025  0.00  0.00    +0.000 A 
ATOM      6  C   UNL     1       5.382   4.341  14.725  0.00  0.00    +0.000 A 
ATOM      7  C   UNL     1       6.720   4.680  14.525  0.00  0.00    +0.000 A 
ATOM      8 CL   UNL     1       7.328   4.850  12.924  0.00  0.00    +0.000 Cl
ATOM      9  C   UNL     1       7.566   4.906  15.612  0.00  0.00    +0.000 A 
ATOM     10  C   UNL     1       7.070   4.805  16.912  0.00  0.00    +0.000 A 
ENDBRANCH   1   4
BRANCH   1  11
ATOM     11  N   UNL     1       3.396   4.334  18.534  0.00  0.00    +0.000 NA
ATOM     12  H   UNL     1       2.954   5.254  18.523  0.00  0.00    +0.000 HD
BRANCH  11  13
ATOM     13  C   UNL     1       2.590   3.272  19.206  0.00  0.00    +0.000 C 
BRANCH  13  15
ATOM     14  C   UNL     1       1.523   5.129  20.689  0.00  0.00    +0.000 C 
ATOM     15  C   UNL     1       2.232   3.765  20.663  0.00  0.00    +0.000 C 
ATOM     16  C   UNL     1       1.343   2.785  21.446  0.00  0.00    +0.000 C 
ENDBRANCH  13  15
BRANCH  13  17
ATOM     17  C   UNL     1       1.290   2.986  18.402  0.00  0.00    +0.000 C 
BRANCH  17  18
ATOM     18  O   UNL     1       1.082   3.906  17.335  0.00  0.00    +0.000 OA
ATOM     19  H   UNL     1       1.940   4.071  16.914  0.00  0.00    +0.000 HD
ENDBRANCH  17  18
ENDBRANCH  13  17
ENDBRANCH  11  13
ENDBRANCH   1  11
TORSDOF 6
ENDMDL
MODEL 7
REMARK VINA RESULT:      -6.1      1.511      2.155
REMARK  Name = 
REMARK  8 active torsions:
REMARK  status: ('A' for Active; 'I' for Inactive)
REMARK    1  A    between atoms: C_1  and  C_2
REMARK    2  A    between atoms: C_2  and  C_3
REMARK    3  A    between atoms: C_2  and  C_4
REMARK    4  A    between atoms: C_4  and  C_5
REMARK    5  A    between atoms: C_4  and  N_7
REMARK    6  A    between atoms: C_5  and  O_6
REMARK    7  A    between atoms: N_7  and  S_8
REMARK    8  A    between atoms: S_8  and  C_11
REMARK                            x       y       z     vdW  Elec       q    Type
REMARK                         _______ _______ _______ _____ _____    ______ ____
ROOT
ATOM      1  S   UNL     1       5.117   4.850  18.528  0.00  0.00    +0.000 S 
ATOM      2  O   UNL     1       5.097   6.230  18.948  0.00  0.00    +0.000 OA
ATOM      3  O   UNL     1       5.928   3.866  19.202  0.00  0.00    +0.000 OA
ENDROOT
BRANCH   1   4
ATOM      4  C   UNL     1       5.633   4.824  16.824  0.00  0.00    +0.000 A 
ATOM      5  C   UNL     1       6.953   5.148  16.484  0.00  0.00    +0.000 A 
ATOM      6  C   UNL     1       7.392   4.960  15.171  0.00  0.00    +0.000 A 
ATOM      7  C   UNL     1       6.517   4.448  14.212  0.00  0.00    +0.000 A 
ATOM      8 CL   UNL     1       7.071   4.184  12.605  0.00  0.00    +0.000 Cl
ATOM      9  C   UNL     1       5.203   4.125  14.551  0.00  0.00    +0.000 A 
ATOM     10  C   UNL     1       4.758   4.303  15.861  0.00  0.00    +0.000 A 
ENDBRANCH   1   4
BRANCH   1  11
ATOM     11  N   UNL     1       3.546   4.214  18.480  0.00  0.00    +0.000 NA
ATOM     12  H   UNL     1       2.881   4.981  18.581  0.00  0.00    +0.000 HD
BRANCH  11  13
ATOM     13  C   UNL     1       3.143   2.954  19.169  0.00  0.00    +0.000 C 
BRANCH  13  15
ATOM     14  C   UNL     1       0.630   2.327  18.887  0.00  0.00    +0.000 C 
ATOM     15  C   UNL     1       1.665   3.126  19.698  0.00  0.00    +0.000 C 
ATOM     16  C   UNL     1       1.484   2.723  21.171  0.00  0.00    +0.000 C 
ENDBRANCH  13  15
BRANCH  13  17
ATOM     17  C   UNL     1       3.225   1.748  18.190  0.00  0.00    +0.000 C 
BRANCH  17  18
ATOM     18  O   UNL     1       4.239   0.813  18.543  0.00  0.00    +0.000 OA
ATOM     19  H   UNL     1       4.297   0.156  17.831  0.00  0.00    +0.000 HD
ENDBRANCH  17  18
ENDBRANCH  13  17
ENDBRANCH  11  13
ENDBRANCH   1  11
TORSDOF 6
ENDMDL
MODEL 8
REMARK VINA RESULT:      -6.1      3.653      6.076
REMARK  Name = 
REMARK  8 active torsions:
REMARK  status: ('A' for Active; 'I' for Inactive)
REMARK    1  A    between atoms: C_1  and  C_2
REMARK    2  A    between atoms: C_2  and  C_3
REMARK    3  A    between atoms: C_2  and  C_4
REMARK    4  A    between atoms: C_4  and  C_5
REMARK    5  A    between atoms: C_4  and  N_7
REMARK    6  A    between atoms: C_5  and  O_6
REMARK    7  A    between atoms: N_7  and  S_8
REMARK    8  A    between atoms: S_8  and  C_11
REMARK                            x       y       z     vdW  Elec       q    Type
REMARK                         _______ _______ _______ _____ _____    ______ ____
ROOT
ATOM      1  S   UNL     1       4.210   3.676  18.125  0.00  0.00    +0.000 S 
ATOM      2  O   UNL     1       3.645   3.680  16.798  0.00  0.00    +0.000 OA
ATOM      3  O   UNL     1       4.133   2.513  18.975  0.00  0.00    +0.000 OA
ENDROOT
BRANCH   1   4
ATOM      4  C   UNL     1       3.435   4.996  19.034  0.00  0.00    +0.000 A 
ATOM      5  C   UNL     1       3.376   6.285  18.489  0.00  0.00    +0.000 A 
ATOM      6  C   UNL     1       2.619   7.270  19.130  0.00  0.00    +0.000 A 
ATOM      7  C   UNL     1       1.928   6.962  20.302  0.00  0.00    +0.000 A 
ATOM      8 CL   UNL     1       0.968   8.167  21.069  0.00  0.00    +0.000 Cl
ATOM      9  C   UNL     1       1.986   5.678  20.845  0.00  0.00    +0.000 A 
ATOM     10  C   UNL     1       2.733   4.687  20.207  0.00  0.00    +0.000 A 
ENDBRANCH   1   4
BRANCH   1  11
ATOM     11  N   UNL     1       5.844   4.124  18.084  0.00  0.00    +0.000 NA
ATOM     12  H   UNL     1       6.160   4.292  19.040  0.00  0.00    +0.000 HD
BRANCH  11  13
ATOM     13  C   UNL     1       6.420   5.056  17.072  0.00  0.00    +0.000 C 
BRANCH  13  15
ATOM     14  C   UNL     1       7.381   7.439  17.502  0.00  0.00    +0.000 C 
ATOM     15  C   UNL     1       7.530   5.932  17.775  0.00  0.00    +0.000 C 
ATOM     16  C   UNL     1       7.580   5.759  19.302  0.00  0.00    +0.000 C 
ENDBRANCH  13  15
BRANCH  13  17
ATOM     17  C   UNL     1       7.039   4.258  15.888  0.00  0.00    +0.000 C 
BRANCH  17  18
ATOM     18  O   UNL     1       6.198   3.205  15.428  0.00  0.00    +0.000 OA
ATOM     19  H   UNL     1       5.289   3.412  15.698  0.00  0.00    +0.000 HD
ENDBRANCH  17  18
ENDBRANCH  13  17
ENDBRANCH  11  13
ENDBRANCH   1  11
TORSDOF 6
ENDMDL
MODEL 9
REMARK VINA RESULT:      -6.1      3.737      6.392
REMARK  Name = 
REMARK  8 active torsions:
REMARK  status: ('A' for Active; 'I' for Inactive)
REMARK    1  A    between atoms: C_1  and  C_2
REMARK    2  A    between atoms: C_2  and  C_3
REMARK    3  A    between atoms: C_2  and  C_4
REMARK    4  A    between atoms: C_4  and  C_5
REMARK    5  A    between atoms: C_4  and  N_7
REMARK    6  A    between atoms: C_5  and  O_6
REMARK    7  A    between atoms: N_7  and  S_8
REMARK    8  A    between atoms: S_8  and  C_11
REMARK                            x       y       z     vdW  Elec       q    Type
REMARK                         _______ _______ _______ _____ _____    ______ ____
ROOT
ATOM      1  S   UNL     1       5.686   5.263  15.900  0.00  0.00    +0.000 S 
ATOM      2  O   UNL     1       6.828   4.712  16.590  0.00  0.00    +0.000 OA
ATOM      3  O   UNL     1       5.602   6.667  15.579  0.00  0.00    +0.000 OA
ENDROOT
BRANCH   1   4
ATOM      4  C   UNL     1       4.248   4.901  16.886  0.00  0.00    +0.000 A 
ATOM      5  C   UNL     1       3.795   3.582  17.009  0.00  0.00    +0.000 A 
ATOM      6  C   UNL     1       2.774   3.286  17.917  0.00  0.00    +0.000 A 
ATOM      7  C   UNL     1       2.218   4.304  18.693  0.00  0.00    +0.000 A 
ATOM      8 CL   UNL     1       0.986   3.932  19.835  0.00  0.00    +0.000 Cl
ATOM      9  C   UNL     1       2.670   5.618  18.569  0.00  0.00    +0.000 A 
ATOM     10  C   UNL     1       3.694   5.920  17.671  0.00  0.00    +0.000 A 
ENDBRANCH   1   4
BRANCH   1  11
ATOM     11  N   UNL     1       5.400   4.430  14.453  0.00  0.00    +0.000 NA
ATOM     12  H   UNL     1       4.590   3.823  14.581  0.00  0.00    +0.000 HD
BRANCH  11  13
ATOM     13  C   UNL     1       6.482   3.844  13.608  0.00  0.00    +0.000 C 
BRANCH  13  15
ATOM     14  C   UNL     1       4.633   3.599  11.789  0.00  0.00    +0.000 C 
ATOM     15  C   UNL     1       5.815   2.927  12.508  0.00  0.00    +0.000 C 
ATOM     16  C   UNL     1       6.792   2.457  11.419  0.00  0.00    +0.000 C 
ENDBRANCH  13  15
BRANCH  13  17
ATOM     17  C   UNL     1       7.315   4.970  12.933  0.00  0.00    +0.000 C 
BRANCH  17  18
ATOM     18  O   UNL     1       8.142   5.677  13.852  0.00  0.00    +0.000 OA
ATOM     19  H   UNL     1       7.902   5.391  14.747  0.00  0.00    +0.000 HD
ENDBRANCH  17  18
ENDBRANCH  13  17
ENDBRANCH  11  13
ENDBRANCH   1  11
TORSDOF 6
ENDMDL
