MODEL 1
REMARK VINA RESULT:      -7.6      0.000      0.000
REMARK  Name = 
REMARK  3 active torsions:
REMARK  status: ('A' for Active; 'I' for Inactive)
REMARK    1  A    between atoms: C_1  and  C_2
REMARK    2  A    between atoms: C_15  and  N_16
REMARK    3  A    between atoms: N_16  and  C_17
REMARK                            x       y       z     vdW  Elec       q    Type
REMARK                         _______ _______ _______ _____ _____    ______ ____
ROOT
ATOM      1  C   UNL     1       3.676   6.979  17.395  0.00  0.00    +0.000 C 
ATOM      2  C   UNL     1       2.773   7.836  18.222  0.00  0.00    +0.000 A 
ATOM      3  C   UNL     1       2.213   7.378  19.411  0.00  0.00    +0.000 A 
ATOM      4  C   UNL     1       1.368   8.213  20.138  0.00  0.00    +0.000 A 
ATOM      5  C   UNL     1       1.059   9.467  19.624  0.00  0.00    +0.000 A 
ATOM      6  N   UNL     1       0.090  10.238  20.273  0.00  0.00    +0.000 N 
ATOM      7  C   UNL     1       0.178  10.601  21.605  0.00  0.00    +0.000 C 
ATOM      8  O   UNL     1       0.933  10.205  22.475  0.00  0.00    +0.000 OA
ATOM      9  C   UNL     1      -0.828  11.644  21.822  0.00  0.00    +0.000 A 
ATOM     10  C   UNL     1      -1.142  12.329  22.980  0.00  0.00    +0.000 A 
ATOM     11  C   UNL     1      -2.194  13.245  22.919  0.00  0.00    +0.000 A 
ATOM     12  C   UNL     1      -2.901  13.446  21.718  0.00  0.00    +0.000 A 
ATOM     13  C   UNL     1      -2.545  12.759  20.552  0.00  0.00    +0.000 A 
ATOM     14  C   UNL     1      -1.485  11.869  20.616  0.00  0.00    +0.000 A 
ATOM     15  C   UNL     1      -0.862  11.030  19.531  0.00  0.00    +0.000 C 
ATOM     16  N   UNL     1       1.594   9.939  18.477  0.00  0.00    +0.000 NA
ATOM     17  C   UNL     1       2.466   9.134  17.829  0.00  0.00    +0.000 A 
ENDROOT
BRANCH  15  18
ATOM     18  N   UNL     1      -1.891  10.151  19.001  0.00  0.00    +0.000 N 
ATOM     19  H   UNL     1      -1.585   9.184  19.048  0.00  0.00    +0.000 HD
BRANCH  18  20
ATOM     20  C   UNL     1      -2.552  10.421  17.799  0.00  0.00    +0.000 A 
ATOM     21  C   UNL     1      -2.074   9.818  16.622  0.00  0.00    +0.000 A 
ATOM     22  C   UNL     1      -2.736   9.962  15.397  0.00  0.00    +0.000 A 
ATOM     23  C   UNL     1      -3.911  10.702  15.334  0.00  0.00    +0.000 A 
ATOM     24  C   UNL     1      -4.423  11.285  16.489  0.00  0.00    +0.000 A 
ATOM     25  C   UNL     1      -3.754  11.129  17.709  0.00  0.00    +0.000 A 
ENDBRANCH  18  20
ENDBRANCH  15  18
TORSDOF 2
ENDMDL
MODEL 2
REMARK VINA RESULT:      -7.5      0.500      1.096
REMARK  Name = 
REMARK  3 active torsions:
REMARK  status: ('A' for Active; 'I' for Inactive)
REMARK    1  A    between atoms: C_1  and  C_2
REMARK    2  A    between atoms: C_15  and  N_16
REMARK    3  A    between atoms: N_16  and  C_17
REMARK                            x       y       z     vdW  Elec       q    Type
REMARK                         _______ _______ _______ _____ _____    ______ ____
ROOT
ATOM      1  C   UNL     1       3.448   6.115  17.798  0.00  0.00    +0.000 C 
ATOM      2  C   UNL     1       2.646   7.163  18.497  0.00  0.00    +0.000 A 
ATOM      3  C   UNL     1       2.094   6.946  19.757  0.00  0.00    +0.000 A 
ATOM      4  C   UNL     1       1.343   7.952  20.360  0.00  0.00    +0.000 A 
ATOM      5  C   UNL     1       1.116   9.131  19.660  0.00  0.00    +0.000 A 
ATOM      6  N   UNL     1       0.235  10.073  20.199  0.00  0.00    +0.000 N 
ATOM      7  C   UNL     1       0.399  10.632  21.454  0.00  0.00    +0.000 C 
ATOM      8  O   UNL     1       1.150  10.316  22.359  0.00  0.00    +0.000 OA
ATOM      9  C   UNL     1      -0.514  11.776  21.525  0.00  0.00    +0.000 A 
ATOM     10  C   UNL     1      -0.732  12.658  22.565  0.00  0.00    +0.000 A 
ATOM     11  C   UNL     1      -1.710  13.638  22.383  0.00  0.00    +0.000 A 
ATOM     12  C   UNL     1      -2.440  13.706  21.181  0.00  0.00    +0.000 A 
ATOM     13  C   UNL     1      -2.181  12.818  20.132  0.00  0.00    +0.000 A 
ATOM     14  C   UNL     1      -1.193  11.863  20.313  0.00  0.00    +0.000 A 
ATOM     15  C   UNL     1      -0.677  10.815  19.362  0.00  0.00    +0.000 C 
ATOM     16  N   UNL     1       1.646   9.371  18.441  0.00  0.00    +0.000 NA
ATOM     17  C   UNL     1       2.428   8.404  17.910  0.00  0.00    +0.000 A 
ENDROOT
BRANCH  15  18
ATOM     18  N   UNL     1      -1.791   9.952  19.002  0.00  0.00    +0.000 N 
ATOM     19  H   UNL     1      -1.552   8.982  19.175  0.00  0.00    +0.000 HD
BRANCH  18  20
ATOM     20  C   UNL     1      -2.488  10.103  17.800  0.00  0.00    +0.000 A 
ATOM     21  C   UNL     1      -3.715  10.790  17.820  0.00  0.00    +0.000 A 
ATOM     22  C   UNL     1      -4.425  11.066  16.644  0.00  0.00    +0.000 A 
ATOM     23  C   UNL     1      -3.904  10.672  15.417  0.00  0.00    +0.000 A 
ATOM     24  C   UNL     1      -2.678  10.017  15.367  0.00  0.00    +0.000 A 
ATOM     25  C   UNL     1      -1.974   9.752  16.548  0.00  0.00    +0.000 A 
ENDBRANCH  18  20
ENDBRANCH  15  18
TORSDOF 2
ENDMDL
MODEL 3
REMARK VINA RESULT:      -7.3      2.960      7.755
REMARK  Name = 
REMARK  3 active torsions:
REMARK  status: ('A' for Active; 'I' for Inactive)
REMARK    1  A    between atoms: C_1  and  C_2
REMARK    2  A    between atoms: C_15  and  N_16
REMARK    3  A    between atoms: N_16  and  C_17
REMARK                            x       y       z     vdW  Elec       q    Type
REMARK                         _______ _______ _______ _____ _____    ______ ____
ROOT
ATOM      1  C   UNL     1      -1.282  11.486  22.676  0.00  0.00    +0.000 C 
ATOM      2  C   UNL     1      -0.444  10.668  21.748  0.00  0.00    +0.000 A 
ATOM      3  C   UNL     1      -0.776  10.512  20.405  0.00  0.00    +0.000 A 
ATOM      4  C   UNL     1       0.033   9.728  19.585  0.00  0.00    +0.000 A 
ATOM      5  C   UNL     1       1.123   9.073  20.146  0.00  0.00    +0.000 A 
ATOM      6  N   UNL     1       1.837   8.165  19.360  0.00  0.00    +0.000 N 
ATOM      7  C   UNL     1       2.427   8.506  18.156  0.00  0.00    +0.000 C 
ATOM      8  O   UNL     1       2.299   9.511  17.478  0.00  0.00    +0.000 OA
ATOM      9  C   UNL     1       3.329   7.406  17.804  0.00  0.00    +0.000 A 
ATOM     10  C   UNL     1       4.142   7.261  16.697  0.00  0.00    +0.000 A 
ATOM     11  C   UNL     1       4.867   6.073  16.584  0.00  0.00    +0.000 A 
ATOM     12  C   UNL     1       4.757   5.070  17.566  0.00  0.00    +0.000 A 
ATOM     13  C   UNL     1       3.947   5.253  18.691  0.00  0.00    +0.000 A 
ATOM     14  C   UNL     1       3.249   6.444  18.807  0.00  0.00    +0.000 A 
ATOM     15  C   UNL     1       2.342   6.930  19.909  0.00  0.00    +0.000 C 
ATOM     16  N   UNL     1       1.472   9.214  21.443  0.00  0.00    +0.000 NA
ATOM     17  C   UNL     1       0.709  10.036  22.199  0.00  0.00    +0.000 A 
ENDROOT
BRANCH  15  18
ATOM     18  N   UNL     1       1.243   5.986  20.031  0.00  0.00    +0.000 N 
ATOM     19  H   UNL     1       0.533   6.355  20.654  0.00  0.00    +0.000 HD
BRANCH  18  20
ATOM     20  C   UNL     1       1.456   4.622  20.246  0.00  0.00    +0.000 A 
ATOM     21  C   UNL     1       1.178   3.727  19.198  0.00  0.00    +0.000 A 
ATOM     22  C   UNL     1       1.455   2.358  19.302  0.00  0.00    +0.000 A 
ATOM     23  C   UNL     1       2.040   1.862  20.462  0.00  0.00    +0.000 A 
ATOM     24  C   UNL     1       2.353   2.729  21.502  0.00  0.00    +0.000 A 
ATOM     25  C   UNL     1       2.077   4.097  21.385  0.00  0.00    +0.000 A 
ENDBRANCH  18  20
ENDBRANCH  15  18
TORSDOF 2
ENDMDL
MODEL 4
REMARK VINA RESULT:      -7.3      5.279      8.226
REMARK  Name = 
REMARK  3 active torsions:
REMARK  status: ('A' for Active; 'I' for Inactive)
REMARK    1  A    between atoms: C_1  and  C_2
REMARK    2  A    between atoms: C_15  and  N_16
REMARK    3  A    between atoms: N_16  and  C_17
REMARK                            x       y       z     vdW  Elec       q    Type
REMARK                         _______ _______ _______ _____ _____    ______ ____
ROOT
ATOM      1  C   UNL     1       7.846   5.137  13.665  0.00  0.00    +0.000 C 
ATOM      2  C   UNL     1       6.794   4.839  14.683  0.00  0.00    +0.000 A 
ATOM      3  C   UNL     1       5.468   5.221  14.501  0.00  0.00    +0.000 A 
ATOM      4  C   UNL     1       4.529   4.930  15.488  0.00  0.00    +0.000 A 
ATOM      5  C   UNL     1       4.954   4.315  16.659  0.00  0.00    +0.000 A 
ATOM      6  N   UNL     1       4.043   4.167  17.708  0.00  0.00    +0.000 N 
ATOM      7  C   UNL     1       2.838   3.501  17.577  0.00  0.00    +0.000 C 
ATOM      8  O   UNL     1       2.264   3.111  16.576  0.00  0.00    +0.000 OA
ATOM      9  C   UNL     1       2.329   3.284  18.935  0.00  0.00    +0.000 A 
ATOM     10  C   UNL     1       1.161   2.669  19.343  0.00  0.00    +0.000 A 
ATOM     11  C   UNL     1       0.894   2.645  20.714  0.00  0.00    +0.000 A 
ATOM     12  C   UNL     1       1.786   3.236  21.628  0.00  0.00    +0.000 A 
ATOM     13  C   UNL     1       2.975   3.829  21.190  0.00  0.00    +0.000 A 
ATOM     14  C   UNL     1       3.244   3.827  19.831  0.00  0.00    +0.000 A 
ATOM     15  C   UNL     1       4.443   4.350  19.083  0.00  0.00    +0.000 C 
ATOM     16  N   UNL     1       6.232   3.926  16.858  0.00  0.00    +0.000 NA
ATOM     17  C   UNL     1       7.108   4.159  15.854  0.00  0.00    +0.000 A 
ENDROOT
BRANCH  15  18
ATOM     18  N   UNL     1       4.553   5.773  19.355  0.00  0.00    +0.000 N 
ATOM     19  H   UNL     1       4.879   5.924  20.304  0.00  0.00    +0.000 HD
BRANCH  18  20
ATOM     20  C   UNL     1       3.542   6.675  19.010  0.00  0.00    +0.000 A 
ATOM     21  C   UNL     1       2.582   7.008  19.981  0.00  0.00    +0.000 A 
ATOM     22  C   UNL     1       1.597   7.975  19.744  0.00  0.00    +0.000 A 
ATOM     23  C   UNL     1       1.569   8.644  18.526  0.00  0.00    +0.000 A 
ATOM     24  C   UNL     1       2.526   8.356  17.559  0.00  0.00    +0.000 A 
ATOM     25  C   UNL     1       3.510   7.391  17.809  0.00  0.00    +0.000 A 
ENDBRANCH  18  20
ENDBRANCH  15  18
TORSDOF 2
ENDMDL
MODEL 5
REMARK VINA RESULT:      -7.2      4.830      7.962
REMARK  Name = 
REMARK  3 active torsions:
REMARK  status: ('A' for Active; 'I' for Inactive)
REMARK    1  A    between atoms: C_1  and  C_2
REMARK    2  A    between atoms: C_15  and  N_16
REMARK    3  A    between atoms: N_16  and  C_17
REMARK                            x       y       z     vdW  Elec       q    Type
REMARK                         _______ _______ _______ _____ _____    ______ ____
ROOT
ATOM      1  C   UNL     1       7.790   5.376  13.706  0.00  0.00    +0.000 C 
ATOM      2  C   UNL     1       6.833   4.947  14.770  0.00  0.00    +0.000 A 
ATOM      3  C   UNL     1       5.794   4.057  14.506  0.00  0.00    +0.000 A 
ATOM      4  C   UNL     1       4.921   3.699  15.531  0.00  0.00    +0.000 A 
ATOM      5  C   UNL     1       5.075   4.287  16.781  0.00  0.00    +0.000 A 
ATOM      6  N   UNL     1       4.107   4.048  17.759  0.00  0.00    +0.000 N 
ATOM      7  C   UNL     1       3.766   2.779  18.193  0.00  0.00    +0.000 C 
ATOM      8  O   UNL     1       4.051   1.690  17.728  0.00  0.00    +0.000 OA
ATOM      9  C   UNL     1       2.975   2.953  19.415  0.00  0.00    +0.000 A 
ATOM     10  C   UNL     1       2.395   1.996  20.225  0.00  0.00    +0.000 A 
ATOM     11  C   UNL     1       1.642   2.446  21.311  0.00  0.00    +0.000 A 
ATOM     12  C   UNL     1       1.483   3.823  21.553  0.00  0.00    +0.000 A 
ATOM     13  C   UNL     1       2.103   4.771  20.732  0.00  0.00    +0.000 A 
ATOM     14  C   UNL     1       2.869   4.317  19.670  0.00  0.00    +0.000 A 
ATOM     15  C   UNL     1       3.671   5.091  18.657  0.00  0.00    +0.000 C 
ATOM     16  N   UNL     1       6.079   5.146  17.065  0.00  0.00    +0.000 NA
ATOM     17  C   UNL     1       6.952   5.422  16.070  0.00  0.00    +0.000 A 
ENDROOT
BRANCH  15  18
ATOM     18  N   UNL     1       2.760   5.972  17.945  0.00  0.00    +0.000 N 
ATOM     19  H   UNL     1       3.007   6.011  16.962  0.00  0.00    +0.000 HD
BRANCH  18  20
ATOM     20  C   UNL     1       2.412   7.234  18.437  0.00  0.00    +0.000 A 
ATOM     21  C   UNL     1       2.350   8.310  17.534  0.00  0.00    +0.000 A 
ATOM     22  C   UNL     1       1.917   9.581  17.930  0.00  0.00    +0.000 A 
ATOM     23  C   UNL     1       1.516   9.793  19.245  0.00  0.00    +0.000 A 
ATOM     24  C   UNL     1       1.539   8.738  20.151  0.00  0.00    +0.000 A 
ATOM     25  C   UNL     1       1.969   7.470  19.742  0.00  0.00    +0.000 A 
ENDBRANCH  18  20
ENDBRANCH  15  18
TORSDOF 2
ENDMDL
MODEL 6
REMARK VINA RESULT:      -7.2      3.657      8.558
REMARK  Name = 
REMARK  3 active torsions:
REMARK  status: ('A' for Active; 'I' for Inactive)
REMARK    1  A    between atoms: C_1  and  C_2
REMARK    2  A    between atoms: C_15  and  N_16
REMARK    3  A    between atoms: N_16  and  C_17
REMARK                            x       y       z     vdW  Elec       q    Type
REMARK                         _______ _______ _______ _____ _____    ______ ____
ROOT
ATOM      1  C   UNL     1       0.911  11.682  19.110  0.00  0.00    +0.000 C 
ATOM      2  C   UNL     1       1.196  10.216  19.150  0.00  0.00    +0.000 A 
ATOM      3  C   UNL     1       1.542   9.569  20.333  0.00  0.00    +0.000 A 
ATOM      4  C   UNL     1       1.811   8.202  20.313  0.00  0.00    +0.000 A 
ATOM      5  C   UNL     1       1.783   7.529  19.097  0.00  0.00    +0.000 A 
ATOM      6  N   UNL     1       2.206   6.198  19.056  0.00  0.00    +0.000 N 
ATOM      7  C   UNL     1       1.643   5.201  19.832  0.00  0.00    +0.000 C 
ATOM      8  O   UNL     1       0.873   5.281  20.773  0.00  0.00    +0.000 OA
ATOM      9  C   UNL     1       2.119   3.926  19.286  0.00  0.00    +0.000 A 
ATOM     10  C   UNL     1       1.850   2.639  19.707  0.00  0.00    +0.000 A 
ATOM     11  C   UNL     1       2.486   1.596  19.031  0.00  0.00    +0.000 A 
ATOM     12  C   UNL     1       3.370   1.864  17.969  0.00  0.00    +0.000 A 
ATOM     13  C   UNL     1       3.604   3.176  17.544  0.00  0.00    +0.000 A 
ATOM     14  C   UNL     1       2.951   4.203  18.205  0.00  0.00    +0.000 A 
ATOM     15  C   UNL     1       2.979   5.688  17.949  0.00  0.00    +0.000 C 
ATOM     16  N   UNL     1       1.443   8.132  17.937  0.00  0.00    +0.000 NA
ATOM     17  C   UNL     1       1.119   9.444  17.997  0.00  0.00    +0.000 A 
ENDROOT
BRANCH  15  18
ATOM     18  N   UNL     1       4.354   6.139  18.089  0.00  0.00    +0.000 N 
ATOM     19  H   UNL     1       4.378   7.136  18.277  0.00  0.00    +0.000 HD
BRANCH  18  20
ATOM     20  C   UNL     1       5.354   5.763  17.188  0.00  0.00    +0.000 A 
ATOM     21  C   UNL     1       6.515   5.153  17.694  0.00  0.00    +0.000 A 
ATOM     22  C   UNL     1       7.519   4.661  16.850  0.00  0.00    +0.000 A 
ATOM     23  C   UNL     1       7.364   4.755  15.471  0.00  0.00    +0.000 A 
ATOM     24  C   UNL     1       6.212   5.327  14.944  0.00  0.00    +0.000 A 
ATOM     25  C   UNL     1       5.213   5.810  15.797  0.00  0.00    +0.000 A 
ENDBRANCH  18  20
ENDBRANCH  15  18
TORSDOF 2
ENDMDL
MODEL 7
REMARK VINA RESULT:      -7.0      2.885      7.753
REMARK  Name = 
REMARK  3 active torsions:
REMARK  status: ('A' for Active; 'I' for Inactive)
REMARK    1  A    between atoms: C_1  and  C_2
REMARK    2  A    between atoms: C_15  and  N_16
REMARK    3  A    between atoms: N_16  and  C_17
REMARK                            x       y       z     vdW  Elec       q    Type
REMARK                         _______ _______ _______ _____ _____    ______ ____
ROOT
ATOM      1  C   UNL     1      -1.514  11.846  21.792  0.00  0.00    +0.000 C 
ATOM      2  C   UNL     1      -0.604  10.913  21.062  0.00  0.00    +0.000 A 
ATOM      3  C   UNL     1      -0.868  10.501  19.758  0.00  0.00    +0.000 A 
ATOM      4  C   UNL     1       0.006   9.620  19.127  0.00  0.00    +0.000 A 
ATOM      5  C   UNL     1       1.094   9.127  19.839  0.00  0.00    +0.000 A 
ATOM      6  N   UNL     1       1.878   8.126  19.260  0.00  0.00    +0.000 N 
ATOM      7  C   UNL     1       2.508   8.270  18.037  0.00  0.00    +0.000 C 
ATOM      8  O   UNL     1       2.373   9.129  17.183  0.00  0.00    +0.000 OA
ATOM      9  C   UNL     1       3.467   7.167  17.927  0.00  0.00    +0.000 A 
ATOM     10  C   UNL     1       4.335   6.862  16.897  0.00  0.00    +0.000 A 
ATOM     11  C   UNL     1       5.110   5.707  17.031  0.00  0.00    +0.000 A 
ATOM     12  C   UNL     1       4.993   4.894  18.174  0.00  0.00    +0.000 A 
ATOM     13  C   UNL     1       4.125   5.241  19.215  0.00  0.00    +0.000 A 
ATOM     14  C   UNL     1       3.378   6.400  19.085  0.00  0.00    +0.000 A 
ATOM     15  C   UNL     1       2.404   7.035  20.044  0.00  0.00    +0.000 C 
ATOM     16  N   UNL     1       1.377   9.517  21.101  0.00  0.00    +0.000 NA
ATOM     17  C   UNL     1       0.550  10.426  21.664  0.00  0.00    +0.000 A 
ENDROOT
BRANCH  15  18
ATOM     18  N   UNL     1       1.337   6.079  20.294  0.00  0.00    +0.000 N 
ATOM     19  H   UNL     1       0.831   6.333  21.136  0.00  0.00    +0.000 HD
BRANCH  18  20
ATOM     20  C   UNL     1       1.543   4.699  20.215  0.00  0.00    +0.000 A 
ATOM     21  C   UNL     1       1.969   4.019  21.369  0.00  0.00    +0.000 A 
ATOM     22  C   UNL     1       2.104   2.625  21.397  0.00  0.00    +0.000 A 
ATOM     23  C   UNL     1       1.793   1.881  20.264  0.00  0.00    +0.000 A 
ATOM     24  C   UNL     1       1.341   2.527  19.118  0.00  0.00    +0.000 A 
ATOM     25  C   UNL     1       1.204   3.920  19.104  0.00  0.00    +0.000 A 
ENDBRANCH  18  20
ENDBRANCH  15  18
TORSDOF 2
ENDMDL
MODEL 8
REMARK VINA RESULT:      -6.9     10.308     11.568
REMARK  Name = 
REMARK  3 active torsions:
REMARK  status: ('A' for Active; 'I' for Inactive)
REMARK    1  A    between atoms: C_1  and  C_2
REMARK    2  A    between atoms: C_15  and  N_16
REMARK    3  A    between atoms: N_16  and  C_17
REMARK                            x       y       z     vdW  Elec       q    Type
REMARK                         _______ _______ _______ _____ _____    ______ ____
ROOT
ATOM      1  C   UNL     1      10.442  16.111  16.885  0.00  0.00    +0.000 C 
ATOM      2  C   UNL     1      10.123  15.691  18.283  0.00  0.00    +0.000 A 
ATOM      3  C   UNL     1      10.989  15.950  19.342  0.00  0.00    +0.000 A 
ATOM      4  C   UNL     1      10.650  15.525  20.624  0.00  0.00    +0.000 A 
ATOM      5  C   UNL     1       9.478  14.801  20.804  0.00  0.00    +0.000 A 
ATOM      6  N   UNL     1       9.219  14.243  22.058  0.00  0.00    +0.000 N 
ATOM      7  C   UNL     1       9.155  14.989  23.221  0.00  0.00    +0.000 C 
ATOM      8  O   UNL     1       9.476  16.146  23.427  0.00  0.00    +0.000 OA
ATOM      9  C   UNL     1       8.561  14.122  24.244  0.00  0.00    +0.000 A 
ATOM     10  C   UNL     1       8.289  14.394  25.570  0.00  0.00    +0.000 A 
ATOM     11  C   UNL     1       7.764  13.356  26.344  0.00  0.00    +0.000 A 
ATOM     12  C   UNL     1       7.535  12.087  25.779  0.00  0.00    +0.000 A 
ATOM     13  C   UNL     1       7.794  11.847  24.426  0.00  0.00    +0.000 A 
ATOM     14  C   UNL     1       8.292  12.888  23.660  0.00  0.00    +0.000 A 
ATOM     15  C   UNL     1       8.626  12.934  22.191  0.00  0.00    +0.000 C 
ATOM     16  N   UNL     1       8.616  14.544  19.796  0.00  0.00    +0.000 NA
ATOM     17  C   UNL     1       8.937  15.028  18.575  0.00  0.00    +0.000 A 
ENDROOT
BRANCH  15  18
ATOM     18  N   UNL     1       9.644  11.928  21.933  0.00  0.00    +0.000 N 
ATOM     19  H   UNL     1      10.406  12.024  22.596  0.00  0.00    +0.000 HD
BRANCH  18  20
ATOM     20  C   UNL     1      10.114  11.661  20.645  0.00  0.00    +0.000 A 
ATOM     21  C   UNL     1       9.216  11.133  19.701  0.00  0.00    +0.000 A 
ATOM     22  C   UNL     1       9.585  10.929  18.365  0.00  0.00    +0.000 A 
ATOM     23  C   UNL     1      10.865  11.272  17.945  0.00  0.00    +0.000 A 
ATOM     24  C   UNL     1      11.763  11.824  18.851  0.00  0.00    +0.000 A 
ATOM     25  C   UNL     1      11.382  12.029  20.183  0.00  0.00    +0.000 A 
ENDBRANCH  18  20
ENDBRANCH  15  18
TORSDOF 2
ENDMDL
MODEL 9
REMARK VINA RESULT:      -6.8      0.956      1.088
REMARK  Name = 
REMARK  3 active torsions:
REMARK  status: ('A' for Active; 'I' for Inactive)
REMARK    1  A    between atoms: C_1  and  C_2
REMARK    2  A    between atoms: C_15  and  N_16
REMARK    3  A    between atoms: N_16  and  C_17
REMARK                            x       y       z     vdW  Elec       q    Type
REMARK                         _______ _______ _______ _____ _____    ______ ____
ROOT
ATOM      1  C   UNL     1       3.122   5.173  18.906  0.00  0.00    +0.000 C 
ATOM      2  C   UNL     1       2.413   6.400  19.380  0.00  0.00    +0.000 A 
ATOM      3  C   UNL     1       1.687   6.414  20.568  0.00  0.00    +0.000 A 
ATOM      4  C   UNL     1       1.033   7.581  20.957  0.00  0.00    +0.000 A 
ATOM      5  C   UNL     1       1.076   8.688  20.118  0.00  0.00    +0.000 A 
ATOM      6  N   UNL     1       0.292   9.801  20.433  0.00  0.00    +0.000 N 
ATOM      7  C   UNL     1       0.388  10.478  21.635  0.00  0.00    +0.000 C 
ATOM      8  O   UNL     1       0.967  10.171  22.663  0.00  0.00    +0.000 OA
ATOM      9  C   UNL     1      -0.340  11.739  21.465  0.00  0.00    +0.000 A 
ATOM     10  C   UNL     1      -0.543  12.761  22.372  0.00  0.00    +0.000 A 
ATOM     11  C   UNL     1      -1.329  13.839  21.959  0.00  0.00    +0.000 A 
ATOM     12  C   UNL     1      -1.891  13.863  20.668  0.00  0.00    +0.000 A 
ATOM     13  C   UNL     1      -1.647  12.828  19.760  0.00  0.00    +0.000 A 
ATOM     14  C   UNL     1      -0.847  11.774  20.170  0.00  0.00    +0.000 A 
ATOM     15  C   UNL     1      -0.388  10.557  19.409  0.00  0.00    +0.000 C 
ATOM     16  N   UNL     1       1.779   8.703  18.964  0.00  0.00    +0.000 NA
ATOM     17  C   UNL     1       2.461   7.579  18.645  0.00  0.00    +0.000 A 
ENDROOT
BRANCH  15  18
ATOM     18  N   UNL     1      -1.570   9.821  18.989  0.00  0.00    +0.000 N 
ATOM     19  H   UNL     1      -1.362   8.830  18.929  0.00  0.00    +0.000 HD
BRANCH  18  20
ATOM     20  C   UNL     1      -2.367  10.244  17.922  0.00  0.00    +0.000 A 
ATOM     21  C   UNL     1      -1.942   9.956  16.613  0.00  0.00    +0.000 A 
ATOM     22  C   UNL     1      -2.730  10.261  15.496  0.00  0.00    +0.000 A 
ATOM     23  C   UNL     1      -3.979  10.846  15.675  0.00  0.00    +0.000 A 
ATOM     24  C   UNL     1      -4.437  11.114  16.961  0.00  0.00    +0.000 A 
ATOM     25  C   UNL     1      -3.642  10.800  18.070  0.00  0.00    +0.000 A 
ENDBRANCH  18  20
ENDBRANCH  15  18
TORSDOF 2
ENDMDL
