MODEL 1
REMARK VINA RESULT:      -7.9      0.000      0.000
REMARK  Name = 
REMARK  13 active torsions:
REMARK  status: ('A' for Active; 'I' for Inactive)
REMARK    1  A    between atoms: C_2  and  C_3
REMARK    2  A    between atoms: C_3  and  C_4
REMARK    3  A    between atoms: C_4  and  C_5
REMARK    4  A    between atoms: C_5  and  C_6
REMARK    5  A    between atoms: C_6  and  C_7
REMARK    6  A    between atoms: C_7  and  N_8
REMARK    7  A    between atoms: N_8  and  C_9
REMARK    8  A    between atoms: C_9  and  N_11
REMARK    9  A    between atoms: N_11  and  N_12
REMARK   10  A    between atoms: C_13  and  C_14
REMARK   11  A    between atoms: C_13  and  C_20
REMARK   12  A    between atoms: C_25  and  N_26
REMARK   13  A    between atoms: N_29  and  O_30
REMARK                            x       y       z     vdW  Elec       q    Type
REMARK                         _______ _______ _______ _____ _____    ______ ____
ROOT
ATOM      1  N   UNL     1       4.939   6.792  17.965  0.00  0.00    +0.000 N 
ATOM      2  H   UNL     1       4.631   7.742  18.145  0.00  0.00    +0.000 HD
ENDROOT
BRANCH   1   3
ATOM      3  C   UNL     1       6.267   6.628  17.716  0.00  0.00    +0.000 C 
ATOM      4  S   UNL     1       7.035   5.216  18.164  0.00  0.00    +0.000 S 
BRANCH   3   5
ATOM      5  N   UNL     1       6.995   7.621  17.147  0.00  0.00    +0.000 N 
ATOM      6  H   UNL     1       6.615   7.943  16.265  0.00  0.00    +0.000 HD
BRANCH   5   7
ATOM      7  C   UNL     1       8.243   8.238  17.575  0.00  0.00    +0.000 C 
BRANCH   7   8
ATOM      8  C   UNL     1       8.185   9.674  18.118  0.00  0.00    +0.000 C 
BRANCH   8   9
ATOM      9  C   UNL     1       9.018   9.936  19.375  0.00  0.00    +0.000 C 
BRANCH   9  10
ATOM     10  C   UNL     1      10.096  10.990  19.170  0.00  0.00    +0.000 C 
BRANCH  10  11
ATOM     11  C   UNL     1      10.166  11.425  17.711  0.00  0.00    +0.000 C 
BRANCH  11  13
ATOM     12  O   UNL     1      10.821  13.730  17.524  0.00  0.00    +0.000 OA
ATOM     13  C   UNL     1       9.920  12.896  17.547  0.00  0.00    +0.000 C 
ATOM     14  N   UNL     1       8.594  13.240  17.479  0.00  0.00    +0.000 N 
ATOM     15  H   UNL     1       7.828  12.592  17.335  0.00  0.00    +0.000 HD
BRANCH  14  16
ATOM     16  O   UNL     1       8.320  14.614  17.303  0.00  0.00    +0.000 OA
ATOM     17  H   UNL     1       8.414  14.959  18.218  0.00  0.00    +0.000 HD
ENDBRANCH  14  16
ENDBRANCH  11  13
ENDBRANCH  10  11
ENDBRANCH   9  10
ENDBRANCH   8   9
ENDBRANCH   7   8
ENDBRANCH   5   7
ENDBRANCH   3   5
ENDBRANCH   1   3
BRANCH   1  18
ATOM     18  N   UNL     1       4.211   5.765  18.472  0.00  0.00    +0.000 NA
ATOM     19  C   UNL     1       3.040   5.958  18.993  0.00  0.00    +0.000 C 
BRANCH  19  20
ATOM     20  C   UNL     1       2.314   7.271  19.002  0.00  0.00    +0.000 A 
ATOM     21  C   UNL     1       2.059   7.975  17.817  0.00  0.00    +0.000 A 
ATOM     22  C   UNL     1       1.431   9.223  17.868  0.00  0.00    +0.000 A 
ATOM     23  C   UNL     1       1.017   9.748  19.092  0.00  0.00    +0.000 A 
ATOM     24  C   UNL     1       1.236   9.033  20.268  0.00  0.00    +0.000 A 
ATOM     25  C   UNL     1       1.901   7.810  20.227  0.00  0.00    +0.000 A 
ENDBRANCH  19  20
BRANCH  19  26
ATOM     26  C   UNL     1       2.400   4.757  19.652  0.00  0.00    +0.000 A 
ATOM     27  C   UNL     1       2.393   4.662  21.054  0.00  0.00    +0.000 A 
ATOM     28  C   UNL     1       1.953   3.496  21.694  0.00  0.00    +0.000 A 
ATOM     29  C   UNL     1       1.463   2.425  20.952  0.00  0.00    +0.000 A 
ATOM     30  C   UNL     1       1.371   2.531  19.571  0.00  0.00    +0.000 A 
ATOM     31  C   UNL     1       1.825   3.699  18.933  0.00  0.00    +0.000 A 
BRANCH  31  32
ATOM     32  N   UNL     1       1.678   3.698  17.489  0.00  0.00    +0.000 N 
ATOM     33  O   UNL     1       0.771   4.412  17.023  0.00  0.00    +0.000 OA
ATOM     34  O   UNL     1       2.564   3.124  16.836  0.00  0.00    +0.000 OA
ENDBRANCH  31  32
ENDBRANCH  19  26
ENDBRANCH   1  18
TORSDOF 13
ENDMDL
MODEL 2
REMARK VINA RESULT:      -7.8      4.494      7.470
REMARK  Name = 
REMARK  13 active torsions:
REMARK  status: ('A' for Active; 'I' for Inactive)
REMARK    1  A    between atoms: C_2  and  C_3
REMARK    2  A    between atoms: C_3  and  C_4
REMARK    3  A    between atoms: C_4  and  C_5
REMARK    4  A    between atoms: C_5  and  C_6
REMARK    5  A    between atoms: C_6  and  C_7
REMARK    6  A    between atoms: C_7  and  N_8
REMARK    7  A    between atoms: N_8  and  C_9
REMARK    8  A    between atoms: C_9  and  N_11
REMARK    9  A    between atoms: N_11  and  N_12
REMARK   10  A    between atoms: C_13  and  C_14
REMARK   11  A    between atoms: C_13  and  C_20
REMARK   12  A    between atoms: C_25  and  N_26
REMARK   13  A    between atoms: N_29  and  O_30
REMARK                            x       y       z     vdW  Elec       q    Type
REMARK                         _______ _______ _______ _____ _____    ______ ____
ROOT
ATOM      1  N   UNL     1       2.816   7.110  19.510  0.00  0.00    +0.000 N 
ATOM      2  H   UNL     1       3.072   6.971  20.482  0.00  0.00    +0.000 HD
ENDROOT
BRANCH   1   3
ATOM      3  C   UNL     1       1.950   8.130  19.257  0.00  0.00    +0.000 C 
ATOM      4  S   UNL     1       2.082   9.008  17.844  0.00  0.00    +0.000 S 
BRANCH   3   5
ATOM      5  N   UNL     1       1.004   8.479  20.164  0.00  0.00    +0.000 N 
ATOM      6  H   UNL     1       0.065   8.481  19.784  0.00  0.00    +0.000 HD
BRANCH   5   7
ATOM      7  C   UNL     1       1.140   8.899  21.552  0.00  0.00    +0.000 C 
BRANCH   7   8
ATOM      8  C   UNL     1      -0.139   9.027  22.392  0.00  0.00    +0.000 C 
BRANCH   8   9
ATOM      9  C   UNL     1      -0.528  10.454  22.788  0.00  0.00    +0.000 C 
BRANCH   9  10
ATOM     10  C   UNL     1      -0.192  11.484  21.719  0.00  0.00    +0.000 C 
BRANCH  10  11
ATOM     11  C   UNL     1      -1.440  11.905  20.952  0.00  0.00    +0.000 C 
BRANCH  11  13
ATOM     12  O   UNL     1      -0.994  10.482  19.066  0.00  0.00    +0.000 OA
ATOM     13  C   UNL     1      -1.339  11.582  19.490  0.00  0.00    +0.000 C 
ATOM     14  N   UNL     1      -1.616  12.639  18.660  0.00  0.00    +0.000 N 
ATOM     15  H   UNL     1      -2.053  13.507  18.945  0.00  0.00    +0.000 HD
BRANCH  14  16
ATOM     16  O   UNL     1      -1.554  12.370  17.276  0.00  0.00    +0.000 OA
ATOM     17  H   UNL     1      -0.782  12.912  16.998  0.00  0.00    +0.000 HD
ENDBRANCH  14  16
ENDBRANCH  11  13
ENDBRANCH  10  11
ENDBRANCH   9  10
ENDBRANCH   8   9
ENDBRANCH   7   8
ENDBRANCH   5   7
ENDBRANCH   3   5
ENDBRANCH   1   3
BRANCH   1  18
ATOM     18  N   UNL     1       3.673   6.691  18.545  0.00  0.00    +0.000 NA
ATOM     19  C   UNL     1       3.792   5.435  18.244  0.00  0.00    +0.000 C 
BRANCH  19  20
ATOM     20  C   UNL     1       2.952   4.335  18.820  0.00  0.00    +0.000 A 
ATOM     21  C   UNL     1       3.322   3.670  19.998  0.00  0.00    +0.000 A 
ATOM     22  C   UNL     1       2.544   2.610  20.475  0.00  0.00    +0.000 A 
ATOM     23  C   UNL     1       1.377   2.243  19.806  0.00  0.00    +0.000 A 
ATOM     24  C   UNL     1       0.987   2.926  18.656  0.00  0.00    +0.000 A 
ATOM     25  C   UNL     1       1.781   3.953  18.152  0.00  0.00    +0.000 A 
ENDBRANCH  19  20
BRANCH  19  26
ATOM     26  C   UNL     1       4.884   5.089  17.257  0.00  0.00    +0.000 A 
ATOM     27  C   UNL     1       4.536   4.687  15.956  0.00  0.00    +0.000 A 
ATOM     28  C   UNL     1       5.507   4.209  15.067  0.00  0.00    +0.000 A 
ATOM     29  C   UNL     1       6.848   4.172  15.439  0.00  0.00    +0.000 A 
ATOM     30  C   UNL     1       7.229   4.653  16.684  0.00  0.00    +0.000 A 
ATOM     31  C   UNL     1       6.250   5.121  17.576  0.00  0.00    +0.000 A 
BRANCH  31  32
ATOM     32  N   UNL     1       6.764   5.599  18.847  0.00  0.00    +0.000 N 
ATOM     33  O   UNL     1       6.481   4.921  19.851  0.00  0.00    +0.000 OA
ATOM     34  O   UNL     1       7.571   6.541  18.805  0.00  0.00    +0.000 OA
ENDBRANCH  31  32
ENDBRANCH  19  26
ENDBRANCH   1  18
TORSDOF 13
ENDMDL
MODEL 3
REMARK VINA RESULT:      -7.7      4.514      6.199
REMARK  Name = 
REMARK  13 active torsions:
REMARK  status: ('A' for Active; 'I' for Inactive)
REMARK    1  A    between atoms: C_2  and  C_3
REMARK    2  A    between atoms: C_3  and  C_4
REMARK    3  A    between atoms: C_4  and  C_5
REMARK    4  A    between atoms: C_5  and  C_6
REMARK    5  A    between atoms: C_6  and  C_7
REMARK    6  A    between atoms: C_7  and  N_8
REMARK    7  A    between atoms: N_8  and  C_9
REMARK    8  A    between atoms: C_9  and  N_11
REMARK    9  A    between atoms: N_11  and  N_12
REMARK   10  A    between atoms: C_13  and  C_14
REMARK   11  A    between atoms: C_13  and  C_20
REMARK   12  A    between atoms: C_25  and  N_26
REMARK   13  A    between atoms: N_29  and  O_30
REMARK                            x       y       z     vdW  Elec       q    Type
REMARK                         _______ _______ _______ _____ _____    ______ ____
ROOT
ATOM      1  N   UNL     1       5.050   6.424  17.794  0.00  0.00    +0.000 N 
ATOM      2  H   UNL     1       4.817   7.398  17.960  0.00  0.00    +0.000 HD
ENDROOT
BRANCH   1   3
ATOM      3  C   UNL     1       6.346   6.162  17.471  0.00  0.00    +0.000 C 
ATOM      4  S   UNL     1       7.450   7.409  17.366  0.00  0.00    +0.000 S 
BRANCH   3   5
ATOM      5  N   UNL     1       6.749   4.900  17.184  0.00  0.00    +0.000 N 
ATOM      6  H   UNL     1       7.444   4.544  17.828  0.00  0.00    +0.000 HD
BRANCH   5   7
ATOM      7  C   UNL     1       6.384   4.023  16.079  0.00  0.00    +0.000 C 
BRANCH   7   8
ATOM      8  C   UNL     1       5.851   4.673  14.794  0.00  0.00    +0.000 C 
BRANCH   8   9
ATOM      9  C   UNL     1       6.913   5.275  13.870  0.00  0.00    +0.000 C 
BRANCH   9  10
ATOM     10  C   UNL     1       7.371   4.317  12.779  0.00  0.00    +0.000 C 
BRANCH  10  11
ATOM     11  C   UNL     1       6.212   3.460  12.282  0.00  0.00    +0.000 C 
BRANCH  11  13
ATOM     12  O   UNL     1       7.770   2.110  11.046  0.00  0.00    +0.000 OA
ATOM     13  C   UNL     1       6.686   2.202  11.615  0.00  0.00    +0.000 C 
ATOM     14  N   UNL     1       5.780   1.172  11.648  0.00  0.00    +0.000 N 
ATOM     15  H   UNL     1       4.952   1.140  12.230  0.00  0.00    +0.000 HD
BRANCH  14  16
ATOM     16  O   UNL     1       6.197  -0.037  11.050  0.00  0.00    +0.000 OA
ATOM     17  H   UNL     1       7.039   0.230  10.619  0.00  0.00    +0.000 HD
ENDBRANCH  14  16
ENDBRANCH  11  13
ENDBRANCH  10  11
ENDBRANCH   9  10
ENDBRANCH   8   9
ENDBRANCH   7   8
ENDBRANCH   5   7
ENDBRANCH   3   5
ENDBRANCH   1   3
BRANCH   1  18
ATOM     18  N   UNL     1       4.288   5.465  18.378  0.00  0.00    +0.000 NA
ATOM     19  C   UNL     1       3.159   5.751  18.949  0.00  0.00    +0.000 C 
BRANCH  19  20
ATOM     20  C   UNL     1       2.517   7.106  18.941  0.00  0.00    +0.000 A 
ATOM     21  C   UNL     1       1.969   7.663  20.106  0.00  0.00    +0.000 A 
ATOM     22  C   UNL     1       1.326   8.904  20.049  0.00  0.00    +0.000 A 
ATOM     23  C   UNL     1       1.270   9.608  18.847  0.00  0.00    +0.000 A 
ATOM     24  C   UNL     1       1.847   9.074  17.697  0.00  0.00    +0.000 A 
ATOM     25  C   UNL     1       2.449   7.818  17.738  0.00  0.00    +0.000 A 
ENDBRANCH  19  20
BRANCH  19  26
ATOM     26  C   UNL     1       2.482   4.618  19.687  0.00  0.00    +0.000 A 
ATOM     27  C   UNL     1       2.528   4.585  21.091  0.00  0.00    +0.000 A 
ATOM     28  C   UNL     1       2.051   3.475  21.801  0.00  0.00    +0.000 A 
ATOM     29  C   UNL     1       1.474   2.401  21.128  0.00  0.00    +0.000 A 
ATOM     30  C   UNL     1       1.332   2.452  19.748  0.00  0.00    +0.000 A 
ATOM     31  C   UNL     1       1.822   3.563  19.040  0.00  0.00    +0.000 A 
BRANCH  31  32
ATOM     32  N   UNL     1       1.617   3.507  17.604  0.00  0.00    +0.000 N 
ATOM     33  O   UNL     1       0.787   4.306  17.130  0.00  0.00    +0.000 OA
ATOM     34  O   UNL     1       2.396   2.791  16.954  0.00  0.00    +0.000 OA
ENDBRANCH  31  32
ENDBRANCH  19  26
ENDBRANCH   1  18
TORSDOF 13
ENDMDL
MODEL 4
REMARK VINA RESULT:      -7.7      4.699      8.163
REMARK  Name = 
REMARK  13 active torsions:
REMARK  status: ('A' for Active; 'I' for Inactive)
REMARK    1  A    between atoms: C_2  and  C_3
REMARK    2  A    between atoms: C_3  and  C_4
REMARK    3  A    between atoms: C_4  and  C_5
REMARK    4  A    between atoms: C_5  and  C_6
REMARK    5  A    between atoms: C_6  and  C_7
REMARK    6  A    between atoms: C_7  and  N_8
REMARK    7  A    between atoms: N_8  and  C_9
REMARK    8  A    between atoms: C_9  and  N_11
REMARK    9  A    between atoms: N_11  and  N_12
REMARK   10  A    between atoms: C_13  and  C_14
REMARK   11  A    between atoms: C_13  and  C_20
REMARK   12  A    between atoms: C_25  and  N_26
REMARK   13  A    between atoms: N_29  and  O_30
REMARK                            x       y       z     vdW  Elec       q    Type
REMARK                         _______ _______ _______ _____ _____    ______ ____
ROOT
ATOM      1  N   UNL     1       2.055   7.647  17.895  0.00  0.00    +0.000 N 
ATOM      2  H   UNL     1       1.288   7.020  17.671  0.00  0.00    +0.000 HD
ENDROOT
BRANCH   1   3
ATOM      3  C   UNL     1       1.763   8.678  18.733  0.00  0.00    +0.000 C 
ATOM      4  S   UNL     1       1.832  10.251  18.181  0.00  0.00    +0.000 S 
BRANCH   3   5
ATOM      5  N   UNL     1       1.460   8.450  20.036  0.00  0.00    +0.000 N 
ATOM      6  H   UNL     1       1.289   7.474  20.243  0.00  0.00    +0.000 HD
BRANCH   5   7
ATOM      7  C   UNL     1       1.290   9.385  21.140  0.00  0.00    +0.000 C 
BRANCH   7   8
ATOM      8  C   UNL     1      -0.075   9.423  21.843  0.00  0.00    +0.000 C 
BRANCH   8   9
ATOM      9  C   UNL     1      -0.773  10.786  21.851  0.00  0.00    +0.000 C 
BRANCH   9  10
ATOM     10  C   UNL     1      -1.405  11.127  23.194  0.00  0.00    +0.000 C 
BRANCH  10  11
ATOM     11  C   UNL     1      -2.134  12.464  23.131  0.00  0.00    +0.000 C 
BRANCH  11  13
ATOM     12  O   UNL     1      -4.124  12.034  24.410  0.00  0.00    +0.000 OA
ATOM     13  C   UNL     1      -3.614  12.310  23.327  0.00  0.00    +0.000 C 
ATOM     14  N   UNL     1      -4.351  12.451  22.179  0.00  0.00    +0.000 N 
ATOM     15  H   UNL     1      -4.006  12.830  21.305  0.00  0.00    +0.000 HD
BRANCH  14  16
ATOM     16  O   UNL     1      -5.750  12.335  22.325  0.00  0.00    +0.000 OA
ATOM     17  H   UNL     1      -6.031  12.100  21.412  0.00  0.00    +0.000 HD
ENDBRANCH  14  16
ENDBRANCH  11  13
ENDBRANCH  10  11
ENDBRANCH   9  10
ENDBRANCH   8   9
ENDBRANCH   7   8
ENDBRANCH   5   7
ENDBRANCH   3   5
ENDBRANCH   1   3
BRANCH   1  18
ATOM     18  N   UNL     1       3.324   7.175  17.814  0.00  0.00    +0.000 NA
ATOM     19  C   UNL     1       3.633   5.986  18.228  0.00  0.00    +0.000 C 
BRANCH  19  20
ATOM     20  C   UNL     1       2.646   4.972  18.727  0.00  0.00    +0.000 A 
ATOM     21  C   UNL     1       2.121   3.983  17.883  0.00  0.00    +0.000 A 
ATOM     22  C   UNL     1       1.160   3.090  18.368  0.00  0.00    +0.000 A 
ATOM     23  C   UNL     1       0.756   3.154  19.702  0.00  0.00    +0.000 A 
ATOM     24  C   UNL     1       1.304   4.112  20.552  0.00  0.00    +0.000 A 
ATOM     25  C   UNL     1       2.229   5.032  20.063  0.00  0.00    +0.000 A 
ENDBRANCH  19  20
BRANCH  19  26
ATOM     26  C   UNL     1       5.104   5.638  18.217  0.00  0.00    +0.000 A 
ATOM     27  C   UNL     1       5.790   5.503  19.436  0.00  0.00    +0.000 A 
ATOM     28  C   UNL     1       7.181   5.339  19.464  0.00  0.00    +0.000 A 
ATOM     29  C   UNL     1       7.907   5.255  18.278  0.00  0.00    +0.000 A 
ATOM     30  C   UNL     1       7.240   5.291  17.061  0.00  0.00    +0.000 A 
ATOM     31  C   UNL     1       5.846   5.467  17.039  0.00  0.00    +0.000 A 
BRANCH  31  32
ATOM     32  N   UNL     1       5.258   5.488  15.712  0.00  0.00    +0.000 N 
ATOM     33  O   UNL     1       5.224   6.592  15.137  0.00  0.00    +0.000 OA
ATOM     34  O   UNL     1       4.991   4.389  15.200  0.00  0.00    +0.000 OA
ENDBRANCH  31  32
ENDBRANCH  19  26
ENDBRANCH   1  18
TORSDOF 13
ENDMDL
MODEL 5
REMARK VINA RESULT:      -7.6      1.765      2.112
REMARK  Name = 
REMARK  13 active torsions:
REMARK  status: ('A' for Active; 'I' for Inactive)
REMARK    1  A    between atoms: C_2  and  C_3
REMARK    2  A    between atoms: C_3  and  C_4
REMARK    3  A    between atoms: C_4  and  C_5
REMARK    4  A    between atoms: C_5  and  C_6
REMARK    5  A    between atoms: C_6  and  C_7
REMARK    6  A    between atoms: C_7  and  N_8
REMARK    7  A    between atoms: N_8  and  C_9
REMARK    8  A    between atoms: C_9  and  N_11
REMARK    9  A    between atoms: N_11  and  N_12
REMARK   10  A    between atoms: C_13  and  C_14
REMARK   11  A    between atoms: C_13  and  C_20
REMARK   12  A    between atoms: C_25  and  N_26
REMARK   13  A    between atoms: N_29  and  O_30
REMARK                            x       y       z     vdW  Elec       q    Type
REMARK                         _______ _______ _______ _____ _____    ______ ____
ROOT
ATOM      1  N   UNL     1       5.171   6.612  18.378  0.00  0.00    +0.000 N 
ATOM      2  H   UNL     1       5.195   7.476  18.909  0.00  0.00    +0.000 HD
ENDROOT
BRANCH   1   3
ATOM      3  C   UNL     1       6.271   6.339  17.623  0.00  0.00    +0.000 C 
ATOM      4  S   UNL     1       6.184   5.214  16.394  0.00  0.00    +0.000 S 
BRANCH   3   5
ATOM      5  N   UNL     1       7.459   6.937  17.887  0.00  0.00    +0.000 N 
ATOM      6  H   UNL     1       8.008   6.449  18.585  0.00  0.00    +0.000 HD
BRANCH   5   7
ATOM      7  C   UNL     1       8.024   8.177  17.374  0.00  0.00    +0.000 C 
BRANCH   7   8
ATOM      8  C   UNL     1       8.535   9.208  18.391  0.00  0.00    +0.000 C 
BRANCH   8   9
ATOM      9  C   UNL     1       8.308  10.675  18.013  0.00  0.00    +0.000 C 
BRANCH   9  10
ATOM     10  C   UNL     1       9.523  11.555  18.272  0.00  0.00    +0.000 C 
BRANCH  10  11
ATOM     11  C   UNL     1      10.214  11.164  19.573  0.00  0.00    +0.000 C 
BRANCH  11  13
ATOM     12  O   UNL     1       9.129  12.819  20.939  0.00  0.00    +0.000 OA
ATOM     13  C   UNL     1       9.462  11.647  20.779  0.00  0.00    +0.000 C 
ATOM     14  N   UNL     1       9.222  10.677  21.718  0.00  0.00    +0.000 N 
ATOM     15  H   UNL     1       9.330   9.680  21.570  0.00  0.00    +0.000 HD
BRANCH  14  16
ATOM     16  O   UNL     1       8.496  11.086  22.858  0.00  0.00    +0.000 OA
ATOM     17  H   UNL     1       9.118  11.721  23.277  0.00  0.00    +0.000 HD
ENDBRANCH  14  16
ENDBRANCH  11  13
ENDBRANCH  10  11
ENDBRANCH   9  10
ENDBRANCH   8   9
ENDBRANCH   7   8
ENDBRANCH   5   7
ENDBRANCH   3   5
ENDBRANCH   1   3
BRANCH   1  18
ATOM     18  N   UNL     1       4.380   5.600  18.817  0.00  0.00    +0.000 NA
ATOM     19  C   UNL     1       3.161   5.812  19.205  0.00  0.00    +0.000 C 
BRANCH  19  20
ATOM     20  C   UNL     1       2.454   7.132  19.115  0.00  0.00    +0.000 A 
ATOM     21  C   UNL     1       1.919   7.755  20.252  0.00  0.00    +0.000 A 
ATOM     22  C   UNL     1       1.216   8.956  20.123  0.00  0.00    +0.000 A 
ATOM     23  C   UNL     1       1.084   9.559  18.872  0.00  0.00    +0.000 A 
ATOM     24  C   UNL     1       1.646   8.961  17.746  0.00  0.00    +0.000 A 
ATOM     25  C   UNL     1       2.310   7.741  17.863  0.00  0.00    +0.000 A 
ENDBRANCH  19  20
BRANCH  19  26
ATOM     26  C   UNL     1       2.440   4.628  19.807  0.00  0.00    +0.000 A 
ATOM     27  C   UNL     1       2.423   4.469  21.204  0.00  0.00    +0.000 A 
ATOM     28  C   UNL     1       1.903   3.307  21.789  0.00  0.00    +0.000 A 
ATOM     29  C   UNL     1       1.345   2.306  20.997  0.00  0.00    +0.000 A 
ATOM     30  C   UNL     1       1.265   2.482  19.623  0.00  0.00    +0.000 A 
ATOM     31  C   UNL     1       1.797   3.645  19.040  0.00  0.00    +0.000 A 
BRANCH  31  32
ATOM     32  N   UNL     1       1.656   3.721  17.597  0.00  0.00    +0.000 N 
ATOM     33  O   UNL     1       0.756   4.467  17.167  0.00  0.00    +0.000 OA
ATOM     34  O   UNL     1       2.538   3.174  16.918  0.00  0.00    +0.000 OA
ENDBRANCH  31  32
ENDBRANCH  19  26
ENDBRANCH   1  18
TORSDOF 13
ENDMDL
MODEL 6
REMARK VINA RESULT:      -7.5      4.738      7.724
REMARK  Name = 
REMARK  13 active torsions:
REMARK  status: ('A' for Active; 'I' for Inactive)
REMARK    1  A    between atoms: C_2  and  C_3
REMARK    2  A    between atoms: C_3  and  C_4
REMARK    3  A    between atoms: C_4  and  C_5
REMARK    4  A    between atoms: C_5  and  C_6
REMARK    5  A    between atoms: C_6  and  C_7
REMARK    6  A    between atoms: C_7  and  N_8
REMARK    7  A    between atoms: N_8  and  C_9
REMARK    8  A    between atoms: C_9  and  N_11
REMARK    9  A    between atoms: N_11  and  N_12
REMARK   10  A    between atoms: C_13  and  C_14
REMARK   11  A    between atoms: C_13  and  C_20
REMARK   12  A    between atoms: C_25  and  N_26
REMARK   13  A    between atoms: N_29  and  O_30
REMARK                            x       y       z     vdW  Elec       q    Type
REMARK                         _______ _______ _______ _____ _____    ______ ____
ROOT
ATOM      1  N   UNL     1       2.131   7.475  19.723  0.00  0.00    +0.000 N 
ATOM      2  H   UNL     1       2.194   7.046  20.641  0.00  0.00    +0.000 HD
ENDROOT
BRANCH   1   3
ATOM      3  C   UNL     1       1.456   8.655  19.657  0.00  0.00    +0.000 C 
ATOM      4  S   UNL     1       1.486   9.559  18.254  0.00  0.00    +0.000 S 
BRANCH   3   5
ATOM      5  N   UNL     1       0.792   9.137  20.737  0.00  0.00    +0.000 N 
ATOM      6  H   UNL     1       0.138   8.474  21.135  0.00  0.00    +0.000 HD
BRANCH   5   7
ATOM      7  C   UNL     1       0.832  10.455  21.357  0.00  0.00    +0.000 C 
BRANCH   7   8
ATOM      8  C   UNL     1      -0.348  10.864  22.250  0.00  0.00    +0.000 C 
BRANCH   8   9
ATOM      9  C   UNL     1      -1.336  11.852  21.624  0.00  0.00    +0.000 C 
BRANCH   9  10
ATOM     10  C   UNL     1      -1.058  12.125  20.153  0.00  0.00    +0.000 C 
BRANCH  10  11
ATOM     11  C   UNL     1      -2.355  12.197  19.354  0.00  0.00    +0.000 C 
BRANCH  11  13
ATOM     12  O   UNL     1      -2.316  10.078  18.220  0.00  0.00    +0.000 OA
ATOM     13  C   UNL     1      -2.326  11.304  18.149  0.00  0.00    +0.000 C 
ATOM     14  N   UNL     1      -2.257  11.975  16.954  0.00  0.00    +0.000 N 
ATOM     15  H   UNL     1      -2.420  12.967  16.830  0.00  0.00    +0.000 HD
BRANCH  14  16
ATOM     16  O   UNL     1      -2.250  11.171  15.793  0.00  0.00    +0.000 OA
ATOM     17  H   UNL     1      -2.651  11.772  15.127  0.00  0.00    +0.000 HD
ENDBRANCH  14  16
ENDBRANCH  11  13
ENDBRANCH  10  11
ENDBRANCH   9  10
ENDBRANCH   8   9
ENDBRANCH   7   8
ENDBRANCH   5   7
ENDBRANCH   3   5
ENDBRANCH   1   3
BRANCH   1  18
ATOM     18  N   UNL     1       3.086   7.186  18.804  0.00  0.00    +0.000 NA
ATOM     19  C   UNL     1       3.332   5.965  18.444  0.00  0.00    +0.000 C 
BRANCH  19  20
ATOM     20  C   UNL     1       2.549   4.767  18.893  0.00  0.00    +0.000 A 
ATOM     21  C   UNL     1       2.261   4.546  20.247  0.00  0.00    +0.000 A 
ATOM     22  C   UNL     1       1.578   3.389  20.636  0.00  0.00    +0.000 A 
ATOM     23  C   UNL     1       1.143   2.478  19.674  0.00  0.00    +0.000 A 
ATOM     24  C   UNL     1       1.396   2.714  18.324  0.00  0.00    +0.000 A 
ATOM     25  C   UNL     1       2.114   3.842  17.936  0.00  0.00    +0.000 A 
ENDBRANCH  19  20
BRANCH  19  26
ATOM     26  C   UNL     1       4.516   5.769  17.524  0.00  0.00    +0.000 A 
ATOM     27  C   UNL     1       4.443   6.230  16.198  0.00  0.00    +0.000 A 
ATOM     28  C   UNL     1       5.453   5.929  15.275  0.00  0.00    +0.000 A 
ATOM     29  C   UNL     1       6.577   5.207  15.669  0.00  0.00    +0.000 A 
ATOM     30  C   UNL     1       6.717   4.822  16.995  0.00  0.00    +0.000 A 
ATOM     31  C   UNL     1       5.695   5.118  17.914  0.00  0.00    +0.000 A 
BRANCH  31  32
ATOM     32  N   UNL     1       5.950   4.668  19.271  0.00  0.00    +0.000 N 
ATOM     33  O   UNL     1       5.460   3.570  19.593  0.00  0.00    +0.000 OA
ATOM     34  O   UNL     1       6.764   5.329  19.936  0.00  0.00    +0.000 OA
ENDBRANCH  31  32
ENDBRANCH  19  26
ENDBRANCH   1  18
TORSDOF 13
ENDMDL
MODEL 7
REMARK VINA RESULT:      -7.5      4.496      6.292
REMARK  Name = 
REMARK  13 active torsions:
REMARK  status: ('A' for Active; 'I' for Inactive)
REMARK    1  A    between atoms: C_2  and  C_3
REMARK    2  A    between atoms: C_3  and  C_4
REMARK    3  A    between atoms: C_4  and  C_5
REMARK    4  A    between atoms: C_5  and  C_6
REMARK    5  A    between atoms: C_6  and  C_7
REMARK    6  A    between atoms: C_7  and  N_8
REMARK    7  A    between atoms: N_8  and  C_9
REMARK    8  A    between atoms: C_9  and  N_11
REMARK    9  A    between atoms: N_11  and  N_12
REMARK   10  A    between atoms: C_13  and  C_14
REMARK   11  A    between atoms: C_13  and  C_20
REMARK   12  A    between atoms: C_25  and  N_26
REMARK   13  A    between atoms: N_29  and  O_30
REMARK                            x       y       z     vdW  Elec       q    Type
REMARK                         _______ _______ _______ _____ _____    ______ ____
ROOT
ATOM      1  N   UNL     1       5.394   6.300  18.902  0.00  0.00    +0.000 N 
ATOM      2  H   UNL     1       5.336   7.192  19.384  0.00  0.00    +0.000 HD
ENDROOT
BRANCH   1   3
ATOM      3  C   UNL     1       6.614   5.968  18.397  0.00  0.00    +0.000 C 
ATOM      4  S   UNL     1       7.938   5.866  19.408  0.00  0.00    +0.000 S 
BRANCH   3   5
ATOM      5  N   UNL     1       6.783   5.763  17.067  0.00  0.00    +0.000 N 
ATOM      6  H   UNL     1       6.318   6.455  16.492  0.00  0.00    +0.000 HD
BRANCH   5   7
ATOM      7  C   UNL     1       7.466   4.689  16.359  0.00  0.00    +0.000 C 
BRANCH   7   8
ATOM      8  C   UNL     1       7.114   4.466  14.881  0.00  0.00    +0.000 C 
BRANCH   8   9
ATOM      9  C   UNL     1       5.701   4.888  14.470  0.00  0.00    +0.000 C 
BRANCH   9  10
ATOM     10  C   UNL     1       5.066   3.949  13.454  0.00  0.00    +0.000 C 
BRANCH  10  11
ATOM     11  C   UNL     1       6.066   3.559  12.371  0.00  0.00    +0.000 C 
BRANCH  11  13
ATOM     12  O   UNL     1       4.490   2.287  11.076  0.00  0.00    +0.000 OA
ATOM     13  C   UNL     1       5.606   2.369  11.582  0.00  0.00    +0.000 C 
ATOM     14  N   UNL     1       6.523   1.350  11.515  0.00  0.00    +0.000 N 
ATOM     15  H   UNL     1       7.500   1.424  11.772  0.00  0.00    +0.000 HD
BRANCH  14  16
ATOM     16  O   UNL     1       6.137   0.220  10.762  0.00  0.00    +0.000 OA
ATOM     17  H   UNL     1       5.321  -0.067  11.230  0.00  0.00    +0.000 HD
ENDBRANCH  14  16
ENDBRANCH  11  13
ENDBRANCH  10  11
ENDBRANCH   9  10
ENDBRANCH   8   9
ENDBRANCH   7   8
ENDBRANCH   5   7
ENDBRANCH   3   5
ENDBRANCH   1   3
BRANCH   1  18
ATOM     18  N   UNL     1       4.504   5.328  19.224  0.00  0.00    +0.000 NA
ATOM     19  C   UNL     1       3.248   5.594  19.410  0.00  0.00    +0.000 C 
BRANCH  19  20
ATOM     20  C   UNL     1       2.618   6.937  19.193  0.00  0.00    +0.000 A 
ATOM     21  C   UNL     1       1.967   7.617  20.232  0.00  0.00    +0.000 A 
ATOM     22  C   UNL     1       1.340   8.841  19.980  0.00  0.00    +0.000 A 
ATOM     23  C   UNL     1       1.401   9.409  18.707  0.00  0.00    +0.000 A 
ATOM     24  C   UNL     1       2.079   8.752  17.682  0.00  0.00    +0.000 A 
ATOM     25  C   UNL     1       2.667   7.512  17.917  0.00  0.00    +0.000 A 
ENDBRANCH  19  20
BRANCH  19  26
ATOM     26  C   UNL     1       2.394   4.449  19.906  0.00  0.00    +0.000 A 
ATOM     27  C   UNL     1       2.269   4.230  21.289  0.00  0.00    +0.000 A 
ATOM     28  C   UNL     1       1.618   3.092  21.782  0.00  0.00    +0.000 A 
ATOM     29  C   UNL     1       1.035   2.178  20.907  0.00  0.00    +0.000 A 
ATOM     30  C   UNL     1       1.062   2.421  19.541  0.00  0.00    +0.000 A 
ATOM     31  C   UNL     1       1.726   3.559  19.052  0.00  0.00    +0.000 A 
BRANCH  31  32
ATOM     32  N   UNL     1       1.689   3.711  17.609  0.00  0.00    +0.000 N 
ATOM     33  O   UNL     1       2.476   3.001  16.955  0.00  0.00    +0.000 OA
ATOM     34  O   UNL     1       0.773   4.406  17.142  0.00  0.00    +0.000 OA
ENDBRANCH  31  32
ENDBRANCH  19  26
ENDBRANCH   1  18
TORSDOF 13
ENDMDL
MODEL 8
REMARK VINA RESULT:      -7.5      4.466      7.808
REMARK  Name = 
REMARK  13 active torsions:
REMARK  status: ('A' for Active; 'I' for Inactive)
REMARK    1  A    between atoms: C_2  and  C_3
REMARK    2  A    between atoms: C_3  and  C_4
REMARK    3  A    between atoms: C_4  and  C_5
REMARK    4  A    between atoms: C_5  and  C_6
REMARK    5  A    between atoms: C_6  and  C_7
REMARK    6  A    between atoms: C_7  and  N_8
REMARK    7  A    between atoms: N_8  and  C_9
REMARK    8  A    between atoms: C_9  and  N_11
REMARK    9  A    between atoms: N_11  and  N_12
REMARK   10  A    between atoms: C_13  and  C_14
REMARK   11  A    between atoms: C_13  and  C_20
REMARK   12  A    between atoms: C_25  and  N_26
REMARK   13  A    between atoms: N_29  and  O_30
REMARK                            x       y       z     vdW  Elec       q    Type
REMARK                         _______ _______ _______ _____ _____    ______ ____
ROOT
ATOM      1  N   UNL     1       2.924   6.872  19.622  0.00  0.00    +0.000 N 
ATOM      2  H   UNL     1       3.172   6.591  20.565  0.00  0.00    +0.000 HD
ENDROOT
BRANCH   1   3
ATOM      3  C   UNL     1       2.087   7.941  19.515  0.00  0.00    +0.000 C 
ATOM      4  S   UNL     1       1.903   8.715  18.048  0.00  0.00    +0.000 S 
BRANCH   3   5
ATOM      5  N   UNL     1       1.431   8.421  20.601  0.00  0.00    +0.000 N 
ATOM      6  H   UNL     1       1.824   8.106  21.479  0.00  0.00    +0.000 HD
BRANCH   5   7
ATOM      7  C   UNL     1       0.239   9.253  20.689  0.00  0.00    +0.000 C 
BRANCH   7   8
ATOM      8  C   UNL     1       0.327  10.550  21.505  0.00  0.00    +0.000 C 
BRANCH   8   9
ATOM      9  C   UNL     1      -0.149  11.815  20.785  0.00  0.00    +0.000 C 
BRANCH   9  10
ATOM     10  C   UNL     1      -0.686  11.542  19.387  0.00  0.00    +0.000 C 
BRANCH  10  11
ATOM     11  C   UNL     1      -2.145  11.968  19.268  0.00  0.00    +0.000 C 
BRANCH  11  13
ATOM     12  O   UNL     1      -3.809  10.918  17.887  0.00  0.00    +0.000 OA
ATOM     13  C   UNL     1      -2.753  11.541  17.965  0.00  0.00    +0.000 C 
ATOM     14  N   UNL     1      -2.000  11.858  16.862  0.00  0.00    +0.000 N 
ATOM     15  H   UNL     1      -1.216  12.499  16.855  0.00  0.00    +0.000 HD
BRANCH  14  16
ATOM     16  O   UNL     1      -2.548  11.493  15.614  0.00  0.00    +0.000 OA
ATOM     17  H   UNL     1      -3.015  12.317  15.348  0.00  0.00    +0.000 HD
ENDBRANCH  14  16
ENDBRANCH  11  13
ENDBRANCH  10  11
ENDBRANCH   9  10
ENDBRANCH   8   9
ENDBRANCH   7   8
ENDBRANCH   5   7
ENDBRANCH   3   5
ENDBRANCH   1   3
BRANCH   1  18
ATOM     18  N   UNL     1       3.772   6.569  18.608  0.00  0.00    +0.000 NA
ATOM     19  C   UNL     1       3.891   5.357  18.163  0.00  0.00    +0.000 C 
BRANCH  19  20
ATOM     20  C   UNL     1       3.057   4.195  18.615  0.00  0.00    +0.000 A 
ATOM     21  C   UNL     1       3.557   3.238  19.510  0.00  0.00    +0.000 A 
ATOM     22  C   UNL     1       2.771   2.137  19.865  0.00  0.00    +0.000 A 
ATOM     23  C   UNL     1       1.475   2.014  19.367  0.00  0.00    +0.000 A 
ATOM     24  C   UNL     1       0.962   2.983  18.506  0.00  0.00    +0.000 A 
ATOM     25  C   UNL     1       1.756   4.058  18.115  0.00  0.00    +0.000 A 
ENDBRANCH  19  20
BRANCH  19  26
ATOM     26  C   UNL     1       4.974   5.130  17.134  0.00  0.00    +0.000 A 
ATOM     27  C   UNL     1       4.616   4.771  15.823  0.00  0.00    +0.000 A 
ATOM     28  C   UNL     1       5.590   4.400  14.886  0.00  0.00    +0.000 A 
ATOM     29  C   UNL     1       6.941   4.430  15.223  0.00  0.00    +0.000 A 
ATOM     30  C   UNL     1       7.325   4.872  16.482  0.00  0.00    +0.000 A 
ATOM     31  C   UNL     1       6.344   5.232  17.420  0.00  0.00    +0.000 A 
BRANCH  31  32
ATOM     32  N   UNL     1       6.862   5.679  18.700  0.00  0.00    +0.000 N 
ATOM     33  O   UNL     1       6.621   4.952  19.682  0.00  0.00    +0.000 OA
ATOM     34  O   UNL     1       7.634   6.651  18.683  0.00  0.00    +0.000 OA
ENDBRANCH  31  32
ENDBRANCH  19  26
ENDBRANCH   1  18
TORSDOF 13
ENDMDL
MODEL 9
REMARK VINA RESULT:      -7.5      4.299      8.193
REMARK  Name = 
REMARK  13 active torsions:
REMARK  status: ('A' for Active; 'I' for Inactive)
REMARK    1  A    between atoms: C_2  and  C_3
REMARK    2  A    between atoms: C_3  and  C_4
REMARK    3  A    between atoms: C_4  and  C_5
REMARK    4  A    between atoms: C_5  and  C_6
REMARK    5  A    between atoms: C_6  and  C_7
REMARK    6  A    between atoms: C_7  and  N_8
REMARK    7  A    between atoms: N_8  and  C_9
REMARK    8  A    between atoms: C_9  and  N_11
REMARK    9  A    between atoms: N_11  and  N_12
REMARK   10  A    between atoms: C_13  and  C_14
REMARK   11  A    between atoms: C_13  and  C_20
REMARK   12  A    between atoms: C_25  and  N_26
REMARK   13  A    between atoms: N_29  and  O_30
REMARK                            x       y       z     vdW  Elec       q    Type
REMARK                         _______ _______ _______ _____ _____    ______ ____
ROOT
ATOM      1  N   UNL     1       2.041   7.735  18.018  0.00  0.00    +0.000 N 
ATOM      2  H   UNL     1       1.270   7.121  17.773  0.00  0.00    +0.000 HD
ENDROOT
BRANCH   1   3
ATOM      3  C   UNL     1       1.757   8.732  18.901  0.00  0.00    +0.000 C 
ATOM      4  S   UNL     1       1.415   8.368  20.493  0.00  0.00    +0.000 S 
BRANCH   3   5
ATOM      5  N   UNL     1       1.701  10.025  18.494  0.00  0.00    +0.000 N 
ATOM      6  H   UNL     1       2.511  10.314  17.960  0.00  0.00    +0.000 HD
BRANCH   5   7
ATOM      7  C   UNL     1       0.701  11.051  18.755  0.00  0.00    +0.000 C 
BRANCH   7   8
ATOM      8  C   UNL     1      -0.689  10.597  19.225  0.00  0.00    +0.000 C 
BRANCH   8   9
ATOM      9  C   UNL     1      -1.873  11.322  18.579  0.00  0.00    +0.000 C 
BRANCH   9  10
ATOM     10  C   UNL     1      -2.196  10.813  17.181  0.00  0.00    +0.000 C 
BRANCH  10  11
ATOM     11  C   UNL     1      -3.539  10.092  17.159  0.00  0.00    +0.000 C 
BRANCH  11  13
ATOM     12  O   UNL     1      -5.528  10.732  18.348  0.00  0.00    +0.000 OA
ATOM     13  C   UNL     1      -4.677  11.006  17.505  0.00  0.00    +0.000 C 
ATOM     14  N   UNL     1      -4.720  12.158  16.762  0.00  0.00    +0.000 N 
ATOM     15  H   UNL     1      -3.969  12.504  16.176  0.00  0.00    +0.000 HD
BRANCH  14  16
ATOM     16  O   UNL     1      -5.764  13.056  17.073  0.00  0.00    +0.000 OA
ATOM     17  H   UNL     1      -6.373  12.931  16.311  0.00  0.00    +0.000 HD
ENDBRANCH  14  16
ENDBRANCH  11  13
ENDBRANCH  10  11
ENDBRANCH   9  10
ENDBRANCH   8   9
ENDBRANCH   7   8
ENDBRANCH   5   7
ENDBRANCH   3   5
ENDBRANCH   1   3
BRANCH   1  18
ATOM     18  N   UNL     1       3.308   7.263  17.910  0.00  0.00    +0.000 NA
ATOM     19  C   UNL     1       3.613   6.055  18.268  0.00  0.00    +0.000 C 
BRANCH  19  20
ATOM     20  C   UNL     1       2.625   5.023  18.725  0.00  0.00    +0.000 A 
ATOM     21  C   UNL     1       2.206   4.950  20.061  0.00  0.00    +0.000 A 
ATOM     22  C   UNL     1       1.327   3.940  20.462  0.00  0.00    +0.000 A 
ATOM     23  C   UNL     1       0.831   3.032  19.527  0.00  0.00    +0.000 A 
ATOM     24  C   UNL     1       1.217   3.125  18.191  0.00  0.00    +0.000 A 
ATOM     25  C   UNL     1       2.126   4.102  17.795  0.00  0.00    +0.000 A 
ENDBRANCH  19  20
BRANCH  19  26
ATOM     26  C   UNL     1       5.083   5.703  18.234  0.00  0.00    +0.000 A 
ATOM     27  C   UNL     1       5.780   5.534  19.443  0.00  0.00    +0.000 A 
ATOM     28  C   UNL     1       7.171   5.364  19.454  0.00  0.00    +0.000 A 
ATOM     29  C   UNL     1       7.885   5.308  18.260  0.00  0.00    +0.000 A 
ATOM     30  C   UNL     1       7.207   5.377  17.051  0.00  0.00    +0.000 A 
ATOM     31  C   UNL     1       5.814   5.559  17.046  0.00  0.00    +0.000 A 
BRANCH  31  32
ATOM     32  N   UNL     1       5.213   5.616  15.725  0.00  0.00    +0.000 N 
ATOM     33  O   UNL     1       5.200   6.729  15.169  0.00  0.00    +0.000 OA
ATOM     34  O   UNL     1       4.916   4.532  15.197  0.00  0.00    +0.000 OA
ENDBRANCH  31  32
ENDBRANCH  19  26
ENDBRANCH   1  18
TORSDOF 13
ENDMDL
