MODEL 1
REMARK VINA RESULT:      -7.4      0.000      0.000
REMARK  Name = 
REMARK  7 active torsions:
REMARK  status: ('A' for Active; 'I' for Inactive)
REMARK    1  A    between atoms: C_1  and  C_2
REMARK    2  A    between atoms: C_2  and  C_3
REMARK    3  A    between atoms: C_6  and  C_8
REMARK    4  A    between atoms: C_8  and  C_9
REMARK    5  A    between atoms: C_9  and  C_10
REMARK    6  A    between atoms: C_15  and  C_16
REMARK    7  A    between atoms: C_15  and  O_17
REMARK                            x       y       z     vdW  Elec       q    Type
REMARK                         _______ _______ _______ _____ _____    ______ ____
ROOT
ATOM      1  C   UNL     1       5.003   6.873  16.018  0.00  0.00    +0.000 C 
ATOM      2  C   UNL     1       5.891   6.091  17.016  0.00  0.00    +0.000 C 
ATOM      3  C   UNL     1       7.056   7.014  17.429  0.00  0.00    +0.000 C 
ATOM      4  C   UNL     1       5.049   5.793  18.283  0.00  0.00    +0.000 C 
ATOM      5  N   UNL     1       3.978   4.843  17.994  0.00  0.00    +0.000 N 
ATOM      6  C   UNL     1       2.656   5.253  18.152  0.00  0.00    +0.000 C 
ATOM      7  O   UNL     1       2.369   6.385  18.535  0.00  0.00    +0.000 OA
ATOM      8  C   UNL     1       4.409   3.551  17.465  0.00  0.00    +0.000 C 
ATOM      9  C   UNL     1       5.251   3.733  16.203  0.00  0.00    +0.000 C 
ATOM     10  C   UNL     1       6.408   4.735  16.412  0.00  0.00    +0.000 C 
ATOM     11  C   UNL     1       7.165   4.906  15.087  0.00  0.00    +0.000 C 
ENDROOT
BRANCH  10  12
ATOM     12  O   UNL     1       7.369   4.125  17.293  0.00  0.00    +0.000 OA
ATOM     13  H   UNL     1       7.277   4.491  18.187  0.00  0.00    +0.000 HD
ENDBRANCH  10  12
BRANCH   6  14
ATOM     14  C   UNL     1       1.578   4.235  17.833  0.00  0.00    +0.000 C 
BRANCH  14  15
ATOM     15  C   UNL     1       1.523   3.118  18.872  0.00  0.00    +0.000 C 
BRANCH  15  16
ATOM     16  C   UNL     1       1.099   3.629  20.219  0.00  0.00    +0.000 C 
ATOM     17  C   UNL     1       1.268   2.795  21.463  0.00  0.00    +0.000 C 
ATOM     18  C   UNL     1       2.145   3.993  21.242  0.00  0.00    +0.000 C 
ENDBRANCH  15  16
ENDBRANCH  14  15
ENDBRANCH   6  14
TORSDOF 4
ENDMDL
MODEL 2
REMARK VINA RESULT:      -7.2      1.625      5.571
REMARK  Name = 
REMARK  7 active torsions:
REMARK  status: ('A' for Active; 'I' for Inactive)
REMARK    1  A    between atoms: C_1  and  C_2
REMARK    2  A    between atoms: C_2  and  C_3
REMARK    3  A    between atoms: C_6  and  C_8
REMARK    4  A    between atoms: C_8  and  C_9
REMARK    5  A    between atoms: C_9  and  C_10
REMARK    6  A    between atoms: C_15  and  C_16
REMARK    7  A    between atoms: C_15  and  O_17
REMARK                            x       y       z     vdW  Elec       q    Type
REMARK                         _______ _______ _______ _____ _____    ______ ____
ROOT
ATOM      1  C   UNL     1       4.367   2.405  19.797  0.00  0.00    +0.000 C 
ATOM      2  C   UNL     1       3.253   3.476  19.886  0.00  0.00    +0.000 C 
ATOM      3  C   UNL     1       2.456   3.215  21.181  0.00  0.00    +0.000 C 
ATOM      4  C   UNL     1       3.925   4.866  20.014  0.00  0.00    +0.000 C 
ATOM      5  N   UNL     1       4.623   5.231  18.783  0.00  0.00    +0.000 N 
ATOM      6  C   UNL     1       6.003   5.416  18.824  0.00  0.00    +0.000 C 
ATOM      7  O   UNL     1       6.644   5.291  19.864  0.00  0.00    +0.000 OA
ATOM      8  C   UNL     1       3.794   5.276  17.581  0.00  0.00    +0.000 C 
ATOM      9  C   UNL     1       3.083   3.942  17.360  0.00  0.00    +0.000 C 
ATOM     10  C   UNL     1       2.323   3.469  18.618  0.00  0.00    +0.000 C 
ATOM     11  C   UNL     1       1.689   2.100  18.334  0.00  0.00    +0.000 C 
ENDROOT
BRANCH  10  12
ATOM     12  O   UNL     1       1.199   4.346  18.814  0.00  0.00    +0.000 OA
ATOM     13  H   UNL     1       1.097   4.930  18.046  0.00  0.00    +0.000 HD
ENDBRANCH  10  12
BRANCH   6  14
ATOM     14  C   UNL     1       6.685   5.787  17.521  0.00  0.00    +0.000 C 
BRANCH  14  15
ATOM     15  C   UNL     1       7.153   4.554  16.751  0.00  0.00    +0.000 C 
BRANCH  15  16
ATOM     16  C   UNL     1       7.039   4.748  15.266  0.00  0.00    +0.000 C 
ATOM     17  C   UNL     1       6.220   3.811  14.415  0.00  0.00    +0.000 C 
ATOM     18  C   UNL     1       5.733   5.208  14.672  0.00  0.00    +0.000 C 
ENDBRANCH  15  16
ENDBRANCH  14  15
ENDBRANCH   6  14
TORSDOF 4
ENDMDL
MODEL 3
REMARK VINA RESULT:      -7.1      1.559      5.692
REMARK  Name = 
REMARK  7 active torsions:
REMARK  status: ('A' for Active; 'I' for Inactive)
REMARK    1  A    between atoms: C_1  and  C_2
REMARK    2  A    between atoms: C_2  and  C_3
REMARK    3  A    between atoms: C_6  and  C_8
REMARK    4  A    between atoms: C_8  and  C_9
REMARK    5  A    between atoms: C_9  and  C_10
REMARK    6  A    between atoms: C_15  and  C_16
REMARK    7  A    between atoms: C_15  and  O_17
REMARK                            x       y       z     vdW  Elec       q    Type
REMARK                         _______ _______ _______ _____ _____    ______ ____
ROOT
ATOM      1  C   UNL     1       3.780   2.427  19.169  0.00  0.00    +0.000 C 
ATOM      2  C   UNL     1       2.784   3.280  19.991  0.00  0.00    +0.000 C 
ATOM      3  C   UNL     1       2.617   2.605  21.370  0.00  0.00    +0.000 C 
ATOM      4  C   UNL     1       3.415   4.676  20.220  0.00  0.00    +0.000 C 
ATOM      5  N   UNL     1       3.516   5.421  18.967  0.00  0.00    +0.000 N 
ATOM      6  C   UNL     1       4.778   5.780  18.500  0.00  0.00    +0.000 C 
ATOM      7  O   UNL     1       5.803   5.495  19.115  0.00  0.00    +0.000 OA
ATOM      8  C   UNL     1       2.255   5.642  18.263  0.00  0.00    +0.000 C 
ATOM      9  C   UNL     1       1.548   4.316  17.985  0.00  0.00    +0.000 C 
ATOM     10  C   UNL     1       1.405   3.452  19.257  0.00  0.00    +0.000 C 
ATOM     11  C   UNL     1       0.742   2.119  18.882  0.00  0.00    +0.000 C 
ENDROOT
BRANCH  10  12
ATOM     12  O   UNL     1       0.449   4.091  20.123  0.00  0.00    +0.000 OA
ATOM     13  H   UNL     1       0.892   4.410  20.925  0.00  0.00    +0.000 HD
ENDBRANCH  10  12
BRANCH   6  14
ATOM     14  C   UNL     1       4.835   6.545  17.192  0.00  0.00    +0.000 C 
BRANCH  14  15
ATOM     15  C   UNL     1       6.009   6.103  16.321  0.00  0.00    +0.000 C 
BRANCH  15  16
ATOM     16  C   UNL     1       5.582   5.131  15.260  0.00  0.00    +0.000 C 
ATOM     17  C   UNL     1       6.577   4.533  14.299  0.00  0.00    +0.000 C 
ATOM     18  C   UNL     1       5.972   3.680  15.376  0.00  0.00    +0.000 C 
ENDBRANCH  15  16
ENDBRANCH  14  15
ENDBRANCH   6  14
TORSDOF 4
ENDMDL
MODEL 4
REMARK VINA RESULT:      -7.1      1.530      5.901
REMARK  Name = 
REMARK  7 active torsions:
REMARK  status: ('A' for Active; 'I' for Inactive)
REMARK    1  A    between atoms: C_1  and  C_2
REMARK    2  A    between atoms: C_2  and  C_3
REMARK    3  A    between atoms: C_6  and  C_8
REMARK    4  A    between atoms: C_8  and  C_9
REMARK    5  A    between atoms: C_9  and  C_10
REMARK    6  A    between atoms: C_15  and  C_16
REMARK    7  A    between atoms: C_15  and  O_17
REMARK                            x       y       z     vdW  Elec       q    Type
REMARK                         _______ _______ _______ _____ _____    ______ ____
ROOT
ATOM      1  C   UNL     1       3.545   1.952  19.209  0.00  0.00    +0.000 C 
ATOM      2  C   UNL     1       2.875   3.123  19.968  0.00  0.00    +0.000 C 
ATOM      3  C   UNL     1       2.667   2.674  21.430  0.00  0.00    +0.000 C 
ATOM      4  C   UNL     1       3.858   4.321  19.975  0.00  0.00    +0.000 C 
ATOM      5  N   UNL     1       4.032   4.868  18.631  0.00  0.00    +0.000 N 
ATOM      6  C   UNL     1       5.297   4.828  18.050  0.00  0.00    +0.000 C 
ATOM      7  O   UNL     1       6.267   4.355  18.637  0.00  0.00    +0.000 OA
ATOM      8  C   UNL     1       2.810   5.332  17.978  0.00  0.00    +0.000 C 
ATOM      9  C   UNL     1       1.769   4.216  17.917  0.00  0.00    +0.000 C 
ATOM     10  C   UNL     1       1.525   3.567  19.297  0.00  0.00    +0.000 C 
ATOM     11  C   UNL     1       0.515   2.422  19.140  0.00  0.00    +0.000 C 
ENDROOT
BRANCH  10  12
ATOM     12  O   UNL     1       0.844   4.528  20.125  0.00  0.00    +0.000 OA
ATOM     13  H   UNL     1       1.408   5.306  20.262  0.00  0.00    +0.000 HD
ENDBRANCH  10  12
BRANCH   6  14
ATOM     14  C   UNL     1       5.428   5.401  16.652  0.00  0.00    +0.000 C 
BRANCH  14  15
ATOM     15  C   UNL     1       5.076   4.373  15.578  0.00  0.00    +0.000 C 
BRANCH  15  16
ATOM     16  C   UNL     1       6.292   3.917  14.824  0.00  0.00    +0.000 C 
ATOM     17  C   UNL     1       6.283   3.797  13.322  0.00  0.00    +0.000 C 
ATOM     18  C   UNL     1       7.060   4.901  13.980  0.00  0.00    +0.000 C 
ENDBRANCH  15  16
ENDBRANCH  14  15
ENDBRANCH   6  14
TORSDOF 4
ENDMDL
MODEL 5
REMARK VINA RESULT:      -6.9      1.483      5.794
REMARK  Name = 
REMARK  7 active torsions:
REMARK  status: ('A' for Active; 'I' for Inactive)
REMARK    1  A    between atoms: C_1  and  C_2
REMARK    2  A    between atoms: C_2  and  C_3
REMARK    3  A    between atoms: C_6  and  C_8
REMARK    4  A    between atoms: C_8  and  C_9
REMARK    5  A    between atoms: C_9  and  C_10
REMARK    6  A    between atoms: C_15  and  C_16
REMARK    7  A    between atoms: C_15  and  O_17
REMARK                            x       y       z     vdW  Elec       q    Type
REMARK                         _______ _______ _______ _____ _____    ______ ____
ROOT
ATOM      1  C   UNL     1       3.593   1.779  18.995  0.00  0.00    +0.000 C 
ATOM      2  C   UNL     1       2.955   2.968  19.753  0.00  0.00    +0.000 C 
ATOM      3  C   UNL     1       2.678   2.506  21.200  0.00  0.00    +0.000 C 
ATOM      4  C   UNL     1       3.991   4.118  19.812  0.00  0.00    +0.000 C 
ATOM      5  N   UNL     1       4.234   4.678  18.484  0.00  0.00    +0.000 N 
ATOM      6  C   UNL     1       5.514   4.587  17.943  0.00  0.00    +0.000 C 
ATOM      7  O   UNL     1       6.442   4.060  18.552  0.00  0.00    +0.000 OA
ATOM      8  C   UNL     1       3.058   5.209  17.801  0.00  0.00    +0.000 C 
ATOM      9  C   UNL     1       1.967   4.145  17.688  0.00  0.00    +0.000 C 
ATOM     10  C   UNL     1       1.649   3.487  19.048  0.00  0.00    +0.000 C 
ATOM     11  C   UNL     1       0.592   2.393  18.838  0.00  0.00    +0.000 C 
ENDROOT
BRANCH  10  12
ATOM     12  O   UNL     1       0.987   4.465  19.870  0.00  0.00    +0.000 OA
ATOM     13  H   UNL     1       0.060   4.211  20.006  0.00  0.00    +0.000 HD
ENDBRANCH  10  12
BRANCH   6  14
ATOM     14  C   UNL     1       5.718   5.176  16.560  0.00  0.00    +0.000 C 
BRANCH  14  15
ATOM     15  C   UNL     1       6.951   6.074  16.497  0.00  0.00    +0.000 C 
BRANCH  15  16
ATOM     16  C   UNL     1       6.954   7.095  17.598  0.00  0.00    +0.000 C 
ATOM     17  C   UNL     1       8.126   7.233  18.536  0.00  0.00    +0.000 C 
ATOM     18  C   UNL     1       7.864   8.292  17.504  0.00  0.00    +0.000 C 
ENDBRANCH  15  16
ENDBRANCH  14  15
ENDBRANCH   6  14
TORSDOF 4
ENDMDL
MODEL 6
REMARK VINA RESULT:      -6.7      1.659      5.732
REMARK  Name = 
REMARK  7 active torsions:
REMARK  status: ('A' for Active; 'I' for Inactive)
REMARK    1  A    between atoms: C_1  and  C_2
REMARK    2  A    between atoms: C_2  and  C_3
REMARK    3  A    between atoms: C_6  and  C_8
REMARK    4  A    between atoms: C_8  and  C_9
REMARK    5  A    between atoms: C_9  and  C_10
REMARK    6  A    between atoms: C_15  and  C_16
REMARK    7  A    between atoms: C_15  and  O_17
REMARK                            x       y       z     vdW  Elec       q    Type
REMARK                         _______ _______ _______ _____ _____    ______ ____
ROOT
ATOM      1  C   UNL     1       3.184   3.255  20.558  0.00  0.00    +0.000 C 
ATOM      2  C   UNL     1       2.357   4.138  19.594  0.00  0.00    +0.000 C 
ATOM      3  C   UNL     1       1.210   4.773  20.409  0.00  0.00    +0.000 C 
ATOM      4  C   UNL     1       3.267   5.283  19.083  0.00  0.00    +0.000 C 
ATOM      5  N   UNL     1       4.327   4.770  18.218  0.00  0.00    +0.000 N 
ATOM      6  C   UNL     1       5.652   4.931  18.612  0.00  0.00    +0.000 C 
ATOM      7  O   UNL     1       5.953   5.499  19.660  0.00  0.00    +0.000 OA
ATOM      8  C   UNL     1       3.874   4.037  17.038  0.00  0.00    +0.000 C 
ATOM      9  C   UNL     1       2.964   2.876  17.434  0.00  0.00    +0.000 C 
ATOM     10  C   UNL     1       1.815   3.324  18.363  0.00  0.00    +0.000 C 
ATOM     11  C   UNL     1       0.986   2.094  18.762  0.00  0.00    +0.000 C 
ENDROOT
BRANCH  10  12
ATOM     12  O   UNL     1       0.906   4.127  17.589  0.00  0.00    +0.000 OA
ATOM     13  H   UNL     1       1.333   4.961  17.336  0.00  0.00    +0.000 HD
ENDBRANCH  10  12
BRANCH   6  14
ATOM     14  C   UNL     1       6.717   4.376  17.686  0.00  0.00    +0.000 C 
BRANCH  14  15
ATOM     15  C   UNL     1       6.887   5.232  16.433  0.00  0.00    +0.000 C 
BRANCH  15  16
ATOM     16  C   UNL     1       7.058   4.390  15.202  0.00  0.00    +0.000 C 
ATOM     17  C   UNL     1       5.961   4.272  14.175  0.00  0.00    +0.000 C 
ATOM     18  C   UNL     1       7.203   5.054  13.857  0.00  0.00    +0.000 C 
ENDBRANCH  15  16
ENDBRANCH  14  15
ENDBRANCH   6  14
TORSDOF 4
ENDMDL
MODEL 7
REMARK VINA RESULT:      -6.7      1.632      5.686
REMARK  Name = 
REMARK  7 active torsions:
REMARK  status: ('A' for Active; 'I' for Inactive)
REMARK    1  A    between atoms: C_1  and  C_2
REMARK    2  A    between atoms: C_2  and  C_3
REMARK    3  A    between atoms: C_6  and  C_8
REMARK    4  A    between atoms: C_8  and  C_9
REMARK    5  A    between atoms: C_9  and  C_10
REMARK    6  A    between atoms: C_15  and  C_16
REMARK    7  A    between atoms: C_15  and  O_17
REMARK                            x       y       z     vdW  Elec       q    Type
REMARK                         _______ _______ _______ _____ _____    ______ ____
ROOT
ATOM      1  C   UNL     1       3.880   2.617  20.268  0.00  0.00    +0.000 C 
ATOM      2  C   UNL     1       2.977   3.797  19.836  0.00  0.00    +0.000 C 
ATOM      3  C   UNL     1       2.008   4.095  20.999  0.00  0.00    +0.000 C 
ATOM      4  C   UNL     1       3.873   5.045  19.633  0.00  0.00    +0.000 C 
ATOM      5  N   UNL     1       4.757   4.879  18.481  0.00  0.00    +0.000 N 
ATOM      6  C   UNL     1       6.134   4.878  18.688  0.00  0.00    +0.000 C 
ATOM      7  O   UNL     1       6.623   5.021  19.806  0.00  0.00    +0.000 OA
ATOM      8  C   UNL     1       4.088   4.633  17.206  0.00  0.00    +0.000 C 
ATOM      9  C   UNL     1       3.174   3.412  17.298  0.00  0.00    +0.000 C 
ATOM     10  C   UNL     1       2.207   3.494  18.499  0.00  0.00    +0.000 C 
ATOM     11  C   UNL     1       1.370   2.208  18.555  0.00  0.00    +0.000 C 
ENDROOT
BRANCH  10  12
ATOM     12  O   UNL     1       1.247   4.530  18.225  0.00  0.00    +0.000 OA
ATOM     13  H   UNL     1       1.364   4.859  17.319  0.00  0.00    +0.000 HD
ENDBRANCH  10  12
BRANCH   6  14
ATOM     14  C   UNL     1       7.011   4.695  17.464  0.00  0.00    +0.000 C 
BRANCH  14  15
ATOM     15  C   UNL     1       7.411   6.032  16.843  0.00  0.00    +0.000 C 
BRANCH  15  16
ATOM     16  C   UNL     1       7.220   7.171  17.802  0.00  0.00    +0.000 C 
ATOM     17  C   UNL     1       8.383   7.767  18.552  0.00  0.00    +0.000 C 
ATOM     18  C   UNL     1       7.732   8.543  17.443  0.00  0.00    +0.000 C 
ENDBRANCH  15  16
ENDBRANCH  14  15
ENDBRANCH   6  14
TORSDOF 4
ENDMDL
MODEL 8
REMARK VINA RESULT:      -6.7      1.819      5.218
REMARK  Name = 
REMARK  7 active torsions:
REMARK  status: ('A' for Active; 'I' for Inactive)
REMARK    1  A    between atoms: C_1  and  C_2
REMARK    2  A    between atoms: C_2  and  C_3
REMARK    3  A    between atoms: C_6  and  C_8
REMARK    4  A    between atoms: C_8  and  C_9
REMARK    5  A    between atoms: C_9  and  C_10
REMARK    6  A    between atoms: C_15  and  C_16
REMARK    7  A    between atoms: C_15  and  O_17
REMARK                            x       y       z     vdW  Elec       q    Type
REMARK                         _______ _______ _______ _____ _____    ______ ____
ROOT
ATOM      1  C   UNL     1       2.891   5.219  20.514  0.00  0.00    +0.000 C 
ATOM      2  C   UNL     1       2.204   4.165  19.613  0.00  0.00    +0.000 C 
ATOM      3  C   UNL     1       0.757   3.988  20.120  0.00  0.00    +0.000 C 
ATOM      4  C   UNL     1       2.135   4.730  18.171  0.00  0.00    +0.000 C 
ATOM      5  N   UNL     1       3.468   4.836  17.582  0.00  0.00    +0.000 N 
ATOM      6  C   UNL     1       3.946   6.094  17.227  0.00  0.00    +0.000 C 
ATOM      7  O   UNL     1       3.277   7.112  17.387  0.00  0.00    +0.000 OA
ATOM      8  C   UNL     1       4.223   3.587  17.507  0.00  0.00    +0.000 C 
ATOM      9  C   UNL     1       4.351   2.945  18.887  0.00  0.00    +0.000 C 
ATOM     10  C   UNL     1       2.986   2.801  19.595  0.00  0.00    +0.000 C 
ATOM     11  C   UNL     1       3.208   2.206  20.992  0.00  0.00    +0.000 C 
ENDROOT
BRANCH  10  12
ATOM     12  O   UNL     1       2.228   1.796  18.898  0.00  0.00    +0.000 OA
ATOM     13  H   UNL     1       2.787   1.022  18.722  0.00  0.00    +0.000 HD
ENDBRANCH  10  12
BRANCH   6  14
ATOM     14  C   UNL     1       5.337   6.156  16.625  0.00  0.00    +0.000 C 
BRANCH  14  15
ATOM     15  C   UNL     1       6.261   7.080  17.416  0.00  0.00    +0.000 C 
BRANCH  15  16
ATOM     16  C   UNL     1       7.553   6.403  17.774  0.00  0.00    +0.000 C 
ATOM     17  C   UNL     1       7.782   5.828  19.148  0.00  0.00    +0.000 C 
ATOM     18  C   UNL     1       7.581   4.910  17.978  0.00  0.00    +0.000 C 
ENDBRANCH  15  16
ENDBRANCH  14  15
ENDBRANCH   6  14
TORSDOF 4
ENDMDL
MODEL 9
REMARK VINA RESULT:      -6.6      1.728      5.579
REMARK  Name = 
REMARK  7 active torsions:
REMARK  status: ('A' for Active; 'I' for Inactive)
REMARK    1  A    between atoms: C_1  and  C_2
REMARK    2  A    between atoms: C_2  and  C_3
REMARK    3  A    between atoms: C_6  and  C_8
REMARK    4  A    between atoms: C_8  and  C_9
REMARK    5  A    between atoms: C_9  and  C_10
REMARK    6  A    between atoms: C_15  and  C_16
REMARK    7  A    between atoms: C_15  and  O_17
REMARK                            x       y       z     vdW  Elec       q    Type
REMARK                         _______ _______ _______ _____ _____    ______ ____
ROOT
ATOM      1  C   UNL     1       2.423   5.166  20.720  0.00  0.00    +0.000 C 
ATOM      2  C   UNL     1       1.988   4.028  19.765  0.00  0.00    +0.000 C 
ATOM      3  C   UNL     1       0.515   3.692  20.078  0.00  0.00    +0.000 C 
ATOM      4  C   UNL     1       2.054   4.563  18.312  0.00  0.00    +0.000 C 
ATOM      5  N   UNL     1       3.434   4.815  17.904  0.00  0.00    +0.000 N 
ATOM      6  C   UNL     1       3.812   6.115  17.581  0.00  0.00    +0.000 C 
ATOM      7  O   UNL     1       3.016   7.051  17.621  0.00  0.00    +0.000 OA
ATOM      8  C   UNL     1       4.327   3.660  17.966  0.00  0.00    +0.000 C 
ATOM      9  C   UNL     1       4.338   3.055  19.368  0.00  0.00    +0.000 C 
ATOM     10  C   UNL     1       2.914   2.764  19.890  0.00  0.00    +0.000 C 
ATOM     11  C   UNL     1       3.008   2.216  21.321  0.00  0.00    +0.000 C 
ENDROOT
BRANCH  10  12
ATOM     12  O   UNL     1       2.376   1.669  19.127  0.00  0.00    +0.000 OA
ATOM     13  H   UNL     1       3.095   1.090  18.826  0.00  0.00    +0.000 HD
ENDBRANCH  10  12
BRANCH   6  14
ATOM     14  C   UNL     1       5.256   6.329  17.170  0.00  0.00    +0.000 C 
BRANCH  14  15
ATOM     15  C   UNL     1       5.457   6.137  15.668  0.00  0.00    +0.000 C 
BRANCH  15  16
ATOM     16  C   UNL     1       6.414   5.018  15.373  0.00  0.00    +0.000 C 
ATOM     17  C   UNL     1       6.039   3.890  14.447  0.00  0.00    +0.000 C 
ATOM     18  C   UNL     1       7.043   4.915  14.008  0.00  0.00    +0.000 C 
ENDBRANCH  15  16
ENDBRANCH  14  15
ENDBRANCH   6  14
TORSDOF 4
ENDMDL
