MODEL 1
REMARK VINA RESULT:      -9.4      0.000      0.000
REMARK  Name = 
REMARK  4 active torsions:
REMARK  status: ('A' for Active; 'I' for Inactive)
REMARK    1  A    between atoms: C_3  and  C_4
REMARK    2  A    between atoms: N_10  and  C_11
REMARK    3  A    between atoms: C_11  and  C_12
REMARK    4  A    between atoms: C_15  and  N_16
REMARK                            x       y       z     vdW  Elec       q    Type
REMARK                         _______ _______ _______ _____ _____    ______ ____
ROOT
ATOM      1  C   UNL     1       2.558   7.184  18.392  0.00  0.00    +0.000 A 
ATOM      2  C   UNL     1       1.910   6.000  18.753  0.00  0.00    +0.000 A 
ATOM      3  C   UNL     1       2.544   4.815  18.382  0.00  0.00    +0.000 A 
ATOM      4  C   UNL     1       3.744   4.822  17.676  0.00  0.00    +0.000 A 
ATOM      5  N   UNL     1       4.141   3.521  17.405  0.00  0.00    +0.000 NA
ATOM      6  C   UNL     1       3.250   2.747  17.956  0.00  0.00    +0.000 A 
ATOM      7  N   UNL     1       2.265   3.480  18.576  0.00  0.00    +0.000 N 
ATOM      8  C   UNL     1       4.382   6.058  17.360  0.00  0.00    +0.000 A 
ATOM      9  N   UNL     1       3.769   7.211  17.765  0.00  0.00    +0.000 NA
ENDROOT
BRANCH   1  12
ATOM     10  C   UNL     1       1.417  10.798  18.040  0.00  0.00    +0.000 A 
ATOM     11  C   UNL     1       1.957   9.545  17.754  0.00  0.00    +0.000 A 
ATOM     12  C   UNL     1       1.984   8.506  18.711  0.00  0.00    +0.000 A 
ATOM     13  C   UNL     1       1.414   8.777  19.987  0.00  0.00    +0.000 A 
ATOM     14  C   UNL     1       1.204   8.017  21.183  0.00  0.00    +0.000 A 
ATOM     15  C   UNL     1       0.588   8.825  22.109  0.00  0.00    +0.000 A 
ATOM     16  N   UNL     1       0.391  10.046  21.527  0.00  0.00    +0.000 N 
ATOM     17  C   UNL     1       0.878  10.046  20.239  0.00  0.00    +0.000 A 
ATOM     18  C   UNL     1       0.869  11.073  19.291  0.00  0.00    +0.000 A 
ATOM     19  H   UNL     1      -0.063  10.836  21.964  0.00  0.00    +0.000 HD
ENDBRANCH   1  12
BRANCH   8  20
ATOM     20  N   UNL     1       5.589   6.100  16.690  0.00  0.00    +0.000 N 
ATOM     21  C   UNL     1       5.703   5.681  15.297  0.00  0.00    +0.000 C 
ATOM     22  C   UNL     1       6.524   4.395  15.151  0.00  0.00    +0.000 C 
ATOM     23  O   UNL     1       7.781   4.477  15.846  0.00  0.00    +0.000 OA
ATOM     24  C   UNL     1       7.544   4.701  17.246  0.00  0.00    +0.000 C 
ATOM     25  C   UNL     1       6.814   6.032  17.492  0.00  0.00    +0.000 C 
ENDBRANCH   8  20
BRANCH   7  26
ATOM     26  C   UNL     1       1.124   2.901  19.261  0.00  0.00    +0.000 C 
BRANCH  26  27
ATOM     27  C   UNL     1       1.019   3.341  20.697  0.00  0.00    +0.000 C 
ATOM     28  C   UNL     1       1.359   2.393  21.828  0.00  0.00    +0.000 C 
ATOM     29  C   UNL     1       2.307   3.509  21.464  0.00  0.00    +0.000 C 
ENDBRANCH  26  27
ENDBRANCH   7  26
TORSDOF 4
ENDMDL
MODEL 2
REMARK VINA RESULT:      -8.7      1.081      1.345
REMARK  Name = 
REMARK  4 active torsions:
REMARK  status: ('A' for Active; 'I' for Inactive)
REMARK    1  A    between atoms: C_3  and  C_4
REMARK    2  A    between atoms: N_10  and  C_11
REMARK    3  A    between atoms: C_11  and  C_12
REMARK    4  A    between atoms: C_15  and  N_16
REMARK                            x       y       z     vdW  Elec       q    Type
REMARK                         _______ _______ _______ _____ _____    ______ ____
ROOT
ATOM      1  C   UNL     1       2.372   7.476  18.970  0.00  0.00    +0.000 A 
ATOM      2  C   UNL     1       2.237   6.315  19.734  0.00  0.00    +0.000 A 
ATOM      3  C   UNL     1       3.160   5.301  19.478  0.00  0.00    +0.000 A 
ATOM      4  C   UNL     1       4.144   5.442  18.503  0.00  0.00    +0.000 A 
ATOM      5  N   UNL     1       4.905   4.284  18.429  0.00  0.00    +0.000 NA
ATOM      6  C   UNL     1       4.440   3.483  19.345  0.00  0.00    +0.000 A 
ATOM      7  N   UNL     1       3.389   4.056  20.023  0.00  0.00    +0.000 N 
ATOM      8  C   UNL     1       4.259   6.661  17.773  0.00  0.00    +0.000 A 
ATOM      9  N   UNL     1       3.372   7.661  18.062  0.00  0.00    +0.000 NA
ENDROOT
BRANCH   1  12
ATOM     10  C   UNL     1       0.070  10.394  18.147  0.00  0.00    +0.000 A 
ATOM     11  C   UNL     1       0.944   9.316  18.011  0.00  0.00    +0.000 A 
ATOM     12  C   UNL     1       1.449   8.617  19.130  0.00  0.00    +0.000 A 
ATOM     13  C   UNL     1       1.013   9.040  20.418  0.00  0.00    +0.000 A 
ATOM     14  C   UNL     1       1.240   8.595  21.759  0.00  0.00    +0.000 A 
ATOM     15  C   UNL     1       0.534   9.409  22.614  0.00  0.00    +0.000 A 
ATOM     16  N   UNL     1      -0.134  10.326  21.853  0.00  0.00    +0.000 N 
ATOM     17  C   UNL     1       0.133  10.126  20.517  0.00  0.00    +0.000 A 
ATOM     18  C   UNL     1      -0.350  10.821  19.405  0.00  0.00    +0.000 A 
ATOM     19  H   UNL     1      -0.754  11.041  22.209  0.00  0.00    +0.000 HD
ENDBRANCH   1  12
BRANCH   8  20
ATOM     20  N   UNL     1       5.244   6.846  16.822  0.00  0.00    +0.000 N 
ATOM     21  C   UNL     1       5.148   6.241  15.499  0.00  0.00    +0.000 C 
ATOM     22  C   UNL     1       6.204   5.148  15.290  0.00  0.00    +0.000 C 
ATOM     23  O   UNL     1       7.524   5.603  15.636  0.00  0.00    +0.000 OA
ATOM     24  C   UNL     1       7.552   5.996  17.019  0.00  0.00    +0.000 C 
ATOM     25  C   UNL     1       6.594   7.166  17.295  0.00  0.00    +0.000 C 
ENDBRANCH   8  20
BRANCH   7  26
ATOM     26  C   UNL     1       2.650   3.403  21.088  0.00  0.00    +0.000 C 
BRANCH  26  27
ATOM     27  C   UNL     1       1.564   2.494  20.576  0.00  0.00    +0.000 C 
ATOM     28  C   UNL     1       0.484   3.017  19.654  0.00  0.00    +0.000 C 
ATOM     29  C   UNL     1       1.589   2.148  19.108  0.00  0.00    +0.000 C 
ENDBRANCH  26  27
ENDBRANCH   7  26
TORSDOF 4
ENDMDL
MODEL 3
REMARK VINA RESULT:      -7.9      0.871      1.902
REMARK  Name = 
REMARK  4 active torsions:
REMARK  status: ('A' for Active; 'I' for Inactive)
REMARK    1  A    between atoms: C_3  and  C_4
REMARK    2  A    between atoms: N_10  and  C_11
REMARK    3  A    between atoms: C_11  and  C_12
REMARK    4  A    between atoms: C_15  and  N_16
REMARK                            x       y       z     vdW  Elec       q    Type
REMARK                         _______ _______ _______ _____ _____    ______ ____
ROOT
ATOM      1  C   UNL     1       2.350   6.896  19.178  0.00  0.00    +0.000 A 
ATOM      2  C   UNL     1       1.840   5.601  19.297  0.00  0.00    +0.000 A 
ATOM      3  C   UNL     1       2.506   4.610  18.577  0.00  0.00    +0.000 A 
ATOM      4  C   UNL     1       3.603   4.907  17.773  0.00  0.00    +0.000 A 
ATOM      5  N   UNL     1       4.056   3.755  17.145  0.00  0.00    +0.000 NA
ATOM      6  C   UNL     1       3.300   2.786  17.576  0.00  0.00    +0.000 A 
ATOM      7  N   UNL     1       2.351   3.245  18.459  0.00  0.00    +0.000 N 
ATOM      8  C   UNL     1       4.104   6.241  17.710  0.00  0.00    +0.000 A 
ATOM      9  N   UNL     1       3.466   7.195  18.453  0.00  0.00    +0.000 NA
ENDROOT
BRANCH   1  12
ATOM     10  C   UNL     1       0.670   8.992  21.875  0.00  0.00    +0.000 A 
ATOM     11  C   UNL     1       1.259   7.921  21.203  0.00  0.00    +0.000 A 
ATOM     12  C   UNL     1       1.727   8.038  19.875  0.00  0.00    +0.000 A 
ATOM     13  C   UNL     1       1.597   9.308  19.245  0.00  0.00    +0.000 A 
ATOM     14  C   UNL     1       1.967   9.847  17.971  0.00  0.00    +0.000 A 
ATOM     15  C   UNL     1       1.580  11.166  17.927  0.00  0.00    +0.000 A 
ATOM     16  N   UNL     1       1.003  11.467  19.129  0.00  0.00    +0.000 N 
ATOM     17  C   UNL     1       1.002  10.362  19.950  0.00  0.00    +0.000 A 
ATOM     18  C   UNL     1       0.529  10.233  21.259  0.00  0.00    +0.000 A 
ATOM     19  H   UNL     1       0.643  12.373  19.394  0.00  0.00    +0.000 HD
ENDBRANCH   1  12
BRANCH   8  20
ATOM     20  N   UNL     1       5.211   6.564  16.949  0.00  0.00    +0.000 N 
ATOM     21  C   UNL     1       5.180   6.492  15.492  0.00  0.00    +0.000 C 
ATOM     22  C   UNL     1       6.075   5.369  14.955  0.00  0.00    +0.000 C 
ATOM     23  O   UNL     1       7.399   5.421  15.515  0.00  0.00    +0.000 OA
ATOM     24  C   UNL     1       7.324   5.290  16.944  0.00  0.00    +0.000 C 
ATOM     25  C   UNL     1       6.528   6.443  17.579  0.00  0.00    +0.000 C 
ENDBRANCH   8  20
BRANCH   7  26
ATOM     26  C   UNL     1       1.352   2.407  19.095  0.00  0.00    +0.000 C 
BRANCH  26  27
ATOM     27  C   UNL     1       1.774   1.921  20.456  0.00  0.00    +0.000 C 
ATOM     28  C   UNL     1       2.769   2.704  21.286  0.00  0.00    +0.000 C 
ATOM     29  C   UNL     1       1.305   2.716  21.649  0.00  0.00    +0.000 C 
ENDBRANCH  26  27
ENDBRANCH   7  26
TORSDOF 4
ENDMDL
MODEL 4
REMARK VINA RESULT:      -7.9      1.149      1.515
REMARK  Name = 
REMARK  4 active torsions:
REMARK  status: ('A' for Active; 'I' for Inactive)
REMARK    1  A    between atoms: C_3  and  C_4
REMARK    2  A    between atoms: N_10  and  C_11
REMARK    3  A    between atoms: C_11  and  C_12
REMARK    4  A    between atoms: C_15  and  N_16
REMARK                            x       y       z     vdW  Elec       q    Type
REMARK                         _______ _______ _______ _____ _____    ______ ____
ROOT
ATOM      1  C   UNL     1       2.648   6.959  18.646  0.00  0.00    +0.000 A 
ATOM      2  C   UNL     1       1.972   5.765  18.907  0.00  0.00    +0.000 A 
ATOM      3  C   UNL     1       2.701   4.592  18.716  0.00  0.00    +0.000 A 
ATOM      4  C   UNL     1       4.020   4.620  18.272  0.00  0.00    +0.000 A 
ATOM      5  N   UNL     1       4.500   3.325  18.134  0.00  0.00    +0.000 NA
ATOM      6  C   UNL     1       3.536   2.537  18.517  0.00  0.00    +0.000 A 
ATOM      7  N   UNL     1       2.425   3.254  18.895  0.00  0.00    +0.000 N 
ATOM      8  C   UNL     1       4.675   5.867  18.050  0.00  0.00    +0.000 A 
ATOM      9  N   UNL     1       3.961   7.009  18.280  0.00  0.00    +0.000 NA
ENDROOT
BRANCH   1  12
ATOM     10  C   UNL     1       1.230  10.395  17.822  0.00  0.00    +0.000 A 
ATOM     11  C   UNL     1       1.855   9.154  17.699  0.00  0.00    +0.000 A 
ATOM     12  C   UNL     1       1.984   8.269  18.793  0.00  0.00    +0.000 A 
ATOM     13  C   UNL     1       1.428   8.681  20.036  0.00  0.00    +0.000 A 
ATOM     14  C   UNL     1       1.306   8.090  21.335  0.00  0.00    +0.000 A 
ATOM     15  C   UNL     1       0.654   8.978  22.158  0.00  0.00    +0.000 A 
ATOM     16  N   UNL     1       0.352  10.084  21.415  0.00  0.00    +0.000 N 
ATOM     17  C   UNL     1       0.805   9.932  20.124  0.00  0.00    +0.000 A 
ATOM     18  C   UNL     1       0.694  10.808  19.040  0.00  0.00    +0.000 A 
ATOM     19  H   UNL     1      -0.149  10.895  21.752  0.00  0.00    +0.000 HD
ENDBRANCH   1  12
BRANCH   8  20
ATOM     20  N   UNL     1       5.993   5.931  17.642  0.00  0.00    +0.000 N 
ATOM     21  C   UNL     1       7.056   5.267  18.389  0.00  0.00    +0.000 C 
ATOM     22  C   UNL     1       8.000   6.273  19.060  0.00  0.00    +0.000 C 
ATOM     23  O   UNL     1       8.465   7.272  18.135  0.00  0.00    +0.000 OA
ATOM     24  C   UNL     1       7.344   7.996  17.602  0.00  0.00    +0.000 C 
ATOM     25  C   UNL     1       6.395   7.075  16.818  0.00  0.00    +0.000 C 
ENDBRANCH   8  20
BRANCH   7  26
ATOM     26  C   UNL     1       1.183   2.656  19.351  0.00  0.00    +0.000 C 
BRANCH  26  27
ATOM     27  C   UNL     1       0.869   2.983  20.787  0.00  0.00    +0.000 C 
ATOM     28  C   UNL     1       1.479   2.183  21.918  0.00  0.00    +0.000 C 
ATOM     29  C   UNL     1       1.980   3.574  21.619  0.00  0.00    +0.000 C 
ENDBRANCH  26  27
ENDBRANCH   7  26
TORSDOF 4
ENDMDL
MODEL 5
REMARK VINA RESULT:      -7.8      1.994      4.642
REMARK  Name = 
REMARK  4 active torsions:
REMARK  status: ('A' for Active; 'I' for Inactive)
REMARK    1  A    between atoms: C_3  and  C_4
REMARK    2  A    between atoms: N_10  and  C_11
REMARK    3  A    between atoms: C_11  and  C_12
REMARK    4  A    between atoms: C_15  and  N_16
REMARK                            x       y       z     vdW  Elec       q    Type
REMARK                         _______ _______ _______ _____ _____    ______ ____
ROOT
ATOM      1  C   UNL     1       2.199   7.769  19.056  0.00  0.00    +0.000 A 
ATOM      2  C   UNL     1       3.297   7.656  18.201  0.00  0.00    +0.000 A 
ATOM      3  C   UNL     1       3.847   6.381  18.073  0.00  0.00    +0.000 A 
ATOM      4  C   UNL     1       3.335   5.294  18.776  0.00  0.00    +0.000 A 
ATOM      5  N   UNL     1       4.080   4.157  18.496  0.00  0.00    +0.000 NA
ATOM      6  C   UNL     1       4.982   4.517  17.628  0.00  0.00    +0.000 A 
ATOM      7  N   UNL     1       4.877   5.855  17.324  0.00  0.00    +0.000 N 
ATOM      8  C   UNL     1       2.192   5.456  19.612  0.00  0.00    +0.000 A 
ATOM      9  N   UNL     1       1.638   6.703  19.697  0.00  0.00    +0.000 NA
ENDROOT
BRANCH   1  12
ATOM     10  C   UNL     1       0.774  11.250  18.468  0.00  0.00    +0.000 A 
ATOM     11  C   UNL     1       1.401  10.021  18.261  0.00  0.00    +0.000 A 
ATOM     12  C   UNL     1       1.535   9.066  19.293  0.00  0.00    +0.000 A 
ATOM     13  C   UNL     1       0.982   9.393  20.563  0.00  0.00    +0.000 A 
ATOM     14  C   UNL     1       0.866   8.717  21.820  0.00  0.00    +0.000 A 
ATOM     15  C   UNL     1       0.216   9.547  22.703  0.00  0.00    +0.000 A 
ATOM     16  N   UNL     1      -0.090  10.700  22.036  0.00  0.00    +0.000 N 
ATOM     17  C   UNL     1       0.358  10.635  20.736  0.00  0.00    +0.000 A 
ATOM     18  C   UNL     1       0.243  11.580  19.713  0.00  0.00    +0.000 A 
ATOM     19  H   UNL     1      -0.591  11.486  22.427  0.00  0.00    +0.000 HD
ENDBRANCH   1  12
BRANCH   8  20
ATOM     20  N   UNL     1       1.638   4.392  20.297  0.00  0.00    +0.000 N 
ATOM     21  C   UNL     1       2.217   3.905  21.544  0.00  0.00    +0.000 C 
ATOM     22  C   UNL     1       2.832   2.509  21.385  0.00  0.00    +0.000 C 
ATOM     23  O   UNL     1       1.921   1.588  20.759  0.00  0.00    +0.000 OA
ATOM     24  C   UNL     1       1.566   2.073  19.454  0.00  0.00    +0.000 C 
ATOM     25  C   UNL     1       0.843   3.429  19.529  0.00  0.00    +0.000 C 
ENDBRANCH   8  20
BRANCH   7  26
ATOM     26  C   UNL     1       5.754   6.554  16.403  0.00  0.00    +0.000 C 
BRANCH  26  27
ATOM     27  C   UNL     1       7.188   6.577  16.862  0.00  0.00    +0.000 C 
ATOM     28  C   UNL     1       7.765   7.798  17.547  0.00  0.00    +0.000 C 
ATOM     29  C   UNL     1       7.437   6.564  18.350  0.00  0.00    +0.000 C 
ENDBRANCH  26  27
ENDBRANCH   7  26
TORSDOF 4
ENDMDL
MODEL 6
REMARK VINA RESULT:      -7.8      1.367      1.897
REMARK  Name = 
REMARK  4 active torsions:
REMARK  status: ('A' for Active; 'I' for Inactive)
REMARK    1  A    between atoms: C_3  and  C_4
REMARK    2  A    between atoms: N_10  and  C_11
REMARK    3  A    between atoms: C_11  and  C_12
REMARK    4  A    between atoms: C_15  and  N_16
REMARK                            x       y       z     vdW  Elec       q    Type
REMARK                         _______ _______ _______ _____ _____    ______ ____
ROOT
ATOM      1  C   UNL     1       3.034   6.581  19.222  0.00  0.00    +0.000 A 
ATOM      2  C   UNL     1       2.468   5.504  19.908  0.00  0.00    +0.000 A 
ATOM      3  C   UNL     1       3.248   4.351  19.994  0.00  0.00    +0.000 A 
ATOM      4  C   UNL     1       4.510   4.282  19.410  0.00  0.00    +0.000 A 
ATOM      5  N   UNL     1       5.056   3.022  19.612  0.00  0.00    +0.000 NA
ATOM      6  C   UNL     1       4.190   2.361  20.325  0.00  0.00    +0.000 A 
ATOM      7  N   UNL     1       3.079   3.125  20.598  0.00  0.00    +0.000 N 
ATOM      8  C   UNL     1       5.056   5.420  18.748  0.00  0.00    +0.000 A 
ATOM      9  N   UNL     1       4.297   6.557  18.706  0.00  0.00    +0.000 NA
ENDROOT
BRANCH   1  12
ATOM     10  C   UNL     1       1.622   9.735  17.625  0.00  0.00    +0.000 A 
ATOM     11  C   UNL     1       2.307   8.533  17.808  0.00  0.00    +0.000 A 
ATOM     12  C   UNL     1       2.306   7.853  19.046  0.00  0.00    +0.000 A 
ATOM     13  C   UNL     1       1.556   8.429  20.109  0.00  0.00    +0.000 A 
ATOM     14  C   UNL     1       1.266   8.055  21.461  0.00  0.00    +0.000 A 
ATOM     15  C   UNL     1       0.466   9.025  22.019  0.00  0.00    +0.000 A 
ATOM     16  N   UNL     1       0.234   9.971  21.060  0.00  0.00    +0.000 N 
ATOM     17  C   UNL     1       0.879   9.635  19.890  0.00  0.00    +0.000 A 
ATOM     18  C   UNL     1       0.896  10.310  18.666  0.00  0.00    +0.000 A 
ATOM     19  H   UNL     1      -0.342  10.793  21.177  0.00  0.00    +0.000 HD
ENDBRANCH   1  12
BRANCH   8  20
ATOM     20  N   UNL     1       6.318   5.397  18.186  0.00  0.00    +0.000 N 
ATOM     21  C   UNL     1       7.281   6.465  18.430  0.00  0.00    +0.000 C 
ATOM     22  C   UNL     1       7.555   7.290  17.167  0.00  0.00    +0.000 C 
ATOM     23  O   UNL     1       7.873   6.456  16.039  0.00  0.00    +0.000 OA
ATOM     24  C   UNL     1       6.774   5.571  15.767  0.00  0.00    +0.000 C 
ATOM     25  C   UNL     1       6.498   4.629  16.951  0.00  0.00    +0.000 C 
ENDBRANCH   8  20
BRANCH   7  26
ATOM     26  C   UNL     1       1.933   2.658  21.357  0.00  0.00    +0.000 C 
BRANCH  26  27
ATOM     27  C   UNL     1       0.790   2.217  20.480  0.00  0.00    +0.000 C 
ATOM     28  C   UNL     1       0.261   3.117  19.383  0.00  0.00    +0.000 C 
ATOM     29  C   UNL     1       1.105   1.916  19.036  0.00  0.00    +0.000 C 
ENDBRANCH  26  27
ENDBRANCH   7  26
TORSDOF 4
ENDMDL
MODEL 7
REMARK VINA RESULT:      -7.7      0.902      1.310
REMARK  Name = 
REMARK  4 active torsions:
REMARK  status: ('A' for Active; 'I' for Inactive)
REMARK    1  A    between atoms: C_3  and  C_4
REMARK    2  A    between atoms: N_10  and  C_11
REMARK    3  A    between atoms: C_11  and  C_12
REMARK    4  A    between atoms: C_15  and  N_16
REMARK                            x       y       z     vdW  Elec       q    Type
REMARK                         _______ _______ _______ _____ _____    ______ ____
ROOT
ATOM      1  C   UNL     1       2.847   6.418  18.570  0.00  0.00    +0.000 A 
ATOM      2  C   UNL     1       2.085   5.314  18.957  0.00  0.00    +0.000 A 
ATOM      3  C   UNL     1       2.690   4.066  18.805  0.00  0.00    +0.000 A 
ATOM      4  C   UNL     1       3.972   3.939  18.278  0.00  0.00    +0.000 A 
ATOM      5  N   UNL     1       4.321   2.598  18.203  0.00  0.00    +0.000 NA
ATOM      6  C   UNL     1       3.318   1.933  18.701  0.00  0.00    +0.000 A 
ATOM      7  N   UNL     1       2.305   2.775  19.095  0.00  0.00    +0.000 N 
ATOM      8  C   UNL     1       4.721   5.101  17.928  0.00  0.00    +0.000 A 
ATOM      9  N   UNL     1       4.131   6.319  18.120  0.00  0.00    +0.000 NA
ENDROOT
BRANCH   1  12
ATOM     10  C   UNL     1       1.900   9.989  17.649  0.00  0.00    +0.000 A 
ATOM     11  C   UNL     1       2.398   8.687  17.575  0.00  0.00    +0.000 A 
ATOM     12  C   UNL     1       2.318   7.793  18.665  0.00  0.00    +0.000 A 
ATOM     13  C   UNL     1       1.685   8.261  19.851  0.00  0.00    +0.000 A 
ATOM     14  C   UNL     1       1.367   7.685  21.123  0.00  0.00    +0.000 A 
ATOM     15  C   UNL     1       0.734   8.638  21.887  0.00  0.00    +0.000 A 
ATOM     16  N   UNL     1       0.631   9.772  21.130  0.00  0.00    +0.000 N 
ATOM     17  C   UNL     1       1.195   9.573  19.890  0.00  0.00    +0.000 A 
ATOM     18  C   UNL     1       1.291  10.456  18.811  0.00  0.00    +0.000 A 
ATOM     19  H   UNL     1       0.189  10.632  21.424  0.00  0.00    +0.000 HD
ENDBRANCH   1  12
BRANCH   8  20
ATOM     20  N   UNL     1       6.008   5.012  17.434  0.00  0.00    +0.000 N 
ATOM     21  C   UNL     1       7.026   5.998  17.780  0.00  0.00    +0.000 C 
ATOM     22  C   UNL     1       7.427   6.856  16.574  0.00  0.00    +0.000 C 
ATOM     23  O   UNL     1       7.751   6.052  15.426  0.00  0.00    +0.000 OA
ATOM     24  C   UNL     1       6.611   5.260  15.054  0.00  0.00    +0.000 C 
ATOM     25  C   UNL     1       6.205   4.289  16.175  0.00  0.00    +0.000 C 
ENDBRANCH   8  20
BRANCH   7  26
ATOM     26  C   UNL     1       1.049   2.330  19.670  0.00  0.00    +0.000 C 
BRANCH  26  27
ATOM     27  C   UNL     1       0.809   2.880  21.051  0.00  0.00    +0.000 C 
ATOM     28  C   UNL     1       1.171   2.076  22.281  0.00  0.00    +0.000 C 
ATOM     29  C   UNL     1       2.022   3.251  21.867  0.00  0.00    +0.000 C 
ENDBRANCH  26  27
ENDBRANCH   7  26
TORSDOF 4
ENDMDL
MODEL 8
REMARK VINA RESULT:      -7.6      1.985      4.750
REMARK  Name = 
REMARK  4 active torsions:
REMARK  status: ('A' for Active; 'I' for Inactive)
REMARK    1  A    between atoms: C_3  and  C_4
REMARK    2  A    between atoms: N_10  and  C_11
REMARK    3  A    between atoms: C_11  and  C_12
REMARK    4  A    between atoms: C_15  and  N_16
REMARK                            x       y       z     vdW  Elec       q    Type
REMARK                         _______ _______ _______ _____ _____    ______ ____
ROOT
ATOM      1  C   UNL     1       2.434   7.666  18.665  0.00  0.00    +0.000 A 
ATOM      2  C   UNL     1       3.383   7.335  17.695  0.00  0.00    +0.000 A 
ATOM      3  C   UNL     1       3.772   5.996  17.648  0.00  0.00    +0.000 A 
ATOM      4  C   UNL     1       3.252   5.056  18.534  0.00  0.00    +0.000 A 
ATOM      5  N   UNL     1       3.826   3.815  18.297  0.00  0.00    +0.000 NA
ATOM      6  C   UNL     1       4.629   3.973  17.283  0.00  0.00    +0.000 A 
ATOM      7  N   UNL     1       4.624   5.275  16.840  0.00  0.00    +0.000 N 
ATOM      8  C   UNL     1       2.262   5.440  19.485  0.00  0.00    +0.000 A 
ATOM      9  N   UNL     1       1.861   6.747  19.494  0.00  0.00    +0.000 NA
ENDROOT
BRANCH   1  12
ATOM     10  C   UNL     1       1.804  11.365  18.024  0.00  0.00    +0.000 A 
ATOM     11  C   UNL     1       2.255  10.053  17.882  0.00  0.00    +0.000 A 
ATOM     12  C   UNL     1       1.951   9.051  18.830  0.00  0.00    +0.000 A 
ATOM     13  C   UNL     1       1.139   9.424  19.939  0.00  0.00    +0.000 A 
ATOM     14  C   UNL     1       0.582   8.732  21.062  0.00  0.00    +0.000 A 
ATOM     15  C   UNL     1      -0.137   9.631  21.815  0.00  0.00    +0.000 A 
ATOM     16  N   UNL     1      -0.061  10.845  21.190  0.00  0.00    +0.000 N 
ATOM     17  C   UNL     1       0.702  10.750  20.049  0.00  0.00    +0.000 A 
ATOM     18  C   UNL     1       1.020  11.738  19.113  0.00  0.00    +0.000 A 
ATOM     19  H   UNL     1      -0.514  11.692  21.504  0.00  0.00    +0.000 HD
ENDBRANCH   1  12
BRANCH   8  20
ATOM     20  N   UNL     1       1.701   4.526  20.357  0.00  0.00    +0.000 N 
ATOM     21  C   UNL     1       2.392   4.111  21.573  0.00  0.00    +0.000 C 
ATOM     22  C   UNL     1       2.835   2.645  21.509  0.00  0.00    +0.000 C 
ATOM     23  O   UNL     1       1.759   1.774  21.115  0.00  0.00    +0.000 OA
ATOM     24  C   UNL     1       1.281   2.155  19.815  0.00  0.00    +0.000 C 
ATOM     25  C   UNL     1       0.717   3.586  19.815  0.00  0.00    +0.000 C 
ENDBRANCH   8  20
BRANCH   7  26
ATOM     26  C   UNL     1       5.431   5.766  15.738  0.00  0.00    +0.000 C 
BRANCH  26  27
ATOM     27  C   UNL     1       6.384   4.730  15.202  0.00  0.00    +0.000 C 
ATOM     28  C   UNL     1       6.088   3.997  13.912  0.00  0.00    +0.000 C 
ATOM     29  C   UNL     1       7.142   5.075  13.945  0.00  0.00    +0.000 C 
ENDBRANCH  26  27
ENDBRANCH   7  26
TORSDOF 4
ENDMDL
MODEL 9
REMARK VINA RESULT:      -7.6      2.188      4.881
REMARK  Name = 
REMARK  4 active torsions:
REMARK  status: ('A' for Active; 'I' for Inactive)
REMARK    1  A    between atoms: C_3  and  C_4
REMARK    2  A    between atoms: N_10  and  C_11
REMARK    3  A    between atoms: C_11  and  C_12
REMARK    4  A    between atoms: C_15  and  N_16
REMARK                            x       y       z     vdW  Elec       q    Type
REMARK                         _______ _______ _______ _____ _____    ______ ____
ROOT
ATOM      1  C   UNL     1       2.953   7.176  18.507  0.00  0.00    +0.000 A 
ATOM      2  C   UNL     1       4.233   7.459  18.027  0.00  0.00    +0.000 A 
ATOM      3  C   UNL     1       5.100   6.373  17.911  0.00  0.00    +0.000 A 
ATOM      4  C   UNL     1       4.708   5.087  18.274  0.00  0.00    +0.000 A 
ATOM      5  N   UNL     1       5.762   4.202  18.094  0.00  0.00    +0.000 NA
ATOM      6  C   UNL     1       6.744   4.902  17.602  0.00  0.00    +0.000 A 
ATOM      7  N   UNL     1       6.392   6.224  17.456  0.00  0.00    +0.000 N 
ATOM      8  C   UNL     1       3.378   4.846  18.729  0.00  0.00    +0.000 A 
ATOM      9  N   UNL     1       2.527   5.913  18.799  0.00  0.00    +0.000 NA
ENDROOT
BRANCH   1  12
ATOM     10  C   UNL     1       0.457   9.949  17.749  0.00  0.00    +0.000 A 
ATOM     11  C   UNL     1       1.411   8.944  17.590  0.00  0.00    +0.000 A 
ATOM     12  C   UNL     1       1.945   8.239  18.692  0.00  0.00    +0.000 A 
ATOM     13  C   UNL     1       1.456   8.577  19.985  0.00  0.00    +0.000 A 
ATOM     14  C   UNL     1       1.690   8.095  21.313  0.00  0.00    +0.000 A 
ATOM     15  C   UNL     1       0.910   8.820  22.183  0.00  0.00    +0.000 A 
ATOM     16  N   UNL     1       0.190   9.716  21.444  0.00  0.00    +0.000 N 
ATOM     17  C   UNL     1       0.496   9.590  20.107  0.00  0.00    +0.000 A 
ATOM     18  C   UNL     1      -0.016  10.293  19.013  0.00  0.00    +0.000 A 
ATOM     19  H   UNL     1      -0.487  10.369  21.814  0.00  0.00    +0.000 HD
ENDBRANCH   1  12
BRANCH   8  20
ATOM     20  N   UNL     1       2.946   3.578  19.065  0.00  0.00    +0.000 N 
ATOM     21  C   UNL     1       1.652   3.071  18.621  0.00  0.00    +0.000 C 
ATOM     22  C   UNL     1       0.672   2.898  19.788  0.00  0.00    +0.000 C 
ATOM     23  O   UNL     1       1.255   2.156  20.874  0.00  0.00    +0.000 OA
ATOM     24  C   UNL     1       2.418   2.846  21.362  0.00  0.00    +0.000 C 
ATOM     25  C   UNL     1       3.501   2.970  20.278  0.00  0.00    +0.000 C 
ENDBRANCH   8  20
BRANCH   7  26
ATOM     26  C   UNL     1       7.280   7.255  16.951  0.00  0.00    +0.000 C 
BRANCH  26  27
ATOM     27  C   UNL     1       7.419   8.422  17.892  0.00  0.00    +0.000 C 
ATOM     28  C   UNL     1       8.712   8.666  18.642  0.00  0.00    +0.000 C 
ATOM     29  C   UNL     1       8.339   9.542  17.472  0.00  0.00    +0.000 C 
ENDBRANCH  26  27
ENDBRANCH   7  26
TORSDOF 4
ENDMDL
