MODEL 1
REMARK VINA RESULT:      -9.1      0.000      0.000
REMARK  Name = 
REMARK  9 active torsions:
REMARK  status: ('A' for Active; 'I' for Inactive)
REMARK    1  A    between atoms: C_1  and  C_2
REMARK    2  A    between atoms: C_3  and  N_4
REMARK    3  A    between atoms: C_5  and  C_7
REMARK    4  A    between atoms: C_11  and  S_12
REMARK    5  A    between atoms: S_12  and  N_15
REMARK    6  A    between atoms: N_15  and  C_16
REMARK    7  A    between atoms: N_15  and  C_17
REMARK    8  A    between atoms: N_26  and  C_27
REMARK    9  A    between atoms: N_33  and  C_34
REMARK                            x       y       z     vdW  Elec       q    Type
REMARK                         _______ _______ _______ _____ _____    ______ ____
ROOT
ATOM      1  N   UNL     1       1.300   9.201  18.785  0.00  0.00    +0.000 N 
ATOM      2  C   UNL     1       1.858   8.145  19.474  0.00  0.00    +0.000 C 
ATOM      3  O   UNL     1       1.806   8.015  20.694  0.00  0.00    +0.000 OA
ATOM      4  H   UNL     1       1.113   9.093  17.794  0.00  0.00    +0.000 HD
ENDROOT
BRANCH   1   7
ATOM      5  C   UNL     1       2.279  12.326  18.421  0.00  0.00    +0.000 C 
ATOM      6  C   UNL     1       1.152  11.689  19.175  0.00  0.00    +0.000 A 
ATOM      7  C   UNL     1       0.822  10.390  19.292  0.00  0.00    +0.000 A 
ATOM      8  C   UNL     1      -0.372  10.367  20.216  0.00  0.00    +0.000 A 
ATOM      9  O   UNL     1      -0.959   9.339  20.512  0.00  0.00    +0.000 OA
ATOM     10  N   UNL     1      -0.614  11.690  20.579  0.00  0.00    +0.000 N 
ATOM     11  N   UNL     1       0.234  12.534  19.835  0.00  0.00    +0.000 N 
ATOM     12  C   UNL     1       0.653  13.807  20.424  0.00  0.00    +0.000 C 
BRANCH  10  13
ATOM     13  C   UNL     1      -1.725  12.160  21.305  0.00  0.00    +0.000 A 
ATOM     14  C   UNL     1      -2.830  12.676  20.618  0.00  0.00    +0.000 A 
ATOM     15  C   UNL     1      -4.005  12.991  21.309  0.00  0.00    +0.000 A 
ATOM     16  C   UNL     1      -4.065  12.843  22.694  0.00  0.00    +0.000 A 
ATOM     17  C   UNL     1      -2.950  12.385  23.394  0.00  0.00    +0.000 A 
ATOM     18  C   UNL     1      -1.788  12.039  22.700  0.00  0.00    +0.000 A 
ENDBRANCH  10  13
ENDBRANCH   1   7
BRANCH   2  19
ATOM     19  C   UNL     1       2.581   7.092  18.675  0.00  0.00    +0.000 A 
ATOM     20  C   UNL     1       2.159   5.762  18.861  0.00  0.00    +0.000 A 
ATOM     21  C   UNL     1       2.806   4.695  18.227  0.00  0.00    +0.000 A 
ATOM     22  C   UNL     1       3.897   4.942  17.396  0.00  0.00    +0.000 A 
ATOM     23  C   UNL     1       4.328   6.256  17.201  0.00  0.00    +0.000 A 
ATOM     24  C   UNL     1       3.656   7.337  17.811  0.00  0.00    +0.000 A 
BRANCH  23  25
ATOM     25  S   UNL     1       5.699   6.560  16.091  0.00  0.00    +0.000 S 
ATOM     26  O   UNL     1       5.124   7.056  14.860  0.00  0.00    +0.000 OA
ATOM     27  O   UNL     1       6.659   7.357  16.830  0.00  0.00    +0.000 OA
BRANCH  25  28
ATOM     28  N   UNL     1       6.386   5.031  15.792  0.00  0.00    +0.000 N 
ATOM     29  C   UNL     1       7.279   4.438  16.796  0.00  0.00    +0.000 C 
BRANCH  28  30
ATOM     30  C   UNL     1       6.575   4.637  14.429  0.00  0.00    +0.000 A 
ATOM     31  C   UNL     1       7.602   5.177  13.651  0.00  0.00    +0.000 A 
ATOM     32  C   UNL     1       7.740   4.791  12.317  0.00  0.00    +0.000 A 
ATOM     33  C   UNL     1       6.858   3.861  11.764  0.00  0.00    +0.000 A 
ATOM     34  C   UNL     1       5.842   3.312  12.544  0.00  0.00    +0.000 A 
ATOM     35  C   UNL     1       5.698   3.704  13.876  0.00  0.00    +0.000 A 
ENDBRANCH  28  30
ENDBRANCH  25  28
ENDBRANCH  23  25
ENDBRANCH   2  19
TORSDOF 6
ENDMDL
MODEL 2
REMARK VINA RESULT:      -8.8      2.535      3.571
REMARK  Name = 
REMARK  9 active torsions:
REMARK  status: ('A' for Active; 'I' for Inactive)
REMARK    1  A    between atoms: C_1  and  C_2
REMARK    2  A    between atoms: C_3  and  N_4
REMARK    3  A    between atoms: C_5  and  C_7
REMARK    4  A    between atoms: C_11  and  S_12
REMARK    5  A    between atoms: S_12  and  N_15
REMARK    6  A    between atoms: N_15  and  C_16
REMARK    7  A    between atoms: N_15  and  C_17
REMARK    8  A    between atoms: N_26  and  C_27
REMARK    9  A    between atoms: N_33  and  C_34
REMARK                            x       y       z     vdW  Elec       q    Type
REMARK                         _______ _______ _______ _____ _____    ______ ____
ROOT
ATOM      1  N   UNL     1       0.763   8.497  20.749  0.00  0.00    +0.000 N 
ATOM      2  C   UNL     1       1.690   8.051  19.831  0.00  0.00    +0.000 C 
ATOM      3  O   UNL     1       2.196   8.759  18.965  0.00  0.00    +0.000 OA
ATOM      4  H   UNL     1       0.624   7.965  21.601  0.00  0.00    +0.000 HD
ENDROOT
BRANCH   1   7
ATOM      5  C   UNL     1      -0.706  10.183  18.330  0.00  0.00    +0.000 C 
ATOM      6  C   UNL     1      -0.581  10.412  19.805  0.00  0.00    +0.000 A 
ATOM      7  C   UNL     1       0.056   9.680  20.737  0.00  0.00    +0.000 A 
ATOM      8  C   UNL     1      -0.129  10.439  22.029  0.00  0.00    +0.000 A 
ATOM      9  O   UNL     1       0.294  10.034  23.099  0.00  0.00    +0.000 OA
ATOM     10  N   UNL     1      -0.855  11.584  21.713  0.00  0.00    +0.000 N 
ATOM     11  N   UNL     1      -1.261  11.514  20.366  0.00  0.00    +0.000 N 
ATOM     12  C   UNL     1      -1.443  12.761  19.620  0.00  0.00    +0.000 C 
BRANCH  10  13
ATOM     13  C   UNL     1      -1.391  12.506  22.632  0.00  0.00    +0.000 A 
ATOM     14  C   UNL     1      -0.682  13.675  22.930  0.00  0.00    +0.000 A 
ATOM     15  C   UNL     1      -1.271  14.678  23.708  0.00  0.00    +0.000 A 
ATOM     16  C   UNL     1      -2.550  14.497  24.235  0.00  0.00    +0.000 A 
ATOM     17  C   UNL     1      -3.240  13.310  23.992  0.00  0.00    +0.000 A 
ATOM     18  C   UNL     1      -2.665  12.324  23.188  0.00  0.00    +0.000 A 
ENDBRANCH  10  13
ENDBRANCH   1   7
BRANCH   2  19
ATOM     19  C   UNL     1       2.097   6.601  19.896  0.00  0.00    +0.000 A 
ATOM     20  C   UNL     1       1.489   5.822  20.899  0.00  0.00    +0.000 A 
ATOM     21  C   UNL     1       1.846   4.484  21.100  0.00  0.00    +0.000 A 
ATOM     22  C   UNL     1       2.826   3.900  20.301  0.00  0.00    +0.000 A 
ATOM     23  C   UNL     1       3.439   4.660  19.301  0.00  0.00    +0.000 A 
ATOM     24  C   UNL     1       3.057   5.999  19.072  0.00  0.00    +0.000 A 
BRANCH  23  25
ATOM     25  S   UNL     1       4.660   3.880  18.250  0.00  0.00    +0.000 S 
ATOM     26  O   UNL     1       5.750   3.486  19.116  0.00  0.00    +0.000 OA
ATOM     27  O   UNL     1       3.952   2.891  17.459  0.00  0.00    +0.000 OA
BRANCH  25  28
ATOM     28  N   UNL     1       5.212   5.109  17.210  0.00  0.00    +0.000 N 
ATOM     29  C   UNL     1       5.057   4.942  15.758  0.00  0.00    +0.000 C 
BRANCH  28  30
ATOM     30  C   UNL     1       6.283   5.941  17.665  0.00  0.00    +0.000 A 
ATOM     31  C   UNL     1       7.135   5.533  18.694  0.00  0.00    +0.000 A 
ATOM     32  C   UNL     1       8.153   6.381  19.133  0.00  0.00    +0.000 A 
ATOM     33  C   UNL     1       8.323   7.633  18.539  0.00  0.00    +0.000 A 
ATOM     34  C   UNL     1       7.482   8.035  17.503  0.00  0.00    +0.000 A 
ATOM     35  C   UNL     1       6.459   7.190  17.069  0.00  0.00    +0.000 A 
ENDBRANCH  28  30
ENDBRANCH  25  28
ENDBRANCH  23  25
ENDBRANCH   2  19
TORSDOF 6
ENDMDL
MODEL 3
REMARK VINA RESULT:      -8.8      1.268      2.736
REMARK  Name = 
REMARK  9 active torsions:
REMARK  status: ('A' for Active; 'I' for Inactive)
REMARK    1  A    between atoms: C_1  and  C_2
REMARK    2  A    between atoms: C_3  and  N_4
REMARK    3  A    between atoms: C_5  and  C_7
REMARK    4  A    between atoms: C_11  and  S_12
REMARK    5  A    between atoms: S_12  and  N_15
REMARK    6  A    between atoms: N_15  and  C_16
REMARK    7  A    between atoms: N_15  and  C_17
REMARK    8  A    between atoms: N_26  and  C_27
REMARK    9  A    between atoms: N_33  and  C_34
REMARK                            x       y       z     vdW  Elec       q    Type
REMARK                         _______ _______ _______ _____ _____    ______ ____
ROOT
ATOM      1  N   UNL     1       1.313   8.794  19.361  0.00  0.00    +0.000 N 
ATOM      2  C   UNL     1       1.914   7.673  19.893  0.00  0.00    +0.000 C 
ATOM      3  O   UNL     1       1.928   7.402  21.090  0.00  0.00    +0.000 OA
ATOM      4  H   UNL     1       1.073   8.799  18.375  0.00  0.00    +0.000 HD
ENDROOT
BRANCH   1   7
ATOM      5  C   UNL     1      -0.418   9.168  22.139  0.00  0.00    +0.000 C 
ATOM      6  C   UNL     1       0.167  10.140  21.161  0.00  0.00    +0.000 A 
ATOM      7  C   UNL     1       0.854   9.910  20.028  0.00  0.00    +0.000 A 
ATOM      8  C   UNL     1       1.134  11.277  19.451  0.00  0.00    +0.000 A 
ATOM      9  O   UNL     1       1.780  11.443  18.430  0.00  0.00    +0.000 OA
ATOM     10  N   UNL     1       0.545  12.197  20.315  0.00  0.00    +0.000 N 
ATOM     11  N   UNL     1       0.061  11.517  21.450  0.00  0.00    +0.000 N 
ATOM     12  C   UNL     1      -1.099  12.064  22.156  0.00  0.00    +0.000 C 
BRANCH  10  13
ATOM     13  C   UNL     1       0.685  13.597  20.256  0.00  0.00    +0.000 A 
ATOM     14  C   UNL     1       1.716  14.217  20.968  0.00  0.00    +0.000 A 
ATOM     15  C   UNL     1       1.974  15.581  20.791  0.00  0.00    +0.000 A 
ATOM     16  C   UNL     1       1.171  16.342  19.942  0.00  0.00    +0.000 A 
ATOM     17  C   UNL     1       0.104  15.744  19.273  0.00  0.00    +0.000 A 
ATOM     18  C   UNL     1      -0.132  14.376  19.425  0.00  0.00    +0.000 A 
ENDBRANCH  10  13
ENDBRANCH   1   7
BRANCH   2  19
ATOM     19  C   UNL     1       2.600   6.729  18.939  0.00  0.00    +0.000 A 
ATOM     20  C   UNL     1       2.159   5.392  18.951  0.00  0.00    +0.000 A 
ATOM     21  C   UNL     1       2.773   4.414  18.162  0.00  0.00    +0.000 A 
ATOM     22  C   UNL     1       3.850   4.755  17.347  0.00  0.00    +0.000 A 
ATOM     23  C   UNL     1       4.300   6.078  17.323  0.00  0.00    +0.000 A 
ATOM     24  C   UNL     1       3.661   7.075  18.091  0.00  0.00    +0.000 A 
BRANCH  23  25
ATOM     25  S   UNL     1       5.652   6.511  16.232  0.00  0.00    +0.000 S 
ATOM     26  O   UNL     1       5.049   7.004  15.014  0.00  0.00    +0.000 OA
ATOM     27  O   UNL     1       6.550   7.350  17.003  0.00  0.00    +0.000 OA
BRANCH  25  28
ATOM     28  N   UNL     1       6.444   5.044  15.891  0.00  0.00    +0.000 N 
ATOM     29  C   UNL     1       7.391   4.496  16.872  0.00  0.00    +0.000 C 
BRANCH  28  30
ATOM     30  C   UNL     1       6.645   4.695  14.518  0.00  0.00    +0.000 A 
ATOM     31  C   UNL     1       7.639   5.306  13.749  0.00  0.00    +0.000 A 
ATOM     32  C   UNL     1       7.788   4.963  12.405  0.00  0.00    +0.000 A 
ATOM     33  C   UNL     1       6.951   4.004  11.832  0.00  0.00    +0.000 A 
ATOM     34  C   UNL     1       5.969   3.384  12.602  0.00  0.00    +0.000 A 
ATOM     35  C   UNL     1       5.813   3.733  13.944  0.00  0.00    +0.000 A 
ENDBRANCH  28  30
ENDBRANCH  25  28
ENDBRANCH  23  25
ENDBRANCH   2  19
TORSDOF 6
ENDMDL
MODEL 4
REMARK VINA RESULT:      -8.7      2.909     11.572
REMARK  Name = 
REMARK  9 active torsions:
REMARK  status: ('A' for Active; 'I' for Inactive)
REMARK    1  A    between atoms: C_1  and  C_2
REMARK    2  A    between atoms: C_3  and  N_4
REMARK    3  A    between atoms: C_5  and  C_7
REMARK    4  A    between atoms: C_11  and  S_12
REMARK    5  A    between atoms: S_12  and  N_15
REMARK    6  A    between atoms: N_15  and  C_16
REMARK    7  A    between atoms: N_15  and  C_17
REMARK    8  A    between atoms: N_26  and  C_27
REMARK    9  A    between atoms: N_33  and  C_34
REMARK                            x       y       z     vdW  Elec       q    Type
REMARK                         _______ _______ _______ _____ _____    ______ ____
ROOT
ATOM      1  N   UNL     1       1.726   7.995  19.346  0.00  0.00    +0.000 N 
ATOM      2  C   UNL     1       1.292   8.553  20.531  0.00  0.00    +0.000 C 
ATOM      3  O   UNL     1       1.652   8.174  21.642  0.00  0.00    +0.000 OA
ATOM      4  H   UNL     1       1.639   8.535  18.491  0.00  0.00    +0.000 HD
ENDROOT
BRANCH   1   7
ATOM      5  C   UNL     1       1.315   4.981  20.611  0.00  0.00    +0.000 C 
ATOM      6  C   UNL     1       2.286   5.551  19.622  0.00  0.00    +0.000 A 
ATOM      7  C   UNL     1       2.404   6.810  19.162  0.00  0.00    +0.000 A 
ATOM      8  C   UNL     1       3.591   6.780  18.230  0.00  0.00    +0.000 A 
ATOM      9  O   UNL     1       3.962   7.757  17.601  0.00  0.00    +0.000 OA
ATOM     10  N   UNL     1       4.079   5.476  18.256  0.00  0.00    +0.000 N 
ATOM     11  N   UNL     1       3.200   4.670  19.006  0.00  0.00    +0.000 N 
ATOM     12  C   UNL     1       3.742   3.510  19.716  0.00  0.00    +0.000 C 
BRANCH  10  13
ATOM     13  C   UNL     1       5.084   4.949  17.421  0.00  0.00    +0.000 A 
ATOM     14  C   UNL     1       4.736   4.419  16.174  0.00  0.00    +0.000 A 
ATOM     15  C   UNL     1       5.732   4.046  15.264  0.00  0.00    +0.000 A 
ATOM     16  C   UNL     1       7.077   4.153  15.615  0.00  0.00    +0.000 A 
ATOM     17  C   UNL     1       7.432   4.625  16.877  0.00  0.00    +0.000 A 
ATOM     18  C   UNL     1       6.438   5.029  17.772  0.00  0.00    +0.000 A 
ENDBRANCH  10  13
ENDBRANCH   1   7
BRANCH   2  19
ATOM     19  C   UNL     1       0.312   9.694  20.449  0.00  0.00    +0.000 A 
ATOM     20  C   UNL     1      -0.089  10.088  19.157  0.00  0.00    +0.000 A 
ATOM     21  C   UNL     1      -0.937  11.183  18.959  0.00  0.00    +0.000 A 
ATOM     22  C   UNL     1      -1.398  11.910  20.054  0.00  0.00    +0.000 A 
ATOM     23  C   UNL     1      -1.011  11.532  21.342  0.00  0.00    +0.000 A 
ATOM     24  C   UNL     1      -0.183  10.408  21.548  0.00  0.00    +0.000 A 
BRANCH  23  25
ATOM     25  S   UNL     1      -1.652  12.447  22.740  0.00  0.00    +0.000 S 
ATOM     26  O   UNL     1      -2.399  11.499  23.538  0.00  0.00    +0.000 OA
ATOM     27  O   UNL     1      -0.530  13.168  23.311  0.00  0.00    +0.000 OA
BRANCH  25  28
ATOM     28  N   UNL     1      -2.740  13.577  22.080  0.00  0.00    +0.000 N 
ATOM     29  C   UNL     1      -2.322  14.979  21.944  0.00  0.00    +0.000 C 
BRANCH  28  30
ATOM     30  C   UNL     1      -4.141  13.320  22.222  0.00  0.00    +0.000 A 
ATOM     31  C   UNL     1      -4.857  12.633  21.238  0.00  0.00    +0.000 A 
ATOM     32  C   UNL     1      -6.228  12.424  21.396  0.00  0.00    +0.000 A 
ATOM     33  C   UNL     1      -6.880  12.892  22.537  0.00  0.00    +0.000 A 
ATOM     34  C   UNL     1      -6.162  13.564  23.525  0.00  0.00    +0.000 A 
ATOM     35  C   UNL     1      -4.793  13.782  23.365  0.00  0.00    +0.000 A 
ENDBRANCH  28  30
ENDBRANCH  25  28
ENDBRANCH  23  25
ENDBRANCH   2  19
TORSDOF 6
ENDMDL
MODEL 5
REMARK VINA RESULT:      -8.4      3.062     11.670
REMARK  Name = 
REMARK  9 active torsions:
REMARK  status: ('A' for Active; 'I' for Inactive)
REMARK    1  A    between atoms: C_1  and  C_2
REMARK    2  A    between atoms: C_3  and  N_4
REMARK    3  A    between atoms: C_5  and  C_7
REMARK    4  A    between atoms: C_11  and  S_12
REMARK    5  A    between atoms: S_12  and  N_15
REMARK    6  A    between atoms: N_15  and  C_16
REMARK    7  A    between atoms: N_15  and  C_17
REMARK    8  A    between atoms: N_26  and  C_27
REMARK    9  A    between atoms: N_33  and  C_34
REMARK                            x       y       z     vdW  Elec       q    Type
REMARK                         _______ _______ _______ _____ _____    ______ ____
ROOT
ATOM      1  N   UNL     1       1.453   8.450  19.331  0.00  0.00    +0.000 N 
ATOM      2  C   UNL     1       1.079   9.043  20.519  0.00  0.00    +0.000 C 
ATOM      3  O   UNL     1       1.584   8.781  21.607  0.00  0.00    +0.000 OA
ATOM      4  H   UNL     1       1.227   8.917  18.460  0.00  0.00    +0.000 HD
ENDROOT
BRANCH   1   7
ATOM      5  C   UNL     1       1.484   5.501  20.799  0.00  0.00    +0.000 C 
ATOM      6  C   UNL     1       2.294   6.099  19.689  0.00  0.00    +0.000 A 
ATOM      7  C   UNL     1       2.235   7.330  19.150  0.00  0.00    +0.000 A 
ATOM      8  C   UNL     1       3.328   7.357  18.108  0.00  0.00    +0.000 A 
ATOM      9  O   UNL     1       3.533   8.323  17.392  0.00  0.00    +0.000 OA
ATOM     10  N   UNL     1       3.953   6.114  18.160  0.00  0.00    +0.000 N 
ATOM     11  N   UNL     1       3.237   5.276  19.038  0.00  0.00    +0.000 N 
ATOM     12  C   UNL     1       3.962   4.225  19.756  0.00  0.00    +0.000 C 
BRANCH  10  13
ATOM     13  C   UNL     1       4.927   5.637  17.262  0.00  0.00    +0.000 A 
ATOM     14  C   UNL     1       6.241   6.107  17.356  0.00  0.00    +0.000 A 
ATOM     15  C   UNL     1       7.255   5.524  16.588  0.00  0.00    +0.000 A 
ATOM     16  C   UNL     1       6.952   4.506  15.684  0.00  0.00    +0.000 A 
ATOM     17  C   UNL     1       5.635   4.072  15.541  0.00  0.00    +0.000 A 
ATOM     18  C   UNL     1       4.629   4.631  16.333  0.00  0.00    +0.000 A 
ENDBRANCH  10  13
ENDBRANCH   1   7
BRANCH   2  19
ATOM     19  C   UNL     1      -0.022  10.071  20.471  0.00  0.00    +0.000 A 
ATOM     20  C   UNL     1      -0.482  10.440  19.193  0.00  0.00    +0.000 A 
ATOM     21  C   UNL     1      -1.448  11.438  19.026  0.00  0.00    +0.000 A 
ATOM     22  C   UNL     1      -1.971  12.092  20.140  0.00  0.00    +0.000 A 
ATOM     23  C   UNL     1      -1.525  11.736  21.415  0.00  0.00    +0.000 A 
ATOM     24  C   UNL     1      -0.576  10.706  21.590  0.00  0.00    +0.000 A 
BRANCH  23  25
ATOM     25  S   UNL     1      -2.243  12.550  22.839  0.00  0.00    +0.000 S 
ATOM     26  O   UNL     1      -2.885  11.515  23.619  0.00  0.00    +0.000 OA
ATOM     27  O   UNL     1      -1.193  13.366  23.419  0.00  0.00    +0.000 OA
BRANCH  25  28
ATOM     28  N   UNL     1      -3.444  13.581  22.212  0.00  0.00    +0.000 N 
ATOM     29  C   UNL     1      -3.159  15.016  22.083  0.00  0.00    +0.000 C 
BRANCH  28  30
ATOM     30  C   UNL     1      -4.811  13.194  22.378  0.00  0.00    +0.000 A 
ATOM     31  C   UNL     1      -5.488  13.408  23.581  0.00  0.00    +0.000 A 
ATOM     32  C   UNL     1      -6.813  12.992  23.717  0.00  0.00    +0.000 A 
ATOM     33  C   UNL     1      -7.463  12.371  22.650  0.00  0.00    +0.000 A 
ATOM     34  C   UNL     1      -6.793  12.170  21.445  0.00  0.00    +0.000 A 
ATOM     35  C   UNL     1      -5.465  12.578  21.310  0.00  0.00    +0.000 A 
ENDBRANCH  28  30
ENDBRANCH  25  28
ENDBRANCH  23  25
ENDBRANCH   2  19
TORSDOF 6
ENDMDL
MODEL 6
REMARK VINA RESULT:      -8.4      2.054      3.045
REMARK  Name = 
REMARK  9 active torsions:
REMARK  status: ('A' for Active; 'I' for Inactive)
REMARK    1  A    between atoms: C_1  and  C_2
REMARK    2  A    between atoms: C_3  and  N_4
REMARK    3  A    between atoms: C_5  and  C_7
REMARK    4  A    between atoms: C_11  and  S_12
REMARK    5  A    between atoms: S_12  and  N_15
REMARK    6  A    between atoms: N_15  and  C_16
REMARK    7  A    between atoms: N_15  and  C_17
REMARK    8  A    between atoms: N_26  and  C_27
REMARK    9  A    between atoms: N_33  and  C_34
REMARK                            x       y       z     vdW  Elec       q    Type
REMARK                         _______ _______ _______ _____ _____    ______ ____
ROOT
ATOM      1  N   UNL     1       1.513   9.365  19.720  0.00  0.00    +0.000 N 
ATOM      2  C   UNL     1       1.822   8.548  18.652  0.00  0.00    +0.000 C 
ATOM      3  O   UNL     1       1.795   8.911  17.479  0.00  0.00    +0.000 OA
ATOM      4  H   UNL     1       1.846   9.107  20.644  0.00  0.00    +0.000 HD
ENDROOT
BRANCH   1   7
ATOM      5  C   UNL     1       2.252  12.187  18.190  0.00  0.00    +0.000 C 
ATOM      6  C   UNL     1       1.127  11.776  19.090  0.00  0.00    +0.000 A 
ATOM      7  C   UNL     1       0.899  10.598  19.698  0.00  0.00    +0.000 A 
ATOM      8  C   UNL     1      -0.357  10.808  20.509  0.00  0.00    +0.000 A 
ATOM      9  O   UNL     1      -0.877   9.920  21.164  0.00  0.00    +0.000 OA
ATOM     10  N   UNL     1      -0.737  12.133  20.310  0.00  0.00    +0.000 N 
ATOM     11  N   UNL     1       0.093  12.707  19.327  0.00  0.00    +0.000 N 
ATOM     12  C   UNL     1       0.356  14.147  19.381  0.00  0.00    +0.000 C 
BRANCH  10  13
ATOM     13  C   UNL     1      -1.936  12.727  20.748  0.00  0.00    +0.000 A 
ATOM     14  C   UNL     1      -3.064  12.695  19.921  0.00  0.00    +0.000 A 
ATOM     15  C   UNL     1      -4.304  13.127  20.402  0.00  0.00    +0.000 A 
ATOM     16  C   UNL     1      -4.414  13.642  21.694  0.00  0.00    +0.000 A 
ATOM     17  C   UNL     1      -3.284  13.733  22.505  0.00  0.00    +0.000 A 
ATOM     18  C   UNL     1      -2.053  13.269  22.035  0.00  0.00    +0.000 A 
ENDBRANCH  10  13
ENDBRANCH   1   7
BRANCH   2  19
ATOM     19  C   UNL     1       2.211   7.124  18.951  0.00  0.00    +0.000 A 
ATOM     20  C   UNL     1       2.105   6.710  20.292  0.00  0.00    +0.000 A 
ATOM     21  C   UNL     1       2.508   5.433  20.696  0.00  0.00    +0.000 A 
ATOM     22  C   UNL     1       3.033   4.543  19.762  0.00  0.00    +0.000 A 
ATOM     23  C   UNL     1       3.144   4.938  18.426  0.00  0.00    +0.000 A 
ATOM     24  C   UNL     1       2.707   6.213  18.008  0.00  0.00    +0.000 A 
BRANCH  23  25
ATOM     25  S   UNL     1       3.774   3.765  17.229  0.00  0.00    +0.000 S 
ATOM     26  O   UNL     1       4.444   2.731  17.986  0.00  0.00    +0.000 OA
ATOM     27  O   UNL     1       2.666   3.437  16.352  0.00  0.00    +0.000 OA
BRANCH  25  28
ATOM     28  N   UNL     1       4.938   4.620  16.328  0.00  0.00    +0.000 N 
ATOM     29  C   UNL     1       5.274   4.162  14.973  0.00  0.00    +0.000 C 
BRANCH  28  30
ATOM     30  C   UNL     1       5.944   5.340  17.047  0.00  0.00    +0.000 A 
ATOM     31  C   UNL     1       6.745   4.711  18.004  0.00  0.00    +0.000 A 
ATOM     32  C   UNL     1       7.698   5.450  18.708  0.00  0.00    +0.000 A 
ATOM     33  C   UNL     1       7.856   6.812  18.449  0.00  0.00    +0.000 A 
ATOM     34  C   UNL     1       7.067   7.436  17.484  0.00  0.00    +0.000 A 
ATOM     35  C   UNL     1       6.108   6.700  16.786  0.00  0.00    +0.000 A 
ENDBRANCH  28  30
ENDBRANCH  25  28
ENDBRANCH  23  25
ENDBRANCH   2  19
TORSDOF 6
ENDMDL
MODEL 7
REMARK VINA RESULT:      -8.4      2.296      3.380
REMARK  Name = 
REMARK  9 active torsions:
REMARK  status: ('A' for Active; 'I' for Inactive)
REMARK    1  A    between atoms: C_1  and  C_2
REMARK    2  A    between atoms: C_3  and  N_4
REMARK    3  A    between atoms: C_5  and  C_7
REMARK    4  A    between atoms: C_11  and  S_12
REMARK    5  A    between atoms: S_12  and  N_15
REMARK    6  A    between atoms: N_15  and  C_16
REMARK    7  A    between atoms: N_15  and  C_17
REMARK    8  A    between atoms: N_26  and  C_27
REMARK    9  A    between atoms: N_33  and  C_34
REMARK                            x       y       z     vdW  Elec       q    Type
REMARK                         _______ _______ _______ _____ _____    ______ ____
ROOT
ATOM      1  N   UNL     1       0.981   8.678  20.131  0.00  0.00    +0.000 N 
ATOM      2  C   UNL     1       1.854   8.176  19.189  0.00  0.00    +0.000 C 
ATOM      3  O   UNL     1       2.325   8.836  18.267  0.00  0.00    +0.000 OA
ATOM      4  H   UNL     1       0.879   8.186  21.013  0.00  0.00    +0.000 HD
ENDROOT
BRANCH   1   7
ATOM      5  C   UNL     1      -0.902  10.096  17.831  0.00  0.00    +0.000 C 
ATOM      6  C   UNL     1      -0.505  10.500  19.218  0.00  0.00    +0.000 A 
ATOM      7  C   UNL     1       0.290   9.870  20.101  0.00  0.00    +0.000 A 
ATOM      8  C   UNL     1       0.352  10.785  21.300  0.00  0.00    +0.000 A 
ATOM      9  O   UNL     1       0.964  10.502  22.317  0.00  0.00    +0.000 OA
ATOM     10  N   UNL     1      -0.415  11.903  20.982  0.00  0.00    +0.000 N 
ATOM     11  N   UNL     1      -1.063  11.681  19.751  0.00  0.00    +0.000 N 
ATOM     12  C   UNL     1      -1.374  12.832  18.901  0.00  0.00    +0.000 C 
BRANCH  10  13
ATOM     13  C   UNL     1      -0.766  12.946  21.861  0.00  0.00    +0.000 A 
ATOM     14  C   UNL     1      -1.878  12.797  22.696  0.00  0.00    +0.000 A 
ATOM     15  C   UNL     1      -2.145  13.745  23.691  0.00  0.00    +0.000 A 
ATOM     16  C   UNL     1      -1.333  14.871  23.821  0.00  0.00    +0.000 A 
ATOM     17  C   UNL     1      -0.257  15.058  22.954  0.00  0.00    +0.000 A 
ATOM     18  C   UNL     1       0.028  14.094  21.984  0.00  0.00    +0.000 A 
ENDBRANCH  10  13
ENDBRANCH   1   7
BRANCH   2  19
ATOM     19  C   UNL     1       2.245   6.725  19.300  0.00  0.00    +0.000 A 
ATOM     20  C   UNL     1       2.160   6.147  20.582  0.00  0.00    +0.000 A 
ATOM     21  C   UNL     1       2.568   4.830  20.816  0.00  0.00    +0.000 A 
ATOM     22  C   UNL     1       3.076   4.064  19.769  0.00  0.00    +0.000 A 
ATOM     23  C   UNL     1       3.166   4.622  18.491  0.00  0.00    +0.000 A 
ATOM     24  C   UNL     1       2.723   5.939  18.243  0.00  0.00    +0.000 A 
BRANCH  23  25
ATOM     25  S   UNL     1       3.773   3.609  17.146  0.00  0.00    +0.000 S 
ATOM     26  O   UNL     1       4.533   2.539  17.754  0.00  0.00    +0.000 OA
ATOM     27  O   UNL     1       2.629   3.314  16.304  0.00  0.00    +0.000 OA
BRANCH  25  28
ATOM     28  N   UNL     1       4.842   4.606  16.275  0.00  0.00    +0.000 N 
ATOM     29  C   UNL     1       5.146   4.281  14.875  0.00  0.00    +0.000 C 
BRANCH  28  30
ATOM     30  C   UNL     1       5.831   5.331  17.012  0.00  0.00    +0.000 A 
ATOM     31  C   UNL     1       5.975   6.714  16.872  0.00  0.00    +0.000 A 
ATOM     32  C   UNL     1       6.970   7.385  17.585  0.00  0.00    +0.000 A 
ATOM     33  C   UNL     1       7.814   6.677  18.442  0.00  0.00    +0.000 A 
ATOM     34  C   UNL     1       7.660   5.300  18.593  0.00  0.00    +0.000 A 
ATOM     35  C   UNL     1       6.672   4.626  17.874  0.00  0.00    +0.000 A 
ENDBRANCH  28  30
ENDBRANCH  25  28
ENDBRANCH  23  25
ENDBRANCH   2  19
TORSDOF 6
ENDMDL
MODEL 8
REMARK VINA RESULT:      -8.3      2.401      3.124
REMARK  Name = 
REMARK  9 active torsions:
REMARK  status: ('A' for Active; 'I' for Inactive)
REMARK    1  A    between atoms: C_1  and  C_2
REMARK    2  A    between atoms: C_3  and  N_4
REMARK    3  A    between atoms: C_5  and  C_7
REMARK    4  A    between atoms: C_11  and  S_12
REMARK    5  A    between atoms: S_12  and  N_15
REMARK    6  A    between atoms: N_15  and  C_16
REMARK    7  A    between atoms: N_15  and  C_17
REMARK    8  A    between atoms: N_26  and  C_27
REMARK    9  A    between atoms: N_33  and  C_34
REMARK                            x       y       z     vdW  Elec       q    Type
REMARK                         _______ _______ _______ _____ _____    ______ ____
ROOT
ATOM      1  N   UNL     1       1.025   8.386  20.402  0.00  0.00    +0.000 N 
ATOM      2  C   UNL     1       1.924   7.729  19.589  0.00  0.00    +0.000 C 
ATOM      3  O   UNL     1       2.552   8.268  18.681  0.00  0.00    +0.000 OA
ATOM      4  H   UNL     1       0.785   7.975  21.298  0.00  0.00    +0.000 HD
ENDROOT
BRANCH   1   7
ATOM      5  C   UNL     1      -0.444   9.823  17.827  0.00  0.00    +0.000 C 
ATOM      6  C   UNL     1      -0.151  10.281  19.224  0.00  0.00    +0.000 A 
ATOM      7  C   UNL     1       0.475   9.637  20.225  0.00  0.00    +0.000 A 
ATOM      8  C   UNL     1       0.511  10.624  21.367  0.00  0.00    +0.000 A 
ATOM      9  O   UNL     1       0.981  10.353  22.460  0.00  0.00    +0.000 OA
ATOM     10  N   UNL     1      -0.092  11.789  20.900  0.00  0.00    +0.000 N 
ATOM     11  N   UNL     1      -0.630  11.548  19.621  0.00  0.00    +0.000 N 
ATOM     12  C   UNL     1      -0.724  12.662  18.675  0.00  0.00    +0.000 C 
BRANCH  10  13
ATOM     13  C   UNL     1      -0.417  12.922  21.671  0.00  0.00    +0.000 A 
ATOM     14  C   UNL     1      -1.551  12.896  22.490  0.00  0.00    +0.000 A 
ATOM     15  C   UNL     1      -1.797  13.941  23.387  0.00  0.00    +0.000 A 
ATOM     16  C   UNL     1      -0.941  15.041  23.433  0.00  0.00    +0.000 A 
ATOM     17  C   UNL     1       0.158  15.103  22.579  0.00  0.00    +0.000 A 
ATOM     18  C   UNL     1       0.422  14.043  21.708  0.00  0.00    +0.000 A 
ENDBRANCH  10  13
ENDBRANCH   1   7
BRANCH   2  19
ATOM     19  C   UNL     1       2.142   6.258  19.832  0.00  0.00    +0.000 A 
ATOM     20  C   UNL     1       1.275   5.638  20.752  0.00  0.00    +0.000 A 
ATOM     21  C   UNL     1       1.431   4.294  21.109  0.00  0.00    +0.000 A 
ATOM     22  C   UNL     1       2.466   3.545  20.555  0.00  0.00    +0.000 A 
ATOM     23  C   UNL     1       3.335   4.145  19.640  0.00  0.00    +0.000 A 
ATOM     24  C   UNL     1       3.159   5.490  19.250  0.00  0.00    +0.000 A 
BRANCH  23  25
ATOM     25  S   UNL     1       4.628   3.154  18.898  0.00  0.00    +0.000 S 
ATOM     26  O   UNL     1       5.212   2.379  19.970  0.00  0.00    +0.000 OA
ATOM     27  O   UNL     1       4.035   2.495  17.750  0.00  0.00    +0.000 OA
BRANCH  25  28
ATOM     28  N   UNL     1       5.787   4.269  18.341  0.00  0.00    +0.000 N 
ATOM     29  C   UNL     1       6.325   5.270  19.272  0.00  0.00    +0.000 C 
BRANCH  28  30
ATOM     30  C   UNL     1       5.780   4.602  16.949  0.00  0.00    +0.000 A 
ATOM     31  C   UNL     1       6.301   3.730  15.989  0.00  0.00    +0.000 A 
ATOM     32  C   UNL     1       6.304   4.099  14.643  0.00  0.00    +0.000 A 
ATOM     33  C   UNL     1       5.780   5.333  14.256  0.00  0.00    +0.000 A 
ATOM     34  C   UNL     1       5.247   6.197  15.212  0.00  0.00    +0.000 A 
ATOM     35  C   UNL     1       5.252   5.833  16.559  0.00  0.00    +0.000 A 
ENDBRANCH  28  30
ENDBRANCH  25  28
ENDBRANCH  23  25
ENDBRANCH   2  19
TORSDOF 6
ENDMDL
MODEL 9
REMARK VINA RESULT:      -8.3      2.508      3.734
REMARK  Name = 
REMARK  9 active torsions:
REMARK  status: ('A' for Active; 'I' for Inactive)
REMARK    1  A    between atoms: C_1  and  C_2
REMARK    2  A    between atoms: C_3  and  N_4
REMARK    3  A    between atoms: C_5  and  C_7
REMARK    4  A    between atoms: C_11  and  S_12
REMARK    5  A    between atoms: S_12  and  N_15
REMARK    6  A    between atoms: N_15  and  C_16
REMARK    7  A    between atoms: N_15  and  C_17
REMARK    8  A    between atoms: N_26  and  C_27
REMARK    9  A    between atoms: N_33  and  C_34
REMARK                            x       y       z     vdW  Elec       q    Type
REMARK                         _______ _______ _______ _____ _____    ______ ____
ROOT
ATOM      1  N   UNL     1       1.084   8.877  19.969  0.00  0.00    +0.000 N 
ATOM      2  C   UNL     1       1.944   8.193  19.135  0.00  0.00    +0.000 C 
ATOM      3  O   UNL     1       2.482   8.686  18.148  0.00  0.00    +0.000 OA
ATOM      4  H   UNL     1       0.927   8.522  20.906  0.00  0.00    +0.000 HD
ENDROOT
BRANCH   1   7
ATOM      5  C   UNL     1      -0.956   9.951  17.615  0.00  0.00    +0.000 C 
ATOM      6  C   UNL     1      -0.372  10.597  18.835  0.00  0.00    +0.000 A 
ATOM      7  C   UNL     1       0.477  10.095  19.750  0.00  0.00    +0.000 A 
ATOM      8  C   UNL     1       0.740  11.230  20.709  0.00  0.00    +0.000 A 
ATOM      9  O   UNL     1       1.447  11.111  21.697  0.00  0.00    +0.000 OA
ATOM     10  N   UNL     1       0.019  12.323  20.234  0.00  0.00    +0.000 N 
ATOM     11  N   UNL     1      -0.783  11.909  19.152  0.00  0.00    +0.000 N 
ATOM     12  C   UNL     1      -1.114  12.881  18.109  0.00  0.00    +0.000 C 
BRANCH  10  13
ATOM     13  C   UNL     1      -0.156  13.553  20.897  0.00  0.00    +0.000 A 
ATOM     14  C   UNL     1       0.781  14.574  20.714  0.00  0.00    +0.000 A 
ATOM     15  C   UNL     1       0.539  15.854  21.226  0.00  0.00    +0.000 A 
ATOM     16  C   UNL     1      -0.615  16.105  21.968  0.00  0.00    +0.000 A 
ATOM     17  C   UNL     1      -1.526  15.077  22.206  0.00  0.00    +0.000 A 
ATOM     18  C   UNL     1      -1.300  13.809  21.665  0.00  0.00    +0.000 A 
ENDBRANCH  10  13
ENDBRANCH   1   7
BRANCH   2  19
ATOM     19  C   UNL     1       2.233   6.751  19.460  0.00  0.00    +0.000 A 
ATOM     20  C   UNL     1       1.600   6.224  20.602  0.00  0.00    +0.000 A 
ATOM     21  C   UNL     1       1.854   4.920  21.040  0.00  0.00    +0.000 A 
ATOM     22  C   UNL     1       2.753   4.116  20.343  0.00  0.00    +0.000 A 
ATOM     23  C   UNL     1       3.388   4.623  19.207  0.00  0.00    +0.000 A 
ATOM     24  C   UNL     1       3.110   5.926  18.742  0.00  0.00    +0.000 A 
BRANCH  23  25
ATOM     25  S   UNL     1       4.502   3.560  18.294  0.00  0.00    +0.000 S 
ATOM     26  O   UNL     1       5.508   3.121  19.235  0.00  0.00    +0.000 OA
ATOM     27  O   UNL     1       3.672   2.596  17.597  0.00  0.00    +0.000 OA
BRANCH  25  28
ATOM     28  N   UNL     1       5.243   4.568  17.139  0.00  0.00    +0.000 N 
ATOM     29  C   UNL     1       5.326   4.117  15.743  0.00  0.00    +0.000 C 
BRANCH  28  30
ATOM     30  C   UNL     1       6.241   5.487  17.594  0.00  0.00    +0.000 A 
ATOM     31  C   UNL     1       7.109   5.160  18.638  0.00  0.00    +0.000 A 
ATOM     32  C   UNL     1       8.052   6.091  19.076  0.00  0.00    +0.000 A 
ATOM     33  C   UNL     1       8.133   7.343  18.465  0.00  0.00    +0.000 A 
ATOM     34  C   UNL     1       7.277   7.664  17.413  0.00  0.00    +0.000 A 
ATOM     35  C   UNL     1       6.327   6.737  16.980  0.00  0.00    +0.000 A 
ENDBRANCH  28  30
ENDBRANCH  25  28
ENDBRANCH  23  25
ENDBRANCH   2  19
TORSDOF 6
ENDMDL
