MODEL 1
REMARK VINA RESULT:      -7.5      0.000      0.000
REMARK  Name = 
REMARK  3 active torsions:
REMARK  status: ('A' for Active; 'I' for Inactive)
REMARK    1  A    between atoms: C_1  and  N_2
REMARK    2  A    between atoms: C_3  and  C_4
REMARK    3  A    between atoms: N_9  and  C_10
REMARK                            x       y       z     vdW  Elec       q    Type
REMARK                         _______ _______ _______ _____ _____    ______ ____
ROOT
ATOM      1  C   UNL     1       2.611   7.562  18.807  0.00  0.00    +0.000 A 
ATOM      2  C   UNL     1       2.178   7.205  20.062  0.00  0.00    +0.000 A 
ATOM      3  C   UNL     1       1.308   8.081  20.658  0.00  0.00    +0.000 A 
ATOM      4  N   UNL     1       0.887   9.215  20.076  0.00  0.00    +0.000 NA
ATOM      5  C   UNL     1       1.353   9.480  18.846  0.00  0.00    +0.000 A 
ATOM      6  N   UNL     1       0.889  10.586  18.156  0.00  0.00    +0.000 N 
ATOM      7  N   UNL     1       2.226   8.704  18.201  0.00  0.00    +0.000 NA
ATOM      8  H   UNL     1       1.491  10.736  17.357  0.00  0.00    +0.000 HD
ENDROOT
BRANCH   1  11
ATOM      9  C   UNL     1       2.113   4.620  17.784  0.00  0.00    +0.000 C 
ATOM     10  N   UNL     1       3.308   5.421  17.604  0.00  0.00    +0.000 N 
ATOM     11  C   UNL     1       3.546   6.711  18.055  0.00  0.00    +0.000 A 
ATOM     12  C   UNL     1       4.850   7.021  17.665  0.00  0.00    +0.000 A 
ATOM     13  C   UNL     1       5.387   5.931  16.944  0.00  0.00    +0.000 A 
ATOM     14  C   UNL     1       4.422   4.954  16.937  0.00  0.00    +0.000 A 
ATOM     15  C   UNL     1       4.556   3.628  16.276  0.00  0.00    +0.000 C 
ATOM     16  C   UNL     1       5.947   3.446  15.630  0.00  0.00    +0.000 C 
ATOM     17  N   UNL     1       6.852   4.590  15.626  0.00  0.00    +0.000 N 
ATOM     18  C   UNL     1       6.675   5.778  16.295  0.00  0.00    +0.000 C 
ATOM     19  O   UNL     1       7.547   6.644  16.302  0.00  0.00    +0.000 OA
ATOM     20  H   UNL     1       7.760   4.500  15.191  0.00  0.00    +0.000 HD
ENDBRANCH   1  11
BRANCH   6  21
ATOM     21  C   UNL     1       0.524  11.765  18.935  0.00  0.00    +0.000 C 
ATOM     22  C   UNL     1      -0.969  12.054  18.745  0.00  0.00    +0.000 C 
ATOM     23  C   UNL     1      -1.344  13.347  19.452  0.00  0.00    +0.000 C 
ATOM     24  O   UNL     1      -0.539  14.429  18.986  0.00  0.00    +0.000 OA
ATOM     25  C   UNL     1       0.849  14.222  19.248  0.00  0.00    +0.000 C 
ATOM     26  C   UNL     1       1.353  12.984  18.520  0.00  0.00    +0.000 C 
ENDBRANCH   6  21
TORSDOF 2
ENDMDL
MODEL 2
REMARK VINA RESULT:      -7.4      2.663      3.344
REMARK  Name = 
REMARK  3 active torsions:
REMARK  status: ('A' for Active; 'I' for Inactive)
REMARK    1  A    between atoms: C_1  and  N_2
REMARK    2  A    between atoms: C_3  and  C_4
REMARK    3  A    between atoms: N_9  and  C_10
REMARK                            x       y       z     vdW  Elec       q    Type
REMARK                         _______ _______ _______ _____ _____    ______ ____
ROOT
ATOM      1  C   UNL     1       1.987   7.849  19.324  0.00  0.00    +0.000 A 
ATOM      2  C   UNL     1       1.735   8.422  18.100  0.00  0.00    +0.000 A 
ATOM      3  C   UNL     1       1.089   9.631  18.135  0.00  0.00    +0.000 A 
ATOM      4  N   UNL     1       0.723  10.239  19.274  0.00  0.00    +0.000 NA
ATOM      5  C   UNL     1       1.017   9.613  20.424  0.00  0.00    +0.000 A 
ATOM      6  N   UNL     1       0.746  10.228  21.634  0.00  0.00    +0.000 N 
ATOM      7  N   UNL     1       1.613   8.421  20.487  0.00  0.00    +0.000 NA
ATOM      8  H   UNL     1       0.840   9.538  22.366  0.00  0.00    +0.000 HD
ENDROOT
BRANCH   1  11
ATOM      9  C   UNL     1       0.818   5.158  20.483  0.00  0.00    +0.000 C 
ATOM     10  N   UNL     1       2.142   5.375  19.933  0.00  0.00    +0.000 N 
ATOM     11  C   UNL     1       2.674   6.552  19.429  0.00  0.00    +0.000 A 
ATOM     12  C   UNL     1       3.988   6.257  19.063  0.00  0.00    +0.000 A 
ATOM     13  C   UNL     1       4.238   4.888  19.311  0.00  0.00    +0.000 A 
ATOM     14  C   UNL     1       3.090   4.375  19.863  0.00  0.00    +0.000 A 
ATOM     15  C   UNL     1       2.901   2.957  20.273  0.00  0.00    +0.000 C 
ATOM     16  C   UNL     1       4.181   2.120  20.054  0.00  0.00    +0.000 C 
ATOM     17  N   UNL     1       5.305   2.757  19.378  0.00  0.00    +0.000 N 
ATOM     18  C   UNL     1       5.423   4.090  19.061  0.00  0.00    +0.000 C 
ATOM     19  O   UNL     1       6.457   4.542  18.575  0.00  0.00    +0.000 OA
ATOM     20  H   UNL     1       6.145   2.222  19.206  0.00  0.00    +0.000 HD
ENDBRANCH   1  11
BRANCH   6  21
ATOM     21  C   UNL     1      -0.418  11.105  21.700  0.00  0.00    +0.000 C 
ATOM     22  C   UNL     1       0.040  12.563  21.582  0.00  0.00    +0.000 C 
ATOM     23  C   UNL     1      -1.144  13.499  21.770  0.00  0.00    +0.000 C 
ATOM     24  O   UNL     1      -1.789  13.253  23.019  0.00  0.00    +0.000 OA
ATOM     25  C   UNL     1      -2.313  11.929  23.104  0.00  0.00    +0.000 C 
ATOM     26  C   UNL     1      -1.194  10.902  23.005  0.00  0.00    +0.000 C 
ENDBRANCH   6  21
TORSDOF 2
ENDMDL
MODEL 3
REMARK VINA RESULT:      -7.4      3.075      4.043
REMARK  Name = 
REMARK  3 active torsions:
REMARK  status: ('A' for Active; 'I' for Inactive)
REMARK    1  A    between atoms: C_1  and  N_2
REMARK    2  A    between atoms: C_3  and  C_4
REMARK    3  A    between atoms: N_9  and  C_10
REMARK                            x       y       z     vdW  Elec       q    Type
REMARK                         _______ _______ _______ _____ _____    ______ ____
ROOT
ATOM      1  C   UNL     1       1.878   7.851  19.462  0.00  0.00    +0.000 A 
ATOM      2  C   UNL     1       1.875   8.394  18.199  0.00  0.00    +0.000 A 
ATOM      3  C   UNL     1       1.405   9.679  18.109  0.00  0.00    +0.000 A 
ATOM      4  N   UNL     1       0.976  10.383  19.168  0.00  0.00    +0.000 NA
ATOM      5  C   UNL     1       1.022   9.779  20.365  0.00  0.00    +0.000 A 
ATOM      6  N   UNL     1       0.679  10.480  21.507  0.00  0.00    +0.000 N 
ATOM      7  N   UNL     1       1.434   8.522  20.544  0.00  0.00    +0.000 NA
ATOM      8  H   UNL     1       0.576   9.819  22.265  0.00  0.00    +0.000 HD
ENDROOT
BRANCH   1  11
ATOM      9  C   UNL     1       4.256   6.382  18.000  0.00  0.00    +0.000 C 
ATOM     10  N   UNL     1       3.413   5.852  19.052  0.00  0.00    +0.000 N 
ATOM     11  C   UNL     1       2.358   6.480  19.698  0.00  0.00    +0.000 A 
ATOM     12  C   UNL     1       1.844   5.545  20.597  0.00  0.00    +0.000 A 
ATOM     13  C   UNL     1       2.613   4.362  20.521  0.00  0.00    +0.000 A 
ATOM     14  C   UNL     1       3.560   4.573  19.550  0.00  0.00    +0.000 A 
ATOM     15  C   UNL     1       4.598   3.589  19.142  0.00  0.00    +0.000 C 
ATOM     16  C   UNL     1       4.458   2.256  19.909  0.00  0.00    +0.000 C 
ATOM     17  N   UNL     1       3.470   2.185  20.979  0.00  0.00    +0.000 N 
ATOM     18  C   UNL     1       2.512   3.127  21.275  0.00  0.00    +0.000 C 
ATOM     19  O   UNL     1       1.664   2.926  22.141  0.00  0.00    +0.000 OA
ATOM     20  H   UNL     1       3.375   1.329  21.508  0.00  0.00    +0.000 HD
ENDBRANCH   1  11
BRANCH   6  21
ATOM     21  C   UNL     1      -0.351  11.507  21.385  0.00  0.00    +0.000 C 
ATOM     22  C   UNL     1       0.315  12.887  21.341  0.00  0.00    +0.000 C 
ATOM     23  C   UNL     1      -0.746  13.977  21.335  0.00  0.00    +0.000 C 
ATOM     24  O   UNL     1      -1.608  13.849  22.465  0.00  0.00    +0.000 OA
ATOM     25  C   UNL     1      -2.314  12.609  22.467  0.00  0.00    +0.000 C 
ATOM     26  C   UNL     1      -1.344  11.440  22.549  0.00  0.00    +0.000 C 
ENDBRANCH   6  21
TORSDOF 2
ENDMDL
MODEL 4
REMARK VINA RESULT:      -7.3      2.465      3.221
REMARK  Name = 
REMARK  3 active torsions:
REMARK  status: ('A' for Active; 'I' for Inactive)
REMARK    1  A    between atoms: C_1  and  N_2
REMARK    2  A    between atoms: C_3  and  C_4
REMARK    3  A    between atoms: N_9  and  C_10
REMARK                            x       y       z     vdW  Elec       q    Type
REMARK                         _______ _______ _______ _____ _____    ______ ____
ROOT
ATOM      1  C   UNL     1       2.074   7.853  18.847  0.00  0.00    +0.000 A 
ATOM      2  C   UNL     1       2.047   8.707  17.770  0.00  0.00    +0.000 A 
ATOM      3  C   UNL     1       1.547   9.959  18.021  0.00  0.00    +0.000 A 
ATOM      4  N   UNL     1       1.114  10.352  19.228  0.00  0.00    +0.000 NA
ATOM      5  C   UNL     1       1.186   9.458  20.226  0.00  0.00    +0.000 A 
ATOM      6  N   UNL     1       0.838   9.829  21.513  0.00  0.00    +0.000 N 
ATOM      7  N   UNL     1       1.626   8.208  20.069  0.00  0.00    +0.000 NA
ATOM      8  H   UNL     1       0.758   8.991  22.072  0.00  0.00    +0.000 HD
ENDROOT
BRANCH   1  11
ATOM      9  C   UNL     1       1.513   5.415  20.768  0.00  0.00    +0.000 C 
ATOM     10  N   UNL     1       2.322   5.416  19.566  0.00  0.00    +0.000 N 
ATOM     11  C   UNL     1       2.587   6.480  18.716  0.00  0.00    +0.000 A 
ATOM     12  C   UNL     1       3.445   5.986  17.733  0.00  0.00    +0.000 A 
ATOM     13  C   UNL     1       3.669   4.610  17.967  0.00  0.00    +0.000 A 
ATOM     14  C   UNL     1       2.980   4.291  19.112  0.00  0.00    +0.000 A 
ATOM     15  C   UNL     1       2.926   2.937  19.725  0.00  0.00    +0.000 C 
ATOM     16  C   UNL     1       3.790   1.920  18.948  0.00  0.00    +0.000 C 
ATOM     17  N   UNL     1       4.401   2.358  17.698  0.00  0.00    +0.000 N 
ATOM     18  C   UNL     1       4.440   3.643  17.211  0.00  0.00    +0.000 C 
ATOM     19  O   UNL     1       5.066   3.920  16.190  0.00  0.00    +0.000 OA
ATOM     20  H   UNL     1       4.953   1.703  17.162  0.00  0.00    +0.000 HD
ENDBRANCH   1  11
BRANCH   6  21
ATOM     21  C   UNL     1      -0.215  10.828  21.667  0.00  0.00    +0.000 C 
ATOM     22  C   UNL     1       0.409  12.227  21.643  0.00  0.00    +0.000 C 
ATOM     23  C   UNL     1      -0.656  13.277  21.922  0.00  0.00    +0.000 C 
ATOM     24  O   UNL     1      -1.307  13.017  23.165  0.00  0.00    +0.000 OA
ATOM     25  C   UNL     1      -1.981  11.759  23.167  0.00  0.00    +0.000 C 
ATOM     26  C   UNL     1      -0.991  10.620  22.971  0.00  0.00    +0.000 C 
ENDBRANCH   6  21
TORSDOF 2
ENDMDL
MODEL 5
REMARK VINA RESULT:      -7.2      2.192      8.397
REMARK  Name = 
REMARK  3 active torsions:
REMARK  status: ('A' for Active; 'I' for Inactive)
REMARK    1  A    between atoms: C_1  and  N_2
REMARK    2  A    between atoms: C_3  and  C_4
REMARK    3  A    between atoms: N_9  and  C_10
REMARK                            x       y       z     vdW  Elec       q    Type
REMARK                         _______ _______ _______ _____ _____    ______ ____
ROOT
ATOM      1  C   UNL     1       2.170   7.083  19.866  0.00  0.00    +0.000 A 
ATOM      2  C   UNL     1       1.863   5.843  20.373  0.00  0.00    +0.000 A 
ATOM      3  C   UNL     1       2.656   4.813  19.936  0.00  0.00    +0.000 A 
ATOM      4  N   UNL     1       3.673   4.977  19.077  0.00  0.00    +0.000 NA
ATOM      5  C   UNL     1       3.908   6.223  18.639  0.00  0.00    +0.000 A 
ATOM      6  N   UNL     1       4.997   6.475  17.822  0.00  0.00    +0.000 N 
ATOM      7  N   UNL     1       3.171   7.281  18.984  0.00  0.00    +0.000 NA
ATOM      8  H   UNL     1       4.893   7.403  17.435  0.00  0.00    +0.000 HD
ENDROOT
BRANCH   1  11
ATOM      9  C   UNL     1       1.096   9.361  17.967  0.00  0.00    +0.000 C 
ATOM     10  N   UNL     1       0.926   9.263  19.403  0.00  0.00    +0.000 N 
ATOM     11  C   UNL     1       1.399   8.274  20.253  0.00  0.00    +0.000 A 
ATOM     12  C   UNL     1       1.010   8.652  21.539  0.00  0.00    +0.000 A 
ATOM     13  C   UNL     1       0.267   9.852  21.462  0.00  0.00    +0.000 A 
ATOM     14  C   UNL     1       0.247  10.214  20.137  0.00  0.00    +0.000 A 
ATOM     15  C   UNL     1      -0.439  11.416  19.593  0.00  0.00    +0.000 C 
ATOM     16  C   UNL     1      -1.094  12.259  20.709  0.00  0.00    +0.000 C 
ATOM     17  N   UNL     1      -1.080  11.723  22.065  0.00  0.00    +0.000 N 
ATOM     18  C   UNL     1      -0.389  10.618  22.503  0.00  0.00    +0.000 C 
ATOM     19  O   UNL     1      -0.370  10.306  23.692  0.00  0.00    +0.000 OA
ATOM     20  H   UNL     1      -1.521  12.248  22.808  0.00  0.00    +0.000 HD
ENDBRANCH   1  11
BRANCH   6  21
ATOM     21  C   UNL     1       5.408   5.420  16.901  0.00  0.00    +0.000 C 
ATOM     22  C   UNL     1       6.898   5.124  17.105  0.00  0.00    +0.000 C 
ATOM     23  C   UNL     1       7.375   4.112  16.074  0.00  0.00    +0.000 C 
ATOM     24  O   UNL     1       7.111   4.578  14.751  0.00  0.00    +0.000 OA
ATOM     25  C   UNL     1       5.716   4.761  14.512  0.00  0.00    +0.000 C 
ATOM     26  C   UNL     1       5.146   5.818  15.446  0.00  0.00    +0.000 C 
ENDBRANCH   6  21
TORSDOF 2
ENDMDL
MODEL 6
REMARK VINA RESULT:      -7.2      2.979      3.964
REMARK  Name = 
REMARK  3 active torsions:
REMARK  status: ('A' for Active; 'I' for Inactive)
REMARK    1  A    between atoms: C_1  and  N_2
REMARK    2  A    between atoms: C_3  and  C_4
REMARK    3  A    between atoms: N_9  and  C_10
REMARK                            x       y       z     vdW  Elec       q    Type
REMARK                         _______ _______ _______ _____ _____    ______ ____
ROOT
ATOM      1  C   UNL     1       2.067   7.812  19.250  0.00  0.00    +0.000 A 
ATOM      2  C   UNL     1       2.233   8.320  17.983  0.00  0.00    +0.000 A 
ATOM      3  C   UNL     1       1.813   9.613  17.805  0.00  0.00    +0.000 A 
ATOM      4  N   UNL     1       1.278  10.357  18.785  0.00  0.00    +0.000 NA
ATOM      5  C   UNL     1       1.161   9.785  19.993  0.00  0.00    +0.000 A 
ATOM      6  N   UNL     1       0.700  10.526  21.067  0.00  0.00    +0.000 N 
ATOM      7  N   UNL     1       1.513   8.524  20.253  0.00  0.00    +0.000 NA
ATOM      8  H   UNL     1       0.488   9.889  21.822  0.00  0.00    +0.000 HD
ENDROOT
BRANCH   1  11
ATOM      9  C   UNL     1       4.441   6.173  17.975  0.00  0.00    +0.000 C 
ATOM     10  N   UNL     1       3.530   5.734  19.013  0.00  0.00    +0.000 N 
ATOM     11  C   UNL     1       2.476   6.438  19.577  0.00  0.00    +0.000 A 
ATOM     12  C   UNL     1       1.882   5.572  20.497  0.00  0.00    +0.000 A 
ATOM     13  C   UNL     1       2.601   4.356  20.517  0.00  0.00    +0.000 A 
ATOM     14  C   UNL     1       3.599   4.478  19.581  0.00  0.00    +0.000 A 
ATOM     15  C   UNL     1       4.611   3.431  19.272  0.00  0.00    +0.000 C 
ATOM     16  C   UNL     1       4.379   2.147  20.098  0.00  0.00    +0.000 C 
ATOM     17  N   UNL     1       3.342   2.173  21.123  0.00  0.00    +0.000 N 
ATOM     18  C   UNL     1       2.415   3.168  21.327  0.00  0.00    +0.000 C 
ATOM     19  O   UNL     1       1.520   3.047  22.161  0.00  0.00    +0.000 OA
ATOM     20  H   UNL     1       3.187   1.351  21.690  0.00  0.00    +0.000 HD
ENDBRANCH   1  11
BRANCH   6  21
ATOM     21  C   UNL     1      -0.278  11.575  20.794  0.00  0.00    +0.000 C 
ATOM     22  C   UNL     1      -0.895  12.046  22.116  0.00  0.00    +0.000 C 
ATOM     23  C   UNL     1      -2.002  13.053  21.845  0.00  0.00    +0.000 C 
ATOM     24  O   UNL     1      -2.988  12.496  20.976  0.00  0.00    +0.000 OA
ATOM     25  C   UNL     1      -2.450  12.146  19.702  0.00  0.00    +0.000 C 
ATOM     26  C   UNL     1      -1.375  11.079  19.849  0.00  0.00    +0.000 C 
ENDBRANCH   6  21
TORSDOF 2
ENDMDL
MODEL 7
REMARK VINA RESULT:      -7.1      1.504      1.920
REMARK  Name = 
REMARK  3 active torsions:
REMARK  status: ('A' for Active; 'I' for Inactive)
REMARK    1  A    between atoms: C_1  and  N_2
REMARK    2  A    between atoms: C_3  and  C_4
REMARK    3  A    between atoms: N_9  and  C_10
REMARK                            x       y       z     vdW  Elec       q    Type
REMARK                         _______ _______ _______ _____ _____    ______ ____
ROOT
ATOM      1  C   UNL     1       1.865   7.797  19.776  0.00  0.00    +0.000 A 
ATOM      2  C   UNL     1       1.496   7.842  21.099  0.00  0.00    +0.000 A 
ATOM      3  C   UNL     1       0.939   9.023  21.517  0.00  0.00    +0.000 A 
ATOM      4  N   UNL     1       0.748  10.077  20.708  0.00  0.00    +0.000 NA
ATOM      5  C   UNL     1       1.129   9.942  19.429  0.00  0.00    +0.000 A 
ATOM      6  N   UNL     1       0.879  10.959  18.523  0.00  0.00    +0.000 N 
ATOM      7  N   UNL     1       1.709   8.844  18.940  0.00  0.00    +0.000 NA
ATOM      8  H   UNL     1       1.409  10.770  17.683  0.00  0.00    +0.000 HD
ENDROOT
BRANCH   1  11
ATOM      9  C   UNL     1       1.221   4.797  20.506  0.00  0.00    +0.000 C 
ATOM     10  N   UNL     1       2.173   5.275  19.524  0.00  0.00    +0.000 N 
ATOM     11  C   UNL     1       2.474   6.589  19.198  0.00  0.00    +0.000 A 
ATOM     12  C   UNL     1       3.478   6.526  18.230  0.00  0.00    +0.000 A 
ATOM     13  C   UNL     1       3.757   5.171  17.943  0.00  0.00    +0.000 A 
ATOM     14  C   UNL     1       2.951   4.424  18.767  0.00  0.00    +0.000 A 
ATOM     15  C   UNL     1       2.905   2.937  18.795  0.00  0.00    +0.000 C 
ATOM     16  C   UNL     1       3.921   2.312  17.814  0.00  0.00    +0.000 C 
ATOM     17  N   UNL     1       4.656   3.210  16.930  0.00  0.00    +0.000 N 
ATOM     18  C   UNL     1       4.676   4.583  16.987  0.00  0.00    +0.000 C 
ATOM     19  O   UNL     1       5.406   5.244  16.252  0.00  0.00    +0.000 OA
ATOM     20  H   UNL     1       5.311   2.821  16.265  0.00  0.00    +0.000 HD
ENDBRANCH   1  11
BRANCH   6  21
ATOM     21  C   UNL     1       0.902  12.330  19.023  0.00  0.00    +0.000 C 
ATOM     22  C   UNL     1      -0.256  13.114  18.398  0.00  0.00    +0.000 C 
ATOM     23  C   UNL     1      -0.179  14.576  18.812  0.00  0.00    +0.000 C 
ATOM     24  O   UNL     1       1.084  15.136  18.455  0.00  0.00    +0.000 OA
ATOM     25  C   UNL     1       2.169  14.480  19.110  0.00  0.00    +0.000 C 
ATOM     26  C   UNL     1       2.234  13.015  18.705  0.00  0.00    +0.000 C 
ENDBRANCH   6  21
TORSDOF 2
ENDMDL
MODEL 8
REMARK VINA RESULT:      -7.0      2.534      3.211
REMARK  Name = 
REMARK  3 active torsions:
REMARK  status: ('A' for Active; 'I' for Inactive)
REMARK    1  A    between atoms: C_1  and  N_2
REMARK    2  A    between atoms: C_3  and  C_4
REMARK    3  A    between atoms: N_9  and  C_10
REMARK                            x       y       z     vdW  Elec       q    Type
REMARK                         _______ _______ _______ _____ _____    ______ ____
ROOT
ATOM      1  C   UNL     1       1.452   8.257  20.455  0.00  0.00    +0.000 A 
ATOM      2  C   UNL     1       1.158   8.448  21.784  0.00  0.00    +0.000 A 
ATOM      3  C   UNL     1       0.697   9.696  22.115  0.00  0.00    +0.000 A 
ATOM      4  N   UNL     1       0.529  10.682  21.220  0.00  0.00    +0.000 NA
ATOM      5  C   UNL     1       0.832  10.406  19.942  0.00  0.00    +0.000 A 
ATOM      6  N   UNL     1       0.596  11.350  18.958  0.00  0.00    +0.000 N 
ATOM      7  N   UNL     1       1.316   9.232  19.532  0.00  0.00    +0.000 NA
ATOM      8  H   UNL     1       1.068  11.051  18.115  0.00  0.00    +0.000 HD
ENDROOT
BRANCH   1  11
ATOM      9  C   UNL     1       3.106   7.726  17.822  0.00  0.00    +0.000 C 
ATOM     10  N   UNL     1       2.689   6.750  18.808  0.00  0.00    +0.000 N 
ATOM     11  C   UNL     1       1.955   6.965  19.964  0.00  0.00    +0.000 A 
ATOM     12  C   UNL     1       1.779   5.710  20.549  0.00  0.00    +0.000 A 
ATOM     13  C   UNL     1       2.442   4.739  19.765  0.00  0.00    +0.000 A 
ATOM     14  C   UNL     1       2.978   5.405  18.690  0.00  0.00    +0.000 A 
ATOM     15  C   UNL     1       3.776   4.772  17.606  0.00  0.00    +0.000 C 
ATOM     16  C   UNL     1       3.893   3.244  17.797  0.00  0.00    +0.000 C 
ATOM     17  N   UNL     1       3.357   2.666  19.024  0.00  0.00    +0.000 N 
ATOM     18  C   UNL     1       2.594   3.311  19.969  0.00  0.00    +0.000 C 
ATOM     19  O   UNL     1       2.111   2.706  20.923  0.00  0.00    +0.000 OA
ATOM     20  H   UNL     1       3.441   1.671  19.180  0.00  0.00    +0.000 HD
ENDBRANCH   1  11
BRANCH   6  21
ATOM     21  C   UNL     1       0.730  12.756  19.324  0.00  0.00    +0.000 C 
ATOM     22  C   UNL     1      -0.327  13.576  18.576  0.00  0.00    +0.000 C 
ATOM     23  C   UNL     1      -0.129  15.059  18.851  0.00  0.00    +0.000 C 
ATOM     24  O   UNL     1       1.193  15.464  18.498  0.00  0.00    +0.000 OA
ATOM     25  C   UNL     1       2.189  14.783  19.260  0.00  0.00    +0.000 C 
ATOM     26  C   UNL     1       2.131  13.285  19.000  0.00  0.00    +0.000 C 
ENDBRANCH   6  21
TORSDOF 2
ENDMDL
MODEL 9
REMARK VINA RESULT:      -6.9      2.405      3.154
REMARK  Name = 
REMARK  3 active torsions:
REMARK  status: ('A' for Active; 'I' for Inactive)
REMARK    1  A    between atoms: C_1  and  N_2
REMARK    2  A    between atoms: C_3  and  C_4
REMARK    3  A    between atoms: N_9  and  C_10
REMARK                            x       y       z     vdW  Elec       q    Type
REMARK                         _______ _______ _______ _____ _____    ______ ____
ROOT
ATOM      1  C   UNL     1       1.674   8.577  18.828  0.00  0.00    +0.000 A 
ATOM      2  C   UNL     1       1.131   9.136  17.695  0.00  0.00    +0.000 A 
ATOM      3  C   UNL     1       0.380  10.266  17.896  0.00  0.00    +0.000 A 
ATOM      4  N   UNL     1       0.178  10.813  19.104  0.00  0.00    +0.000 NA
ATOM      5  C   UNL     1       0.753  10.207  20.154  0.00  0.00    +0.000 A 
ATOM      6  N   UNL     1       0.657  10.771  21.414  0.00  0.00    +0.000 N 
ATOM      7  N   UNL     1       1.473   9.088  20.060  0.00  0.00    +0.000 NA
ATOM      8  H   UNL     1       0.963  10.085  22.091  0.00  0.00    +0.000 HD
ENDROOT
BRANCH   1  11
ATOM      9  C   UNL     1       1.507   6.037  20.691  0.00  0.00    +0.000 C 
ATOM     10  N   UNL     1       2.409   6.250  19.577  0.00  0.00    +0.000 N 
ATOM     11  C   UNL     1       2.502   7.363  18.755  0.00  0.00    +0.000 A 
ATOM     12  C   UNL     1       3.544   7.101  17.865  0.00  0.00    +0.000 A 
ATOM     13  C   UNL     1       4.058   5.810  18.125  0.00  0.00    +0.000 A 
ATOM     14  C   UNL     1       3.352   5.317  19.196  0.00  0.00    +0.000 A 
ATOM     15  C   UNL     1       3.553   3.975  19.805  0.00  0.00    +0.000 C 
ATOM     16  C   UNL     1       4.702   3.201  19.123  0.00  0.00    +0.000 C 
ATOM     17  N   UNL     1       5.316   3.794  17.940  0.00  0.00    +0.000 N 
ATOM     18  C   UNL     1       5.104   5.063  17.455  0.00  0.00    +0.000 C 
ATOM     19  O   UNL     1       5.747   5.498  16.502  0.00  0.00    +0.000 OA
ATOM     20  H   UNL     1       6.056   3.296  17.466  0.00  0.00    +0.000 HD
ENDBRANCH   1  11
BRANCH   6  21
ATOM     21  C   UNL     1      -0.559  11.513  21.732  0.00  0.00    +0.000 C 
ATOM     22  C   UNL     1      -0.216  12.997  21.900  0.00  0.00    +0.000 C 
ATOM     23  C   UNL     1      -1.446  13.770  22.349  0.00  0.00    +0.000 C 
ATOM     24  O   UNL     1      -1.978  13.217  23.553  0.00  0.00    +0.000 OA
ATOM     25  C   UNL     1      -2.398  11.863  23.385  0.00  0.00    +0.000 C 
ATOM     26  C   UNL     1      -1.219  10.979  23.006  0.00  0.00    +0.000 C 
ENDBRANCH   6  21
TORSDOF 2
ENDMDL
