MODEL 1
REMARK VINA RESULT:      -8.3      0.000      0.000
REMARK  Name = 
REMARK  8 active torsions:
REMARK  status: ('A' for Active; 'I' for Inactive)
REMARK    1  A    between atoms: C_1  and  N_2
REMARK    2  A    between atoms: N_2  and  C_16
REMARK    3  A    between atoms: C_3  and  C_5
REMARK    4  A    between atoms: C_8  and  O_9
REMARK    5  A    between atoms: O_9  and  C_10
REMARK    6  A    between atoms: C_10  and  C_11
REMARK    7  A    between atoms: C_21  and  C_22
REMARK    8  A    between atoms: C_22  and  N_23
REMARK                            x       y       z     vdW  Elec       q    Type
REMARK                         _______ _______ _______ _____ _____    ______ ____
ROOT
ATOM      1  C   UNL     1       3.414   5.863  18.558  0.00  0.00    +0.000 C 
ATOM      2  C   UNL     1       2.424   5.475  19.696  0.00  0.00    +0.000 C 
ATOM      3  C   UNL     1       1.864   6.806  20.090  0.00  0.00    +0.000 A 
ATOM      4  C   UNL     1       1.132   7.191  21.210  0.00  0.00    +0.000 A 
ATOM      5  C   UNL     1       0.705   8.535  21.298  0.00  0.00    +0.000 A 
ATOM      6  C   UNL     1       0.987   9.477  20.297  0.00  0.00    +0.000 A 
ATOM      7  C   UNL     1       1.683   9.037  19.164  0.00  0.00    +0.000 A 
ATOM      8  C   UNL     1       2.114   7.721  19.093  0.00  0.00    +0.000 A 
ATOM      9  C   UNL     1       2.872   7.154  17.938  0.00  0.00    +0.000 C 
ENDROOT
BRANCH   1  11
ATOM     10  C   UNL     1       2.641   3.935  17.168  0.00  0.00    +0.000 C 
ATOM     11  N   UNL     1       3.719   4.836  17.556  0.00  0.00    +0.000 N 
ATOM     12  C   UNL     1       5.067   4.590  17.149  0.00  0.00    +0.000 C 
ATOM     13  O   UNL     1       5.387   3.593  16.550  0.00  0.00    +0.000 OA
BRANCH  12  14
ATOM     14  C   UNL     1       6.153   5.577  17.547  0.00  0.00    +0.000 A 
ATOM     15  C   UNL     1       6.970   5.306  18.635  0.00  0.00    +0.000 A 
ATOM     16  C   UNL     1       7.901   6.278  19.032  0.00  0.00    +0.000 A 
ATOM     17  C   UNL     1       8.035   7.477  18.327  0.00  0.00    +0.000 A 
ATOM     18  C   UNL     1       7.203   7.633  17.225  0.00  0.00    +0.000 A 
ATOM     19  N   UNL     1       6.293   6.711  16.819  0.00  0.00    +0.000 NA
BRANCH  17  20
ATOM     20  O   UNL     1       8.896   8.503  18.636  0.00  0.00    +0.000 OA
BRANCH  20  21
ATOM     21  C   UNL     1       8.487   9.790  18.138  0.00  0.00    +0.000 C 
BRANCH  21  22
ATOM     22  C   UNL     1       9.370  10.909  18.619  0.00  0.00    +0.000 C 
ATOM     23  C   UNL     1      10.515  11.458  17.768  0.00  0.00    +0.000 C 
ATOM     24  C   UNL     1       9.302  12.308  18.048  0.00  0.00    +0.000 C 
ENDBRANCH  21  22
ENDBRANCH  20  21
ENDBRANCH  17  20
ENDBRANCH  12  14
ENDBRANCH   1  11
BRANCH   6  25
ATOM     25  C   UNL     1       0.546  10.932  20.390  0.00  0.00    +0.000 C 
BRANCH  25  26
ATOM     26  N   UNL     1      -0.800  11.158  20.969  0.00  0.00    +0.000 NA
ATOM     27  C   UNL     1      -0.732  11.518  22.396  0.00  0.00    +0.000 C 
ATOM     28  C   UNL     1      -2.055  12.002  22.994  0.00  0.00    +0.000 C 
ATOM     29  C   UNL     1      -2.705  13.074  22.133  0.00  0.00    +0.000 C 
ATOM     30  C   UNL     1      -2.914  12.535  20.729  0.00  0.00    +0.000 C 
ATOM     31  C   UNL     1      -1.603  12.047  20.107  0.00  0.00    +0.000 C 
ENDBRANCH  25  26
ENDBRANCH   6  25
TORSDOF 7
ENDMDL
MODEL 2
REMARK VINA RESULT:      -8.3      2.215      2.857
REMARK  Name = 
REMARK  8 active torsions:
REMARK  status: ('A' for Active; 'I' for Inactive)
REMARK    1  A    between atoms: C_1  and  N_2
REMARK    2  A    between atoms: N_2  and  C_16
REMARK    3  A    between atoms: C_3  and  C_5
REMARK    4  A    between atoms: C_8  and  O_9
REMARK    5  A    between atoms: O_9  and  C_10
REMARK    6  A    between atoms: C_10  and  C_11
REMARK    7  A    between atoms: C_21  and  C_22
REMARK    8  A    between atoms: C_22  and  N_23
REMARK                            x       y       z     vdW  Elec       q    Type
REMARK                         _______ _______ _______ _____ _____    ______ ____
ROOT
ATOM      1  C   UNL     1       2.776   6.337  19.319  0.00  0.00    +0.000 C 
ATOM      2  C   UNL     1       1.987   6.678  20.617  0.00  0.00    +0.000 C 
ATOM      3  C   UNL     1       1.557   8.089  20.359  0.00  0.00    +0.000 A 
ATOM      4  C   UNL     1       1.048   9.058  21.220  0.00  0.00    +0.000 A 
ATOM      5  C   UNL     1       0.696  10.314  20.677  0.00  0.00    +0.000 A 
ATOM      6  C   UNL     1       0.836  10.604  19.310  0.00  0.00    +0.000 A 
ATOM      7  C   UNL     1       1.304   9.585  18.471  0.00  0.00    +0.000 A 
ATOM      8  C   UNL     1       1.664   8.361  19.015  0.00  0.00    +0.000 A 
ATOM      9  C   UNL     1       2.185   7.215  18.213  0.00  0.00    +0.000 C 
ENDROOT
BRANCH   1  11
ATOM     10  C   UNL     1       1.709   4.078  19.231  0.00  0.00    +0.000 C 
ATOM     11  N   UNL     1       2.860   4.922  18.938  0.00  0.00    +0.000 N 
ATOM     12  C   UNL     1       4.100   4.355  18.508  0.00  0.00    +0.000 C 
ATOM     13  O   UNL     1       4.277   3.162  18.452  0.00  0.00    +0.000 OA
BRANCH  12  14
ATOM     14  C   UNL     1       5.263   5.277  18.179  0.00  0.00    +0.000 A 
ATOM     15  C   UNL     1       6.373   5.313  19.011  0.00  0.00    +0.000 A 
ATOM     16  C   UNL     1       7.389   6.240  18.731  0.00  0.00    +0.000 A 
ATOM     17  C   UNL     1       7.309   7.082  17.619  0.00  0.00    +0.000 A 
ATOM     18  C   UNL     1       6.180   6.936  16.823  0.00  0.00    +0.000 A 
ATOM     19  N   UNL     1       5.182   6.050  17.070  0.00  0.00    +0.000 NA
BRANCH  17  20
ATOM     20  O   UNL     1       8.232   8.036  17.262  0.00  0.00    +0.000 OA
BRANCH  20  21
ATOM     21  C   UNL     1       7.993   9.335  17.834  0.00  0.00    +0.000 C 
BRANCH  21  22
ATOM     22  C   UNL     1       9.248   9.986  18.349  0.00  0.00    +0.000 C 
ATOM     23  C   UNL     1       9.362  11.501  18.517  0.00  0.00    +0.000 C 
ATOM     24  C   UNL     1       9.344  10.602  19.727  0.00  0.00    +0.000 C 
ENDBRANCH  21  22
ENDBRANCH  20  21
ENDBRANCH  17  20
ENDBRANCH  12  14
ENDBRANCH   1  11
BRANCH   6  25
ATOM     25  C   UNL     1       0.475  11.960  18.717  0.00  0.00    +0.000 C 
BRANCH  25  26
ATOM     26  N   UNL     1       1.405  13.069  19.038  0.00  0.00    +0.000 NA
ATOM     27  C   UNL     1       2.680  12.946  18.309  0.00  0.00    +0.000 C 
ATOM     28  C   UNL     1       3.586  14.176  18.402  0.00  0.00    +0.000 C 
ATOM     29  C   UNL     1       2.832  15.458  18.084  0.00  0.00    +0.000 C 
ATOM     30  C   UNL     1       1.646  15.591  19.024  0.00  0.00    +0.000 C 
ATOM     31  C   UNL     1       0.722  14.373  18.947  0.00  0.00    +0.000 C 
ENDBRANCH  25  26
ENDBRANCH   6  25
TORSDOF 7
ENDMDL
MODEL 3
REMARK VINA RESULT:      -8.2      1.208      1.638
REMARK  Name = 
REMARK  8 active torsions:
REMARK  status: ('A' for Active; 'I' for Inactive)
REMARK    1  A    between atoms: C_1  and  N_2
REMARK    2  A    between atoms: N_2  and  C_16
REMARK    3  A    between atoms: C_3  and  C_5
REMARK    4  A    between atoms: C_8  and  O_9
REMARK    5  A    between atoms: O_9  and  C_10
REMARK    6  A    between atoms: C_10  and  C_11
REMARK    7  A    between atoms: C_21  and  C_22
REMARK    8  A    between atoms: C_22  and  N_23
REMARK                            x       y       z     vdW  Elec       q    Type
REMARK                         _______ _______ _______ _____ _____    ______ ____
ROOT
ATOM      1  C   UNL     1       3.717   6.254  18.361  0.00  0.00    +0.000 C 
ATOM      2  C   UNL     1       2.922   5.938  19.662  0.00  0.00    +0.000 C 
ATOM      3  C   UNL     1       2.128   7.192  19.855  0.00  0.00    +0.000 A 
ATOM      4  C   UNL     1       1.420   7.662  20.958  0.00  0.00    +0.000 A 
ATOM      5  C   UNL     1       0.728   8.887  20.833  0.00  0.00    +0.000 A 
ATOM      6  C   UNL     1       0.727   9.629  19.642  0.00  0.00    +0.000 A 
ATOM      7  C   UNL     1       1.410   9.096  18.541  0.00  0.00    +0.000 A 
ATOM      8  C   UNL     1       2.101   7.902  18.676  0.00  0.00    +0.000 A 
ATOM      9  C   UNL     1       2.870   7.255  17.572  0.00  0.00    +0.000 C 
ENDROOT
BRANCH   1  11
ATOM     10  C   UNL     1       3.141   4.135  17.165  0.00  0.00    +0.000 C 
ATOM     11  N   UNL     1       4.153   5.112  17.549  0.00  0.00    +0.000 N 
ATOM     12  C   UNL     1       5.543   4.855  17.337  0.00  0.00    +0.000 C 
ATOM     13  O   UNL     1       5.945   3.797  16.919  0.00  0.00    +0.000 OA
BRANCH  12  14
ATOM     14  C   UNL     1       6.560   5.918  17.720  0.00  0.00    +0.000 A 
ATOM     15  C   UNL     1       7.404   5.711  18.801  0.00  0.00    +0.000 A 
ATOM     16  C   UNL     1       8.268   6.748  19.185  0.00  0.00    +0.000 A 
ATOM     17  C   UNL     1       8.311   7.950  18.473  0.00  0.00    +0.000 A 
ATOM     18  C   UNL     1       7.460   8.040  17.378  0.00  0.00    +0.000 A 
ATOM     19  N   UNL     1       6.614   7.055  16.985  0.00  0.00    +0.000 NA
BRANCH  17  20
ATOM     20  O   UNL     1       9.100   9.035  18.770  0.00  0.00    +0.000 OA
BRANCH  20  21
ATOM     21  C   UNL     1       8.703  10.253  18.114  0.00  0.00    +0.000 C 
BRANCH  21  22
ATOM     22  C   UNL     1       9.554  11.430  18.505  0.00  0.00    +0.000 C 
ATOM     23  C   UNL     1      10.838  11.783  17.755  0.00  0.00    +0.000 C 
ATOM     24  C   UNL     1       9.638  12.691  17.674  0.00  0.00    +0.000 C 
ENDBRANCH  21  22
ENDBRANCH  20  21
ENDBRANCH  17  20
ENDBRANCH  12  14
ENDBRANCH   1  11
BRANCH   6  25
ATOM     25  C   UNL     1      -0.002  10.959  19.502  0.00  0.00    +0.000 C 
BRANCH  25  26
ATOM     26  N   UNL     1      -1.473  10.870  19.341  0.00  0.00    +0.000 NA
ATOM     27  C   UNL     1      -2.134  12.162  19.597  0.00  0.00    +0.000 C 
ATOM     28  C   UNL     1      -3.615  12.206  19.213  0.00  0.00    +0.000 C 
ATOM     29  C   UNL     1      -3.850  11.678  17.807  0.00  0.00    +0.000 C 
ATOM     30  C   UNL     1      -3.309  10.263  17.702  0.00  0.00    +0.000 C 
ATOM     31  C   UNL     1      -1.826  10.193  18.078  0.00  0.00    +0.000 C 
ENDBRANCH  25  26
ENDBRANCH   6  25
TORSDOF 7
ENDMDL
MODEL 4
REMARK VINA RESULT:      -8.2      1.527      1.738
REMARK  Name = 
REMARK  8 active torsions:
REMARK  status: ('A' for Active; 'I' for Inactive)
REMARK    1  A    between atoms: C_1  and  N_2
REMARK    2  A    between atoms: N_2  and  C_16
REMARK    3  A    between atoms: C_3  and  C_5
REMARK    4  A    between atoms: C_8  and  O_9
REMARK    5  A    between atoms: O_9  and  C_10
REMARK    6  A    between atoms: C_10  and  C_11
REMARK    7  A    between atoms: C_21  and  C_22
REMARK    8  A    between atoms: C_22  and  N_23
REMARK                            x       y       z     vdW  Elec       q    Type
REMARK                         _______ _______ _______ _____ _____    ______ ____
ROOT
ATOM      1  C   UNL     1       2.944   6.373  18.795  0.00  0.00    +0.000 C 
ATOM      2  C   UNL     1       2.149   6.286  20.131  0.00  0.00    +0.000 C 
ATOM      3  C   UNL     1       1.676   7.695  20.305  0.00  0.00    +0.000 A 
ATOM      4  C   UNL     1       1.141   8.347  21.414  0.00  0.00    +0.000 A 
ATOM      5  C   UNL     1       0.749   9.696  21.269  0.00  0.00    +0.000 A 
ATOM      6  C   UNL     1       0.875  10.386  20.054  0.00  0.00    +0.000 A 
ATOM      7  C   UNL     1       1.371   9.681  18.951  0.00  0.00    +0.000 A 
ATOM      8  C   UNL     1       1.770   8.361  19.105  0.00  0.00    +0.000 A 
ATOM      9  C   UNL     1       2.323   7.524  17.999  0.00  0.00    +0.000 C 
ENDROOT
BRANCH   1  11
ATOM     10  C   UNL     1       1.862   4.354  17.794  0.00  0.00    +0.000 C 
ATOM     11  N   UNL     1       3.070   5.141  18.008  0.00  0.00    +0.000 N 
ATOM     12  C   UNL     1       4.357   4.623  17.664  0.00  0.00    +0.000 C 
ATOM     13  O   UNL     1       4.511   3.494  17.267  0.00  0.00    +0.000 OA
BRANCH  12  14
ATOM     14  C   UNL     1       5.586   5.494  17.871  0.00  0.00    +0.000 A 
ATOM     15  C   UNL     1       6.518   5.154  18.841  0.00  0.00    +0.000 A 
ATOM     16  C   UNL     1       7.594   6.026  19.070  0.00  0.00    +0.000 A 
ATOM     17  C   UNL     1       7.750   7.192  18.315  0.00  0.00    +0.000 A 
ATOM     18  C   UNL     1       6.788   7.417  17.337  0.00  0.00    +0.000 A 
ATOM     19  N   UNL     1       5.738   6.593  17.094  0.00  0.00    +0.000 NA
BRANCH  17  20
ATOM     20  O   UNL     1       8.749   8.123  18.466  0.00  0.00    +0.000 OA
BRANCH  20  21
ATOM     21  C   UNL     1       8.389   9.451  18.043  0.00  0.00    +0.000 C 
BRANCH  21  22
ATOM     22  C   UNL     1       9.220  10.518  18.702  0.00  0.00    +0.000 C 
ATOM     23  C   UNL     1      10.328  11.257  17.952  0.00  0.00    +0.000 C 
ATOM     24  C   UNL     1       9.078  11.987  18.371  0.00  0.00    +0.000 C 
ENDBRANCH  21  22
ENDBRANCH  20  21
ENDBRANCH  17  20
ENDBRANCH  12  14
ENDBRANCH   1  11
BRANCH   6  25
ATOM     25  C   UNL     1       0.470  11.846  19.891  0.00  0.00    +0.000 C 
BRANCH  25  26
ATOM     26  N   UNL     1       0.741  12.720  21.058  0.00  0.00    +0.000 NA
ATOM     27  C   UNL     1       1.765  13.736  20.759  0.00  0.00    +0.000 C 
ATOM     28  C   UNL     1       1.918  14.820  21.829  0.00  0.00    +0.000 C 
ATOM     29  C   UNL     1       0.576  15.416  22.224  0.00  0.00    +0.000 C 
ATOM     30  C   UNL     1      -0.345  14.309  22.706  0.00  0.00    +0.000 C 
ATOM     31  C   UNL     1      -0.517  13.213  21.651  0.00  0.00    +0.000 C 
ENDBRANCH  25  26
ENDBRANCH   6  25
TORSDOF 7
ENDMDL
MODEL 5
REMARK VINA RESULT:      -8.1      1.532      1.931
REMARK  Name = 
REMARK  8 active torsions:
REMARK  status: ('A' for Active; 'I' for Inactive)
REMARK    1  A    between atoms: C_1  and  N_2
REMARK    2  A    between atoms: N_2  and  C_16
REMARK    3  A    between atoms: C_3  and  C_5
REMARK    4  A    between atoms: C_8  and  O_9
REMARK    5  A    between atoms: O_9  and  C_10
REMARK    6  A    between atoms: C_10  and  C_11
REMARK    7  A    between atoms: C_21  and  C_22
REMARK    8  A    between atoms: C_22  and  N_23
REMARK                            x       y       z     vdW  Elec       q    Type
REMARK                         _______ _______ _______ _____ _____    ______ ____
ROOT
ATOM      1  C   UNL     1       4.170   5.697  18.310  0.00  0.00    +0.000 C 
ATOM      2  C   UNL     1       3.169   4.993  19.275  0.00  0.00    +0.000 C 
ATOM      3  C   UNL     1       2.388   6.151  19.813  0.00  0.00    +0.000 A 
ATOM      4  C   UNL     1       1.526   6.241  20.903  0.00  0.00    +0.000 A 
ATOM      5  C   UNL     1       0.896   7.480  21.155  0.00  0.00    +0.000 A 
ATOM      6  C   UNL     1       1.105   8.605  20.342  0.00  0.00    +0.000 A 
ATOM      7  C   UNL     1       1.940   8.458  19.227  0.00  0.00    +0.000 A 
ATOM      8  C   UNL     1       2.568   7.244  18.997  0.00  0.00    +0.000 A 
ATOM      9  C   UNL     1       3.486   6.986  17.847  0.00  0.00    +0.000 C 
ENDROOT
BRANCH   1  11
ATOM     10  C   UNL     1       3.832   3.873  16.635  0.00  0.00    +0.000 C 
ATOM     11  N   UNL     1       4.698   4.901  17.197  0.00  0.00    +0.000 N 
ATOM     12  C   UNL     1       6.078   4.982  16.833  0.00  0.00    +0.000 C 
ATOM     13  O   UNL     1       6.606   4.161  16.122  0.00  0.00    +0.000 OA
BRANCH  12  14
ATOM     14  C   UNL     1       6.935   6.094  17.416  0.00  0.00    +0.000 A 
ATOM     15  C   UNL     1       7.679   5.864  18.564  0.00  0.00    +0.000 A 
ATOM     16  C   UNL     1       8.387   6.936  19.129  0.00  0.00    +0.000 A 
ATOM     17  C   UNL     1       8.379   8.199  18.531  0.00  0.00    +0.000 A 
ATOM     18  C   UNL     1       7.642   8.314  17.359  0.00  0.00    +0.000 A 
ATOM     19  N   UNL     1       6.947   7.296  16.791  0.00  0.00    +0.000 NA
BRANCH  17  20
ATOM     20  O   UNL     1       9.017   9.320  19.005  0.00  0.00    +0.000 OA
BRANCH  20  21
ATOM     21  C   UNL     1       8.952  10.456  18.124  0.00  0.00    +0.000 C 
BRANCH  21  22
ATOM     22  C   UNL     1      10.302  11.058  17.847  0.00  0.00    +0.000 C 
ATOM     23  C   UNL     1      10.544  12.566  17.915  0.00  0.00    +0.000 C 
ATOM     24  C   UNL     1      11.173  11.650  18.933  0.00  0.00    +0.000 C 
ENDBRANCH  21  22
ENDBRANCH  20  21
ENDBRANCH  17  20
ENDBRANCH  12  14
ENDBRANCH   1  11
BRANCH   6  25
ATOM     25  C   UNL     1       0.443   9.950  20.613  0.00  0.00    +0.000 C 
BRANCH  25  26
ATOM     26  N   UNL     1       0.358  10.868  19.452  0.00  0.00    +0.000 NA
ATOM     27  C   UNL     1      -1.038  11.185  19.103  0.00  0.00    +0.000 C 
ATOM     28  C   UNL     1      -1.198  12.311  18.079  0.00  0.00    +0.000 C 
ATOM     29  C   UNL     1      -0.379  13.536  18.455  0.00  0.00    +0.000 C 
ATOM     30  C   UNL     1       1.081  13.142  18.598  0.00  0.00    +0.000 C 
ATOM     31  C   UNL     1       1.267  12.018  19.621  0.00  0.00    +0.000 C 
ENDBRANCH  25  26
ENDBRANCH   6  25
TORSDOF 7
ENDMDL
MODEL 6
REMARK VINA RESULT:      -8.1      0.956      1.106
REMARK  Name = 
REMARK  8 active torsions:
REMARK  status: ('A' for Active; 'I' for Inactive)
REMARK    1  A    between atoms: C_1  and  N_2
REMARK    2  A    between atoms: N_2  and  C_16
REMARK    3  A    between atoms: C_3  and  C_5
REMARK    4  A    between atoms: C_8  and  O_9
REMARK    5  A    between atoms: O_9  and  C_10
REMARK    6  A    between atoms: C_10  and  C_11
REMARK    7  A    between atoms: C_21  and  C_22
REMARK    8  A    between atoms: C_22  and  N_23
REMARK                            x       y       z     vdW  Elec       q    Type
REMARK                         _______ _______ _______ _____ _____    ______ ____
ROOT
ATOM      1  C   UNL     1       2.972   6.300  18.774  0.00  0.00    +0.000 C 
ATOM      2  C   UNL     1       2.155   6.150  20.091  0.00  0.00    +0.000 C 
ATOM      3  C   UNL     1       1.678   7.549  20.324  0.00  0.00    +0.000 A 
ATOM      4  C   UNL     1       1.124   8.147  21.453  0.00  0.00    +0.000 A 
ATOM      5  C   UNL     1       0.733   9.501  21.367  0.00  0.00    +0.000 A 
ATOM      6  C   UNL     1       0.878  10.249  20.188  0.00  0.00    +0.000 A 
ATOM      7  C   UNL     1       1.393   9.596  19.061  0.00  0.00    +0.000 A 
ATOM      8  C   UNL     1       1.790   8.271  19.158  0.00  0.00    +0.000 A 
ATOM      9  C   UNL     1       2.362   7.488  18.023  0.00  0.00    +0.000 C 
ENDROOT
BRANCH   1  11
ATOM     10  C   UNL     1       1.913   4.316  17.683  0.00  0.00    +0.000 C 
ATOM     11  N   UNL     1       3.112   5.107  17.932  0.00  0.00    +0.000 N 
ATOM     12  C   UNL     1       4.405   4.622  17.563  0.00  0.00    +0.000 C 
ATOM     13  O   UNL     1       4.573   3.514  17.115  0.00  0.00    +0.000 OA
BRANCH  12  14
ATOM     14  C   UNL     1       5.623   5.497  17.808  0.00  0.00    +0.000 A 
ATOM     15  C   UNL     1       6.535   5.152  18.795  0.00  0.00    +0.000 A 
ATOM     16  C   UNL     1       7.600   6.028  19.059  0.00  0.00    +0.000 A 
ATOM     17  C   UNL     1       7.765   7.203  18.321  0.00  0.00    +0.000 A 
ATOM     18  C   UNL     1       6.825   7.434  17.324  0.00  0.00    +0.000 A 
ATOM     19  N   UNL     1       5.786   6.607  17.048  0.00  0.00    +0.000 NA
BRANCH  17  20
ATOM     20  O   UNL     1       8.754   8.139  18.506  0.00  0.00    +0.000 OA
BRANCH  20  21
ATOM     21  C   UNL     1       8.384   9.476  18.122  0.00  0.00    +0.000 C 
BRANCH  21  22
ATOM     22  C   UNL     1       9.465  10.484  18.403  0.00  0.00    +0.000 C 
ATOM     23  C   UNL     1       9.143  11.915  18.834  0.00  0.00    +0.000 C 
ATOM     24  C   UNL     1       9.796  10.960  19.800  0.00  0.00    +0.000 C 
ENDBRANCH  21  22
ENDBRANCH  20  21
ENDBRANCH  17  20
ENDBRANCH  12  14
ENDBRANCH   1  11
BRANCH   6  25
ATOM     25  C   UNL     1       0.475  11.714  20.088  0.00  0.00    +0.000 C 
BRANCH  25  26
ATOM     26  N   UNL     1      -0.311  12.242  21.229  0.00  0.00    +0.000 NA
ATOM     27  C   UNL     1       0.226  13.522  21.722  0.00  0.00    +0.000 C 
ATOM     28  C   UNL     1      -0.671  14.243  22.731  0.00  0.00    +0.000 C 
ATOM     29  C   UNL     1      -2.107  14.342  22.239  0.00  0.00    +0.000 C 
ATOM     30  C   UNL     1      -2.637  12.950  21.946  0.00  0.00    +0.000 C 
ATOM     31  C   UNL     1      -1.756  12.209  20.935  0.00  0.00    +0.000 C 
ENDBRANCH  25  26
ENDBRANCH   6  25
TORSDOF 7
ENDMDL
MODEL 7
REMARK VINA RESULT:      -8.0      1.621      2.128
REMARK  Name = 
REMARK  8 active torsions:
REMARK  status: ('A' for Active; 'I' for Inactive)
REMARK    1  A    between atoms: C_1  and  N_2
REMARK    2  A    between atoms: N_2  and  C_16
REMARK    3  A    between atoms: C_3  and  C_5
REMARK    4  A    between atoms: C_8  and  O_9
REMARK    5  A    between atoms: O_9  and  C_10
REMARK    6  A    between atoms: C_10  and  C_11
REMARK    7  A    between atoms: C_21  and  C_22
REMARK    8  A    between atoms: C_22  and  N_23
REMARK                            x       y       z     vdW  Elec       q    Type
REMARK                         _______ _______ _______ _____ _____    ______ ____
ROOT
ATOM      1  C   UNL     1       4.225   5.837  18.770  0.00  0.00    +0.000 C 
ATOM      2  C   UNL     1       3.200   5.428  19.869  0.00  0.00    +0.000 C 
ATOM      3  C   UNL     1       2.365   6.664  19.993  0.00  0.00    +0.000 A 
ATOM      4  C   UNL     1       1.452   7.054  20.970  0.00  0.00    +0.000 A 
ATOM      5  C   UNL     1       0.779   8.284  20.801  0.00  0.00    +0.000 A 
ATOM      6  C   UNL     1       0.996   9.109  19.686  0.00  0.00    +0.000 A 
ATOM      7  C   UNL     1       1.884   8.657  18.703  0.00  0.00    +0.000 A 
ATOM      8  C   UNL     1       2.554   7.457  18.884  0.00  0.00    +0.000 A 
ATOM      9  C   UNL     1       3.529   6.892  17.905  0.00  0.00    +0.000 C 
ENDROOT
BRANCH   1  11
ATOM     10  C   UNL     1       4.045   3.538  17.806  0.00  0.00    +0.000 C 
ATOM     11  N   UNL     1       4.824   4.757  17.978  0.00  0.00    +0.000 N 
ATOM     12  C   UNL     1       6.198   4.815  17.587  0.00  0.00    +0.000 C 
ATOM     13  O   UNL     1       6.794   3.846  17.184  0.00  0.00    +0.000 OA
BRANCH  12  14
ATOM     14  C   UNL     1       6.961   6.120  17.752  0.00  0.00    +0.000 A 
ATOM     15  C   UNL     1       7.847   6.274  18.809  0.00  0.00    +0.000 A 
ATOM     16  C   UNL     1       8.467   7.521  18.986  0.00  0.00    +0.000 A 
ATOM     17  C   UNL     1       8.232   8.575  18.099  0.00  0.00    +0.000 A 
ATOM     18  C   UNL     1       7.365   8.304  17.046  0.00  0.00    +0.000 A 
ATOM     19  N   UNL     1       6.751   7.110  16.851  0.00  0.00    +0.000 NA
BRANCH  17  20
ATOM     20  O   UNL     1       8.767   9.838  18.186  0.00  0.00    +0.000 OA
BRANCH  20  21
ATOM     21  C   UNL     1       9.364  10.141  19.460  0.00  0.00    +0.000 C 
BRANCH  21  22
ATOM     22  C   UNL     1       9.960  11.521  19.511  0.00  0.00    +0.000 C 
ATOM     23  C   UNL     1      10.477  12.130  20.814  0.00  0.00    +0.000 C 
ATOM     24  C   UNL     1      11.439  11.766  19.713  0.00  0.00    +0.000 C 
ENDBRANCH  21  22
ENDBRANCH  20  21
ENDBRANCH  17  20
ENDBRANCH  12  14
ENDBRANCH   1  11
BRANCH   6  25
ATOM     25  C   UNL     1       0.287  10.445  19.503  0.00  0.00    +0.000 C 
BRANCH  25  26
ATOM     26  N   UNL     1      -1.114  10.368  19.023  0.00  0.00    +0.000 NA
ATOM     27  C   UNL     1      -1.848  11.623  19.263  0.00  0.00    +0.000 C 
ATOM     28  C   UNL     1      -3.214  11.701  18.578  0.00  0.00    +0.000 C 
ATOM     29  C   UNL     1      -3.132  11.323  17.107  0.00  0.00    +0.000 C 
ATOM     30  C   UNL     1      -2.543   9.929  16.977  0.00  0.00    +0.000 C 
ATOM     31  C   UNL     1      -1.173   9.826  17.652  0.00  0.00    +0.000 C 
ENDBRANCH  25  26
ENDBRANCH   6  25
TORSDOF 7
ENDMDL
MODEL 8
REMARK VINA RESULT:      -7.9      3.991     10.539
REMARK  Name = 
REMARK  8 active torsions:
REMARK  status: ('A' for Active; 'I' for Inactive)
REMARK    1  A    between atoms: C_1  and  N_2
REMARK    2  A    between atoms: N_2  and  C_16
REMARK    3  A    between atoms: C_3  and  C_5
REMARK    4  A    between atoms: C_8  and  O_9
REMARK    5  A    between atoms: O_9  and  C_10
REMARK    6  A    between atoms: C_10  and  C_11
REMARK    7  A    between atoms: C_21  and  C_22
REMARK    8  A    between atoms: C_22  and  N_23
REMARK                            x       y       z     vdW  Elec       q    Type
REMARK                         _______ _______ _______ _____ _____    ______ ____
ROOT
ATOM      1  C   UNL     1       0.843  10.692  18.756  0.00  0.00    +0.000 C 
ATOM      2  C   UNL     1       0.921  10.059  20.177  0.00  0.00    +0.000 C 
ATOM      3  C   UNL     1       1.450   8.690  19.880  0.00  0.00    +0.000 A 
ATOM      4  C   UNL     1       1.504   7.544  20.668  0.00  0.00    +0.000 A 
ATOM      5  C   UNL     1       2.099   6.385  20.121  0.00  0.00    +0.000 A 
ATOM      6  C   UNL     1       2.636   6.362  18.824  0.00  0.00    +0.000 A 
ATOM      7  C   UNL     1       2.606   7.549  18.083  0.00  0.00    +0.000 A 
ATOM      8  C   UNL     1       2.006   8.677  18.622  0.00  0.00    +0.000 A 
ATOM      9  C   UNL     1       1.909   9.988  17.913  0.00  0.00    +0.000 C 
ENDROOT
BRANCH   1  11
ATOM     10  C   UNL     1       2.236  12.766  18.830  0.00  0.00    +0.000 C 
ATOM     11  N   UNL     1       0.923  12.154  18.669  0.00  0.00    +0.000 N 
ATOM     12  C   UNL     1      -0.264  12.950  18.654  0.00  0.00    +0.000 C 
ATOM     13  O   UNL     1      -0.245  14.140  18.858  0.00  0.00    +0.000 OA
BRANCH  12  14
ATOM     14  C   UNL     1      -1.609  12.272  18.447  0.00  0.00    +0.000 A 
ATOM     15  C   UNL     1      -1.855  11.565  17.278  0.00  0.00    +0.000 A 
ATOM     16  C   UNL     1      -3.136  11.029  17.077  0.00  0.00    +0.000 A 
ATOM     17  C   UNL     1      -4.134  11.166  18.046  0.00  0.00    +0.000 A 
ATOM     18  C   UNL     1      -3.774  11.850  19.200  0.00  0.00    +0.000 A 
ATOM     19  N   UNL     1      -2.545  12.380  19.421  0.00  0.00    +0.000 NA
BRANCH  17  20
ATOM     20  O   UNL     1      -5.424  10.700  17.947  0.00  0.00    +0.000 OA
BRANCH  20  21
ATOM     21  C   UNL     1      -6.312  11.197  18.964  0.00  0.00    +0.000 C 
BRANCH  21  22
ATOM     22  C   UNL     1      -7.372  12.113  18.416  0.00  0.00    +0.000 C 
ATOM     23  C   UNL     1      -7.359  13.617  18.688  0.00  0.00    +0.000 C 
ATOM     24  C   UNL     1      -7.106  13.095  17.298  0.00  0.00    +0.000 C 
ENDBRANCH  21  22
ENDBRANCH  20  21
ENDBRANCH  17  20
ENDBRANCH  12  14
ENDBRANCH   1  11
BRANCH   6  25
ATOM     25  C   UNL     1       3.265   5.113  18.218  0.00  0.00    +0.000 C 
BRANCH  25  26
ATOM     26  N   UNL     1       4.487   5.339  17.409  0.00  0.00    +0.000 NA
ATOM     27  C   UNL     1       5.635   5.733  18.243  0.00  0.00    +0.000 C 
ATOM     28  C   UNL     1       6.979   5.744  17.513  0.00  0.00    +0.000 C 
ATOM     29  C   UNL     1       7.212   4.455  16.739  0.00  0.00    +0.000 C 
ATOM     30  C   UNL     1       6.069   4.241  15.762  0.00  0.00    +0.000 C 
ATOM     31  C   UNL     1       4.712   4.223  16.471  0.00  0.00    +0.000 C 
ENDBRANCH  25  26
ENDBRANCH   6  25
TORSDOF 7
ENDMDL
MODEL 9
REMARK VINA RESULT:      -7.9      1.663      2.204
REMARK  Name = 
REMARK  8 active torsions:
REMARK  status: ('A' for Active; 'I' for Inactive)
REMARK    1  A    between atoms: C_1  and  N_2
REMARK    2  A    between atoms: N_2  and  C_16
REMARK    3  A    between atoms: C_3  and  C_5
REMARK    4  A    between atoms: C_8  and  O_9
REMARK    5  A    between atoms: O_9  and  C_10
REMARK    6  A    between atoms: C_10  and  C_11
REMARK    7  A    between atoms: C_21  and  C_22
REMARK    8  A    between atoms: C_22  and  N_23
REMARK                            x       y       z     vdW  Elec       q    Type
REMARK                         _______ _______ _______ _____ _____    ______ ____
ROOT
ATOM      1  C   UNL     1       3.863   6.363  18.302  0.00  0.00    +0.000 C 
ATOM      2  C   UNL     1       2.966   5.968  19.512  0.00  0.00    +0.000 C 
ATOM      3  C   UNL     1       2.178   7.220  19.738  0.00  0.00    +0.000 A 
ATOM      4  C   UNL     1       1.394   7.622  20.817  0.00  0.00    +0.000 A 
ATOM      5  C   UNL     1       0.732   8.867  20.734  0.00  0.00    +0.000 A 
ATOM      6  C   UNL     1       0.835   9.695  19.605  0.00  0.00    +0.000 A 
ATOM      7  C   UNL     1       1.592   9.232  18.522  0.00  0.00    +0.000 A 
ATOM      8  C   UNL     1       2.253   8.016  18.618  0.00  0.00    +0.000 A 
ATOM      9  C   UNL     1       3.094   7.438  17.529  0.00  0.00    +0.000 C 
ENDROOT
BRANCH   1  11
ATOM     10  C   UNL     1       3.368   4.284  17.005  0.00  0.00    +0.000 C 
ATOM     11  N   UNL     1       4.343   5.276  17.441  0.00  0.00    +0.000 N 
ATOM     12  C   UNL     1       5.742   5.078  17.228  0.00  0.00    +0.000 C 
ATOM     13  O   UNL     1       6.184   4.055  16.763  0.00  0.00    +0.000 OA
BRANCH  12  14
ATOM     14  C   UNL     1       6.720   6.157  17.666  0.00  0.00    +0.000 A 
ATOM     15  C   UNL     1       7.583   5.919  18.726  0.00  0.00    +0.000 A 
ATOM     16  C   UNL     1       8.408   6.966  19.165  0.00  0.00    +0.000 A 
ATOM     17  C   UNL     1       8.395   8.209  18.528  0.00  0.00    +0.000 A 
ATOM     18  C   UNL     1       7.530   8.331  17.447  0.00  0.00    +0.000 A 
ATOM     19  N   UNL     1       6.720   7.338  17.002  0.00  0.00    +0.000 NA
BRANCH  17  20
ATOM     20  O   UNL     1       9.142   9.306  18.884  0.00  0.00    +0.000 OA
BRANCH  20  21
ATOM     21  C   UNL     1       8.895  10.477  18.084  0.00  0.00    +0.000 C 
BRANCH  21  22
ATOM     22  C   UNL     1      10.102  11.366  17.961  0.00  0.00    +0.000 C 
ATOM     23  C   UNL     1      10.222  12.677  18.738  0.00  0.00    +0.000 C 
ATOM     24  C   UNL     1      11.124  11.515  19.066  0.00  0.00    +0.000 C 
ENDBRANCH  21  22
ENDBRANCH  20  21
ENDBRANCH  17  20
ENDBRANCH  12  14
ENDBRANCH   1  11
BRANCH   6  25
ATOM     25  C   UNL     1       0.139  11.047  19.512  0.00  0.00    +0.000 C 
BRANCH  25  26
ATOM     26  N   UNL     1       1.034  12.222  19.382  0.00  0.00    +0.000 NA
ATOM     27  C   UNL     1       0.370  13.347  18.701  0.00  0.00    +0.000 C 
ATOM     28  C   UNL     1       1.144  14.667  18.751  0.00  0.00    +0.000 C 
ATOM     29  C   UNL     1       1.600  15.001  20.163  0.00  0.00    +0.000 C 
ATOM     30  C   UNL     1       2.445  13.861  20.703  0.00  0.00    +0.000 C 
ATOM     31  C   UNL     1       1.690  12.529  20.668  0.00  0.00    +0.000 C 
ENDBRANCH  25  26
ENDBRANCH   6  25
TORSDOF 7
ENDMDL
