MODEL 1
REMARK VINA RESULT:      -7.1      0.000      0.000
REMARK  Name = 
REMARK  6 active torsions:
REMARK  status: ('A' for Active; 'I' for Inactive)
REMARK    1  A    between atoms: C_1  and  C_2
REMARK    2  A    between atoms: C_2  and  C_3
REMARK    3  A    between atoms: C_2  and  N_4
REMARK    4  A    between atoms: C_16  and  C_17
REMARK    5  A    between atoms: C_26  and  C_27
REMARK    6  A    between atoms: C_27  and  O_29
REMARK                            x       y       z     vdW  Elec       q    Type
REMARK                         _______ _______ _______ _____ _____    ______ ____
ROOT
ATOM      1  N   UNL     1       2.353  14.367  20.643  0.00  0.00    +0.000 NA
ATOM      2  C   UNL     1       1.531  15.636  20.462  0.00  0.00    +0.000 C 
ATOM      3  C   UNL     1       0.259  14.626  20.509  0.00  0.00    +0.000 C 
ATOM      4  C   UNL     1       0.003  14.547  22.027  0.00  0.00    +0.000 C 
ATOM      5  O   UNL     1      -1.237  15.192  22.331  0.00  0.00    +0.000 OA
ATOM      6  C   UNL     1      -2.110  14.334  22.937  0.00  0.00    +0.000 A 
ATOM      7  C   UNL     1      -2.578  14.745  24.190  0.00  0.00    +0.000 A 
ATOM      8  C   UNL     1      -3.477  13.953  24.896  0.00  0.00    +0.000 A 
ATOM      9  C   UNL     1      -3.967  12.788  24.316  0.00  0.00    +0.000 A 
ATOM     10  C   UNL     1      -3.507  12.390  23.048  0.00  0.00    +0.000 A 
ATOM     11  C   UNL     1      -2.522  13.125  22.366  0.00  0.00    +0.000 A 
ATOM     12  C   UNL     1      -1.931  12.548  21.148  0.00  0.00    +0.000 A 
ATOM     13  C   UNL     1      -1.059  11.465  20.931  0.00  0.00    +0.000 A 
ATOM     14  C   UNL     1      -1.296  11.120  19.532  0.00  0.00    +0.000 A 
ATOM     15  C   UNL     1      -0.969  10.044  18.697  0.00  0.00    +0.000 A 
ATOM     16  C   UNL     1      -1.609   9.899  17.449  0.00  0.00    +0.000 A 
ATOM     17  C   UNL     1      -2.525  10.844  17.028  0.00  0.00    +0.000 A 
ATOM     18  C   UNL     1      -2.714  12.046  17.735  0.00  0.00    +0.000 A 
ATOM     19  C   UNL     1      -2.034  12.169  18.976  0.00  0.00    +0.000 A 
ATOM     20  N   UNL     1      -1.873  13.201  19.912  0.00  0.00    +0.000 N 
ATOM     21  C   UNL     1      -1.068  14.471  19.683  0.00  0.00    +0.000 C 
ATOM     22  C   UNL     1       1.339  13.749  19.755  0.00  0.00    +0.000 C 
ENDROOT
BRANCH  13  23
ATOM     23  C   UNL     1      -0.053  10.810  21.895  0.00  0.00    +0.000 C 
ATOM     24  C   UNL     1      -0.489   9.581  22.713  0.00  0.00    +0.000 C 
ATOM     25  C   UNL     1      -0.357   8.237  22.001  0.00  0.00    +0.000 C 
ATOM     26  C   UNL     1       0.935   8.056  21.216  0.00  0.00    +0.000 C 
ATOM     27  C   UNL     1       1.327   9.298  20.426  0.00  0.00    +0.000 C 
ATOM     28  C   UNL     1       1.345  10.507  21.346  0.00  0.00    +0.000 C 
ENDBRANCH  13  23
BRANCH   1  30
ATOM     29  C   UNL     1       3.577  14.359  18.520  0.00  0.00    +0.000 C 
ATOM     30  C   UNL     1       3.695  14.395  20.052  0.00  0.00    +0.000 C 
ATOM     31  C   UNL     1       4.418  15.706  20.419  0.00  0.00    +0.000 C 
ENDBRANCH   1  30
BRANCH  17  32
ATOM     32  C   UNL     1      -3.267  10.486  15.771  0.00  0.00    +0.000 C 
ATOM     33  O   UNL     1      -2.765   9.854  14.858  0.00  0.00    +0.000 OA
BRANCH  32  34
ATOM     34  O   UNL     1      -4.574  10.825  15.805  0.00  0.00    +0.000 OA
ATOM     35  H   UNL     1      -4.755  11.701  16.191  0.00  0.00    +0.000 HD
ENDBRANCH  32  34
ENDBRANCH  17  32
TORSDOF 4
ENDMDL
MODEL 2
REMARK VINA RESULT:      -7.0      6.861     11.655
REMARK  Name = 
REMARK  6 active torsions:
REMARK  status: ('A' for Active; 'I' for Inactive)
REMARK    1  A    between atoms: C_1  and  C_2
REMARK    2  A    between atoms: C_2  and  C_3
REMARK    3  A    between atoms: C_2  and  N_4
REMARK    4  A    between atoms: C_16  and  C_17
REMARK    5  A    between atoms: C_26  and  C_27
REMARK    6  A    between atoms: C_27  and  O_29
REMARK                            x       y       z     vdW  Elec       q    Type
REMARK                         _______ _______ _______ _____ _____    ______ ____
ROOT
ATOM      1  N   UNL     1       4.921  15.188  18.942  0.00  0.00    +0.000 NA
ATOM      2  C   UNL     1       5.160  16.690  19.005  0.00  0.00    +0.000 C 
ATOM      3  C   UNL     1       6.590  16.273  19.656  0.00  0.00    +0.000 C 
ATOM      4  C   UNL     1       7.445  16.082  18.387  0.00  0.00    +0.000 C 
ATOM      5  O   UNL     1       8.432  17.114  18.323  0.00  0.00    +0.000 OA
ATOM      6  C   UNL     1       9.695  16.595  18.298  0.00  0.00    +0.000 A 
ATOM      7  C   UNL     1      10.473  16.970  17.197  0.00  0.00    +0.000 A 
ATOM      8  C   UNL     1      11.778  16.506  17.071  0.00  0.00    +0.000 A 
ATOM      9  C   UNL     1      12.331  15.730  18.083  0.00  0.00    +0.000 A 
ATOM     10  C   UNL     1      11.550  15.371  19.196  0.00  0.00    +0.000 A 
ATOM     11  C   UNL     1      10.198  15.746  19.290  0.00  0.00    +0.000 A 
ATOM     12  C   UNL     1       9.380  15.166  20.368  0.00  0.00    +0.000 A 
ATOM     13  C   UNL     1       8.881  13.870  20.594  0.00  0.00    +0.000 A 
ATOM     14  C   UNL     1       8.631  13.855  22.033  0.00  0.00    +0.000 A 
ATOM     15  C   UNL     1       8.351  12.872  22.991  0.00  0.00    +0.000 A 
ATOM     16  C   UNL     1       8.446  13.176  24.364  0.00  0.00    +0.000 A 
ATOM     17  C   UNL     1       8.770  14.458  24.767  0.00  0.00    +0.000 A 
ATOM     18  C   UNL     1       8.840  15.519  23.846  0.00  0.00    +0.000 A 
ATOM     19  C   UNL     1       8.716  15.180  22.472  0.00  0.00    +0.000 A 
ATOM     20  N   UNL     1       8.631  15.914  21.281  0.00  0.00    +0.000 N 
ATOM     21  C   UNL     1       7.448  16.780  20.869  0.00  0.00    +0.000 C 
ATOM     22  C   UNL     1       5.631  15.160  20.243  0.00  0.00    +0.000 C 
ENDROOT
BRANCH  13  23
ATOM     23  C   UNL     1       8.607  12.737  19.589  0.00  0.00    +0.000 C 
ATOM     24  C   UNL     1       8.672  13.041  18.080  0.00  0.00    +0.000 C 
ATOM     25  C   UNL     1      10.063  12.971  17.456  0.00  0.00    +0.000 C 
ATOM     26  C   UNL     1      10.905  11.784  17.906  0.00  0.00    +0.000 C 
ATOM     27  C   UNL     1      10.806  11.521  19.402  0.00  0.00    +0.000 C 
ATOM     28  C   UNL     1       9.346  11.414  19.809  0.00  0.00    +0.000 C 
ENDBRANCH  13  23
BRANCH   1  30
ATOM     29  C   UNL     1       2.614  15.883  18.498  0.00  0.00    +0.000 C 
ATOM     30  C   UNL     1       3.520  14.767  19.041  0.00  0.00    +0.000 C 
ATOM     31  C   UNL     1       3.269  13.518  18.173  0.00  0.00    +0.000 C 
ENDBRANCH   1  30
BRANCH  17  32
ATOM     32  C   UNL     1       9.015  14.611  26.242  0.00  0.00    +0.000 C 
ATOM     33  O   UNL     1       8.941  15.678  26.824  0.00  0.00    +0.000 OA
BRANCH  32  34
ATOM     34  O   UNL     1       9.204  13.433  26.877  0.00  0.00    +0.000 OA
ATOM     35  H   UNL     1       8.541  12.750  26.670  0.00  0.00    +0.000 HD
ENDBRANCH  32  34
ENDBRANCH  17  32
TORSDOF 4
ENDMDL
MODEL 3
REMARK VINA RESULT:      -6.9      2.670      5.953
REMARK  Name = 
REMARK  6 active torsions:
REMARK  status: ('A' for Active; 'I' for Inactive)
REMARK    1  A    between atoms: C_1  and  C_2
REMARK    2  A    between atoms: C_2  and  C_3
REMARK    3  A    between atoms: C_2  and  N_4
REMARK    4  A    between atoms: C_16  and  C_17
REMARK    5  A    between atoms: C_26  and  C_27
REMARK    6  A    between atoms: C_27  and  O_29
REMARK                            x       y       z     vdW  Elec       q    Type
REMARK                         _______ _______ _______ _____ _____    ______ ____
ROOT
ATOM      1  N   UNL     1      -0.389  16.137  18.252  0.00  0.00    +0.000 NA
ATOM      2  C   UNL     1       0.904  16.080  19.053  0.00  0.00    +0.000 C 
ATOM      3  C   UNL     1       0.320  14.661  19.590  0.00  0.00    +0.000 C 
ATOM      4  C   UNL     1       0.829  13.701  18.496  0.00  0.00    +0.000 C 
ATOM      5  O   UNL     1       1.826  12.839  19.050  0.00  0.00    +0.000 OA
ATOM      6  C   UNL     1       1.472  11.525  18.930  0.00  0.00    +0.000 A 
ATOM      7  C   UNL     1       2.387  10.720  18.244  0.00  0.00    +0.000 A 
ATOM      8  C   UNL     1       2.133   9.364  18.067  0.00  0.00    +0.000 A 
ATOM      9  C   UNL     1       1.001   8.798  18.642  0.00  0.00    +0.000 A 
ATOM     10  C   UNL     1       0.093   9.610  19.347  0.00  0.00    +0.000 A 
ATOM     11  C   UNL     1       0.282  10.999  19.447  0.00  0.00    +0.000 A 
ATOM     12  C   UNL     1      -0.803  11.818  20.011  0.00  0.00    +0.000 A 
ATOM     13  C   UNL     1      -2.075  12.178  19.529  0.00  0.00    +0.000 A 
ATOM     14  C   UNL     1      -2.806  12.526  20.744  0.00  0.00    +0.000 A 
ATOM     15  C   UNL     1      -4.148  12.757  21.075  0.00  0.00    +0.000 A 
ATOM     16  C   UNL     1      -4.546  12.796  22.426  0.00  0.00    +0.000 A 
ATOM     17  C   UNL     1      -3.605  12.653  23.428  0.00  0.00    +0.000 A 
ATOM     18  C   UNL     1      -2.227  12.641  23.142  0.00  0.00    +0.000 A 
ATOM     19  C   UNL     1      -1.861  12.628  21.770  0.00  0.00    +0.000 A 
ATOM     20  N   UNL     1      -0.647  12.713  21.074  0.00  0.00    +0.000 N 
ATOM     21  C   UNL     1       0.228  13.956  20.990  0.00  0.00    +0.000 C 
ATOM     22  C   UNL     1      -1.000  15.523  19.455  0.00  0.00    +0.000 C 
ENDROOT
BRANCH  13  23
ATOM     23  C   UNL     1      -2.590  12.246  18.080  0.00  0.00    +0.000 C 
ATOM     24  C   UNL     1      -1.773  11.573  16.961  0.00  0.00    +0.000 C 
ATOM     25  C   UNL     1      -2.037  10.083  16.760  0.00  0.00    +0.000 C 
ATOM     26  C   UNL     1      -3.505   9.685  16.807  0.00  0.00    +0.000 C 
ATOM     27  C   UNL     1      -4.273  10.377  17.925  0.00  0.00    +0.000 C 
ATOM     28  C   UNL     1      -4.058  11.879  17.842  0.00  0.00    +0.000 C 
ENDBRANCH  13  23
BRANCH   1  30
ATOM     29  C   UNL     1      -1.883  17.896  19.075  0.00  0.00    +0.000 C 
ATOM     30  C   UNL     1      -0.898  17.483  17.971  0.00  0.00    +0.000 C 
ATOM     31  C   UNL     1       0.253  18.508  17.985  0.00  0.00    +0.000 C 
ENDBRANCH   1  30
BRANCH  17  32
ATOM     32  C   UNL     1      -4.175  12.533  24.814  0.00  0.00    +0.000 C 
ATOM     33  O   UNL     1      -3.756  13.168  25.765  0.00  0.00    +0.000 OA
BRANCH  32  34
ATOM     34  O   UNL     1      -5.271  11.745  24.875  0.00  0.00    +0.000 OA
ATOM     35  H   UNL     1      -6.117  12.225  24.837  0.00  0.00    +0.000 HD
ENDBRANCH  32  34
ENDBRANCH  17  32
TORSDOF 4
ENDMDL
MODEL 4
REMARK VINA RESULT:      -6.8      2.704      5.455
REMARK  Name = 
REMARK  6 active torsions:
REMARK  status: ('A' for Active; 'I' for Inactive)
REMARK    1  A    between atoms: C_1  and  C_2
REMARK    2  A    between atoms: C_2  and  C_3
REMARK    3  A    between atoms: C_2  and  N_4
REMARK    4  A    between atoms: C_16  and  C_17
REMARK    5  A    between atoms: C_26  and  C_27
REMARK    6  A    between atoms: C_27  and  O_29
REMARK                            x       y       z     vdW  Elec       q    Type
REMARK                         _______ _______ _______ _____ _____    ______ ____
ROOT
ATOM      1  N   UNL     1      -0.489  16.096  19.691  0.00  0.00    +0.000 NA
ATOM      2  C   UNL     1       0.268  16.042  21.010  0.00  0.00    +0.000 C 
ATOM      3  C   UNL     1      -0.592  14.686  21.263  0.00  0.00    +0.000 C 
ATOM      4  C   UNL     1       0.307  13.637  20.580  0.00  0.00    +0.000 C 
ATOM      5  O   UNL     1       0.867  12.775  21.575  0.00  0.00    +0.000 OA
ATOM      6  C   UNL     1       0.525  11.471  21.354  0.00  0.00    +0.000 A 
ATOM      7  C   UNL     1       1.600  10.587  21.215  0.00  0.00    +0.000 A 
ATOM      8  C   UNL     1       1.370   9.233  20.994  0.00  0.00    +0.000 A 
ATOM      9  C   UNL     1       0.066   8.751  20.987  0.00  0.00    +0.000 A 
ATOM     10  C   UNL     1      -1.011   9.643  21.145  0.00  0.00    +0.000 A 
ATOM     11  C   UNL     1      -0.799  11.027  21.267  0.00  0.00    +0.000 A 
ATOM     12  C   UNL     1      -1.966  11.924  21.216  0.00  0.00    +0.000 A 
ATOM     13  C   UNL     1      -2.835  12.301  20.176  0.00  0.00    +0.000 A 
ATOM     14  C   UNL     1      -4.027  12.757  20.886  0.00  0.00    +0.000 A 
ATOM     15  C   UNL     1      -5.348  13.062  20.532  0.00  0.00    +0.000 A 
ATOM     16  C   UNL     1      -6.331  13.207  21.532  0.00  0.00    +0.000 A 
ATOM     17  C   UNL     1      -5.983  13.094  22.865  0.00  0.00    +0.000 A 
ATOM     18  C   UNL     1      -4.637  13.009  23.265  0.00  0.00    +0.000 A 
ATOM     19  C   UNL     1      -3.671  12.890  22.231  0.00  0.00    +0.000 A 
ATOM     20  N   UNL     1      -2.269  12.881  22.190  0.00  0.00    +0.000 N 
ATOM     21  C   UNL     1      -1.378  14.080  22.480  0.00  0.00    +0.000 C 
ATOM     22  C   UNL     1      -1.633  15.588  20.485  0.00  0.00    +0.000 C 
ENDROOT
BRANCH  13  23
ATOM     23  C   UNL     1      -2.602  12.292  18.654  0.00  0.00    +0.000 C 
ATOM     24  C   UNL     1      -1.218  11.893  18.110  0.00  0.00    +0.000 C 
ATOM     25  C   UNL     1      -0.986  10.394  17.939  0.00  0.00    +0.000 C 
ATOM     26  C   UNL     1      -2.155   9.634  17.330  0.00  0.00    +0.000 C 
ATOM     27  C   UNL     1      -3.502  10.064  17.896  0.00  0.00    +0.000 C 
ATOM     28  C   UNL     1      -3.644  11.573  17.792  0.00  0.00    +0.000 C 
ENDBRANCH  13  23
BRANCH   1  30
ATOM     29  C   UNL     1      -0.490  17.421  17.629  0.00  0.00    +0.000 C 
ATOM     30  C   UNL     1      -0.716  17.440  19.149  0.00  0.00    +0.000 C 
ATOM     31  C   UNL     1      -2.176  17.876  19.384  0.00  0.00    +0.000 C 
ENDBRANCH   1  30
BRANCH  17  32
ATOM     32  C   UNL     1      -7.144  13.088  23.819  0.00  0.00    +0.000 C 
ATOM     33  O   UNL     1      -7.916  12.153  23.926  0.00  0.00    +0.000 OA
BRANCH  32  34
ATOM     34  O   UNL     1      -7.175  14.169  24.630  0.00  0.00    +0.000 OA
ATOM     35  H   UNL     1      -7.083  13.966  25.578  0.00  0.00    +0.000 HD
ENDBRANCH  32  34
ENDBRANCH  17  32
TORSDOF 4
ENDMDL
MODEL 5
REMARK VINA RESULT:      -6.8      2.591      5.894
REMARK  Name = 
REMARK  6 active torsions:
REMARK  status: ('A' for Active; 'I' for Inactive)
REMARK    1  A    between atoms: C_1  and  C_2
REMARK    2  A    between atoms: C_2  and  C_3
REMARK    3  A    between atoms: C_2  and  N_4
REMARK    4  A    between atoms: C_16  and  C_17
REMARK    5  A    between atoms: C_26  and  C_27
REMARK    6  A    between atoms: C_27  and  O_29
REMARK                            x       y       z     vdW  Elec       q    Type
REMARK                         _______ _______ _______ _____ _____    ______ ____
ROOT
ATOM      1  N   UNL     1       0.973  10.668  21.486  0.00  0.00    +0.000 NA
ATOM      2  C   UNL     1       0.914  10.539  19.970  0.00  0.00    +0.000 C 
ATOM      3  C   UNL     1      -0.134  11.778  20.066  0.00  0.00    +0.000 C 
ATOM      4  C   UNL     1       0.830  12.981  20.035  0.00  0.00    +0.000 C 
ATOM      5  O   UNL     1       0.659  13.691  18.805  0.00  0.00    +0.000 OA
ATOM      6  C   UNL     1       0.301  14.990  19.025  0.00  0.00    +0.000 A 
ATOM      7  C   UNL     1       1.152  15.948  18.463  0.00  0.00    +0.000 A 
ATOM      8  C   UNL     1       0.882  17.303  18.618  0.00  0.00    +0.000 A 
ATOM      9  C   UNL     1      -0.281  17.700  19.269  0.00  0.00    +0.000 A 
ATOM     10  C   UNL     1      -1.142  16.732  19.816  0.00  0.00    +0.000 A 
ATOM     11  C   UNL     1      -0.831  15.363  19.759  0.00  0.00    +0.000 A 
ATOM     12  C   UNL     1      -1.659  14.420  20.529  0.00  0.00    +0.000 A 
ATOM     13  C   UNL     1      -1.794  14.177  21.908  0.00  0.00    +0.000 A 
ATOM     14  C   UNL     1      -3.102  13.535  22.007  0.00  0.00    +0.000 A 
ATOM     15  C   UNL     1      -3.986  13.217  23.047  0.00  0.00    +0.000 A 
ATOM     16  C   UNL     1      -5.313  12.844  22.756  0.00  0.00    +0.000 A 
ATOM     17  C   UNL     1      -5.732  12.747  21.442  0.00  0.00    +0.000 A 
ATOM     18  C   UNL     1      -4.820  12.841  20.375  0.00  0.00    +0.000 A 
ATOM     19  C   UNL     1      -3.485  13.194  20.706  0.00  0.00    +0.000 A 
ATOM     20  N   UNL     1      -2.286  13.294  19.987  0.00  0.00    +0.000 N 
ATOM     21  C   UNL     1      -1.516  12.118  19.403  0.00  0.00    +0.000 C 
ATOM     22  C   UNL     1      -0.476  10.963  21.378  0.00  0.00    +0.000 C 
ENDROOT
BRANCH  13  23
ATOM     23  C   UNL     1      -0.806  14.461  23.054  0.00  0.00    +0.000 C 
ATOM     24  C   UNL     1       0.337  15.467  22.826  0.00  0.00    +0.000 C 
ATOM     25  C   UNL     1      -0.022  16.933  23.058  0.00  0.00    +0.000 C 
ATOM     26  C   UNL     1      -0.866  17.194  24.297  0.00  0.00    +0.000 C 
ATOM     27  C   UNL     1      -1.980  16.173  24.483  0.00  0.00    +0.000 C 
ATOM     28  C   UNL     1      -1.403  14.768  24.431  0.00  0.00    +0.000 C 
ENDBRANCH  13  23
BRANCH   1  30
ATOM     29  C   UNL     1       0.256   9.276  23.370  0.00  0.00    +0.000 C 
ATOM     30  C   UNL     1       1.256   9.427  22.213  0.00  0.00    +0.000 C 
ATOM     31  C   UNL     1       1.067   8.206  21.290  0.00  0.00    +0.000 C 
ENDBRANCH   1  30
BRANCH  17  32
ATOM     32  C   UNL     1      -7.207  12.518  21.267  0.00  0.00    +0.000 C 
ATOM     33  O   UNL     1      -7.916  13.234  20.583  0.00  0.00    +0.000 OA
BRANCH  32  34
ATOM     34  O   UNL     1      -7.643  11.376  21.842  0.00  0.00    +0.000 OA
ATOM     35  H   UNL     1      -8.471  11.025  21.468  0.00  0.00    +0.000 HD
ENDBRANCH  32  34
ENDBRANCH  17  32
TORSDOF 4
ENDMDL
MODEL 6
REMARK VINA RESULT:      -6.8      2.172      5.296
REMARK  Name = 
REMARK  6 active torsions:
REMARK  status: ('A' for Active; 'I' for Inactive)
REMARK    1  A    between atoms: C_1  and  C_2
REMARK    2  A    between atoms: C_2  and  C_3
REMARK    3  A    between atoms: C_2  and  N_4
REMARK    4  A    between atoms: C_16  and  C_17
REMARK    5  A    between atoms: C_26  and  C_27
REMARK    6  A    between atoms: C_27  and  O_29
REMARK                            x       y       z     vdW  Elec       q    Type
REMARK                         _______ _______ _______ _____ _____    ______ ____
ROOT
ATOM      1  N   UNL     1       0.956  10.385  21.583  0.00  0.00    +0.000 NA
ATOM      2  C   UNL     1       1.476  10.185  20.166  0.00  0.00    +0.000 C 
ATOM      3  C   UNL     1       0.405  11.344  19.781  0.00  0.00    +0.000 C 
ATOM      4  C   UNL     1       1.246  12.613  20.025  0.00  0.00    +0.000 C 
ATOM      5  O   UNL     1       1.512  13.252  18.773  0.00  0.00    +0.000 OA
ATOM      6  C   UNL     1       1.030  14.530  18.754  0.00  0.00    +0.000 A 
ATOM      7  C   UNL     1       1.978  15.522  18.481  0.00  0.00    +0.000 A 
ATOM      8  C   UNL     1       1.599  16.859  18.430  0.00  0.00    +0.000 A 
ATOM      9  C   UNL     1       0.258  17.197  18.575  0.00  0.00    +0.000 A 
ATOM     10  C   UNL     1      -0.694  16.194  18.830  0.00  0.00    +0.000 A 
ATOM     11  C   UNL     1      -0.312  14.850  18.987  0.00  0.00    +0.000 A 
ATOM     12  C   UNL     1      -1.318  13.884  19.460  0.00  0.00    +0.000 A 
ATOM     13  C   UNL     1      -1.947  13.694  20.704  0.00  0.00    +0.000 A 
ATOM     14  C   UNL     1      -3.161  12.962  20.356  0.00  0.00    +0.000 A 
ATOM     15  C   UNL     1      -4.352  12.626  21.013  0.00  0.00    +0.000 A 
ATOM     16  C   UNL     1      -5.453  12.143  20.278  0.00  0.00    +0.000 A 
ATOM     17  C   UNL     1      -5.343  11.955  18.913  0.00  0.00    +0.000 A 
ATOM     18  C   UNL     1      -4.105  12.069  18.256  0.00  0.00    +0.000 A 
ATOM     19  C   UNL     1      -3.011  12.535  19.033  0.00  0.00    +0.000 A 
ATOM     20  N   UNL     1      -1.636  12.690  18.804  0.00  0.00    +0.000 N 
ATOM     21  C   UNL     1      -0.644  11.550  18.630  0.00  0.00    +0.000 C 
ATOM     22  C   UNL     1      -0.361  10.566  20.926  0.00  0.00    +0.000 C 
ENDROOT
BRANCH  13  23
ATOM     23  C   UNL     1      -1.475  14.102  22.112  0.00  0.00    +0.000 C 
ATOM     24  C   UNL     1      -2.165  15.283  22.820  0.00  0.00    +0.000 C 
ATOM     25  C   UNL     1      -3.443  14.938  23.580  0.00  0.00    +0.000 C 
ATOM     26  C   UNL     1      -3.373  13.656  24.397  0.00  0.00    +0.000 C 
ATOM     27  C   UNL     1      -2.681  12.518  23.658  0.00  0.00    +0.000 C 
ATOM     28  C   UNL     1      -1.327  12.985  23.149  0.00  0.00    +0.000 C 
ENDBRANCH  13  23
BRANCH   1  30
ATOM     29  C   UNL     1      -0.142   9.261  23.463  0.00  0.00    +0.000 C 
ATOM     30  C   UNL     1       1.011   9.203  22.448  0.00  0.00    +0.000 C 
ATOM     31  C   UNL     1       0.819   7.918  21.618  0.00  0.00    +0.000 C 
ENDBRANCH   1  30
BRANCH  17  32
ATOM     32  C   UNL     1      -6.632  11.610  18.220  0.00  0.00    +0.000 C 
ATOM     33  O   UNL     1      -7.131  12.305  17.354  0.00  0.00    +0.000 OA
BRANCH  32  34
ATOM     34  O   UNL     1      -7.115  10.396  18.564  0.00  0.00    +0.000 OA
ATOM     35  H   UNL     1      -6.507   9.654  18.393  0.00  0.00    +0.000 HD
ENDBRANCH  32  34
ENDBRANCH  17  32
TORSDOF 4
ENDMDL
MODEL 7
REMARK VINA RESULT:      -6.8      3.247      6.490
REMARK  Name = 
REMARK  6 active torsions:
REMARK  status: ('A' for Active; 'I' for Inactive)
REMARK    1  A    between atoms: C_1  and  C_2
REMARK    2  A    between atoms: C_2  and  C_3
REMARK    3  A    between atoms: C_2  and  N_4
REMARK    4  A    between atoms: C_16  and  C_17
REMARK    5  A    between atoms: C_26  and  C_27
REMARK    6  A    between atoms: C_27  and  O_29
REMARK                            x       y       z     vdW  Elec       q    Type
REMARK                         _______ _______ _______ _____ _____    ______ ____
ROOT
ATOM      1  N   UNL     1      -6.027  13.376  20.923  0.00  0.00    +0.000 NA
ATOM      2  C   UNL     1      -6.397  12.996  22.350  0.00  0.00    +0.000 C 
ATOM      3  C   UNL     1      -4.807  13.170  22.639  0.00  0.00    +0.000 C 
ATOM      4  C   UNL     1      -4.728  14.679  22.946  0.00  0.00    +0.000 C 
ATOM      5  O   UNL     1      -4.409  14.864  24.328  0.00  0.00    +0.000 OA
ATOM      6  C   UNL     1      -3.253  15.576  24.481  0.00  0.00    +0.000 A 
ATOM      7  C   UNL     1      -3.368  16.746  25.239  0.00  0.00    +0.000 A 
ATOM      8  C   UNL     1      -2.254  17.546  25.466  0.00  0.00    +0.000 A 
ATOM      9  C   UNL     1      -1.010  17.137  25.000  0.00  0.00    +0.000 A 
ATOM     10  C   UNL     1      -0.897  15.950  24.255  0.00  0.00    +0.000 A 
ATOM     11  C   UNL     1      -2.029  15.183  23.928  0.00  0.00    +0.000 A 
ATOM     12  C   UNL     1      -1.875  14.074  22.973  0.00  0.00    +0.000 A 
ATOM     13  C   UNL     1      -1.636  14.034  21.587  0.00  0.00    +0.000 A 
ATOM     14  C   UNL     1      -1.084  12.699  21.381  0.00  0.00    +0.000 A 
ATOM     15  C   UNL     1      -0.424  12.037  20.337  0.00  0.00    +0.000 A 
ATOM     16  C   UNL     1       0.234  10.815  20.579  0.00  0.00    +0.000 A 
ATOM     17  C   UNL     1       0.189  10.243  21.837  0.00  0.00    +0.000 A 
ATOM     18  C   UNL     1      -0.643  10.761  22.846  0.00  0.00    +0.000 A 
ATOM     19  C   UNL     1      -1.311  11.981  22.559  0.00  0.00    +0.000 A 
ATOM     20  N   UNL     1      -2.273  12.756  23.222  0.00  0.00    +0.000 N 
ATOM     21  C   UNL     1      -3.726  12.354  23.433  0.00  0.00    +0.000 C 
ATOM     22  C   UNL     1      -4.805  12.573  21.174  0.00  0.00    +0.000 C 
ENDROOT
BRANCH  13  23
ATOM     23  C   UNL     1      -1.920  15.102  20.514  0.00  0.00    +0.000 C 
ATOM     24  C   UNL     1      -2.890  16.253  20.840  0.00  0.00    +0.000 C 
ATOM     25  C   UNL     1      -2.273  17.448  21.562  0.00  0.00    +0.000 C 
ATOM     26  C   UNL     1      -0.918  17.887  21.024  0.00  0.00    +0.000 C 
ATOM     27  C   UNL     1       0.005  16.716  20.714  0.00  0.00    +0.000 C 
ATOM     28  C   UNL     1      -0.710  15.724  19.812  0.00  0.00    +0.000 C 
ENDBRANCH  13  23
BRANCH   1  30
ATOM     29  C   UNL     1      -6.063  12.623  18.592  0.00  0.00    +0.000 C 
ATOM     30  C   UNL     1      -6.883  12.809  19.878  0.00  0.00    +0.000 C 
ATOM     31  C   UNL     1      -7.394  11.416  20.295  0.00  0.00    +0.000 C 
ENDBRANCH   1  30
BRANCH  17  32
ATOM     32  C   UNL     1       1.073   9.040  22.013  0.00  0.00    +0.000 C 
ATOM     33  O   UNL     1       0.945   8.018  21.365  0.00  0.00    +0.000 OA
BRANCH  32  34
ATOM     34  O   UNL     1       2.096   9.250  22.871  0.00  0.00    +0.000 OA
ATOM     35  H   UNL     1       1.969   8.861  23.755  0.00  0.00    +0.000 HD
ENDBRANCH  32  34
ENDBRANCH  17  32
TORSDOF 4
ENDMDL
MODEL 8
REMARK VINA RESULT:      -6.7      3.707      7.029
REMARK  Name = 
REMARK  6 active torsions:
REMARK  status: ('A' for Active; 'I' for Inactive)
REMARK    1  A    between atoms: C_1  and  C_2
REMARK    2  A    between atoms: C_2  and  C_3
REMARK    3  A    between atoms: C_2  and  N_4
REMARK    4  A    between atoms: C_16  and  C_17
REMARK    5  A    between atoms: C_26  and  C_27
REMARK    6  A    between atoms: C_27  and  O_29
REMARK                            x       y       z     vdW  Elec       q    Type
REMARK                         _______ _______ _______ _____ _____    ______ ____
ROOT
ATOM      1  N   UNL     1      -6.887  14.023  20.241  0.00  0.00    +0.000 NA
ATOM      2  C   UNL     1      -7.556  13.651  21.557  0.00  0.00    +0.000 C 
ATOM      3  C   UNL     1      -6.067  13.835  22.182  0.00  0.00    +0.000 C 
ATOM      4  C   UNL     1      -6.063  15.347  22.487  0.00  0.00    +0.000 C 
ATOM      5  O   UNL     1      -6.051  15.542  23.904  0.00  0.00    +0.000 OA
ATOM      6  C   UNL     1      -4.959  16.261  24.299  0.00  0.00    +0.000 A 
ATOM      7  C   UNL     1      -5.240  17.436  25.005  0.00  0.00    +0.000 A 
ATOM      8  C   UNL     1      -4.204  18.243  25.462  0.00  0.00    +0.000 A 
ATOM      9  C   UNL     1      -2.887  17.837  25.280  0.00  0.00    +0.000 A 
ATOM     10  C   UNL     1      -2.611  16.646  24.586  0.00  0.00    +0.000 A 
ATOM     11  C   UNL     1      -3.642  15.871  24.028  0.00  0.00    +0.000 A 
ATOM     12  C   UNL     1      -3.282  14.756  23.137  0.00  0.00    +0.000 A 
ATOM     13  C   UNL     1      -2.747  14.708  21.837  0.00  0.00    +0.000 A 
ATOM     14  C   UNL     1      -2.159  13.374  21.765  0.00  0.00    +0.000 A 
ATOM     15  C   UNL     1      -1.286  12.709  20.894  0.00  0.00    +0.000 A 
ATOM     16  C   UNL     1      -0.692  11.491  21.283  0.00  0.00    +0.000 A 
ATOM     17  C   UNL     1      -1.007  10.928  22.505  0.00  0.00    +0.000 A 
ATOM     18  C   UNL     1      -2.040  11.448  23.306  0.00  0.00    +0.000 A 
ATOM     19  C   UNL     1      -2.633  12.663  22.872  0.00  0.00    +0.000 A 
ATOM     20  N   UNL     1      -3.719  13.438  23.304  0.00  0.00    +0.000 N 
ATOM     21  C   UNL     1      -5.182  13.030  23.198  0.00  0.00    +0.000 C 
ATOM     22  C   UNL     1      -5.746  13.228  20.757  0.00  0.00    +0.000 C 
ENDROOT
BRANCH  13  23
ATOM     23  C   UNL     1      -2.795  15.767  20.719  0.00  0.00    +0.000 C 
ATOM     24  C   UNL     1      -3.846  16.890  20.796  0.00  0.00    +0.000 C 
ATOM     25  C   UNL     1      -3.452  18.103  21.635  0.00  0.00    +0.000 C 
ATOM     26  C   UNL     1      -2.020  18.579  21.434  0.00  0.00    +0.000 C 
ATOM     27  C   UNL     1      -1.018  17.435  21.362  0.00  0.00    +0.000 C 
ATOM     28  C   UNL     1      -1.469  16.423  20.322  0.00  0.00    +0.000 C 
ENDBRANCH  13  23
BRANCH   1  30
ATOM     29  C   UNL     1      -6.865  14.086  17.792  0.00  0.00    +0.000 C 
ATOM     30  C   UNL     1      -7.494  13.446  19.039  0.00  0.00    +0.000 C 
ATOM     31  C   UNL     1      -7.207  11.933  18.963  0.00  0.00    +0.000 C 
ENDBRANCH   1  30
BRANCH  17  32
ATOM     32  C   UNL     1      -0.178   9.731  22.878  0.00  0.00    +0.000 C 
ATOM     33  O   UNL     1       0.489   9.672  23.895  0.00  0.00    +0.000 OA
BRANCH  32  34
ATOM     34  O   UNL     1      -0.342   8.684  22.039  0.00  0.00    +0.000 OA
ATOM     35  H   UNL     1       0.276   7.946  22.188  0.00  0.00    +0.000 HD
ENDBRANCH  32  34
ENDBRANCH  17  32
TORSDOF 4
ENDMDL
MODEL 9
REMARK VINA RESULT:      -6.5      3.255      5.563
REMARK  Name = 
REMARK  6 active torsions:
REMARK  status: ('A' for Active; 'I' for Inactive)
REMARK    1  A    between atoms: C_1  and  C_2
REMARK    2  A    between atoms: C_2  and  C_3
REMARK    3  A    between atoms: C_2  and  N_4
REMARK    4  A    between atoms: C_16  and  C_17
REMARK    5  A    between atoms: C_26  and  C_27
REMARK    6  A    between atoms: C_27  and  O_29
REMARK                            x       y       z     vdW  Elec       q    Type
REMARK                         _______ _______ _______ _____ _____    ______ ____
ROOT
ATOM      1  N   UNL     1      -1.631  17.087  23.220  0.00  0.00    +0.000 NA
ATOM      2  C   UNL     1      -1.565  17.490  21.753  0.00  0.00    +0.000 C 
ATOM      3  C   UNL     1      -2.188  16.013  21.485  0.00  0.00    +0.000 C 
ATOM      4  C   UNL     1      -3.697  16.304  21.609  0.00  0.00    +0.000 C 
ATOM      5  O   UNL     1      -4.313  16.161  20.326  0.00  0.00    +0.000 OA
ATOM      6  C   UNL     1      -5.297  15.213  20.349  0.00  0.00    +0.000 A 
ATOM      7  C   UNL     1      -6.562  15.657  19.951  0.00  0.00    +0.000 A 
ATOM      8  C   UNL     1      -7.639  14.777  19.928  0.00  0.00    +0.000 A 
ATOM      9  C   UNL     1      -7.434  13.436  20.230  0.00  0.00    +0.000 A 
ATOM     10  C   UNL     1      -6.155  12.991  20.612  0.00  0.00    +0.000 A 
ATOM     11  C   UNL     1      -5.079  13.887  20.739  0.00  0.00    +0.000 A 
ATOM     12  C   UNL     1      -3.827  13.403  21.343  0.00  0.00    +0.000 A 
ATOM     13  C   UNL     1      -3.481  13.036  22.656  0.00  0.00    +0.000 A 
ATOM     14  C   UNL     1      -2.313  12.181  22.468  0.00  0.00    +0.000 A 
ATOM     15  C   UNL     1      -1.578  11.298  23.269  0.00  0.00    +0.000 A 
ATOM     16  C   UNL     1      -0.659  10.406  22.679  0.00  0.00    +0.000 A 
ATOM     17  C   UNL     1      -0.448  10.435  21.314  0.00  0.00    +0.000 A 
ATOM     18  C   UNL     1      -0.998  11.450  20.510  0.00  0.00    +0.000 A 
ATOM     19  C   UNL     1      -1.900  12.346  21.142  0.00  0.00    +0.000 A 
ATOM     20  N   UNL     1      -2.567  13.514  20.746  0.00  0.00    +0.000 N 
ATOM     21  C   UNL     1      -1.898  14.852  20.468  0.00  0.00    +0.000 C 
ATOM     22  C   UNL     1      -1.242  15.744  22.725  0.00  0.00    +0.000 C 
ENDROOT
BRANCH  13  23
ATOM     23  C   UNL     1      -4.125  13.454  23.991  0.00  0.00    +0.000 C 
ATOM     24  C   UNL     1      -4.880  14.794  24.072  0.00  0.00    +0.000 C 
ATOM     25  C   UNL     1      -6.339  14.754  23.626  0.00  0.00    +0.000 C 
ATOM     26  C   UNL     1      -7.124  13.547  24.121  0.00  0.00    +0.000 C 
ATOM     27  C   UNL     1      -6.337  12.247  24.024  0.00  0.00    +0.000 C 
ATOM     28  C   UNL     1      -4.989  12.411  24.707  0.00  0.00    +0.000 C 
ENDBRANCH  13  23
BRANCH   1  30
ATOM     29  C   UNL     1      -0.596  16.963  25.437  0.00  0.00    +0.000 C 
ATOM     30  C   UNL     1      -0.618  17.696  24.087  0.00  0.00    +0.000 C 
ATOM     31  C   UNL     1       0.785  17.544  23.467  0.00  0.00    +0.000 C 
ENDBRANCH   1  30
BRANCH  17  32
ATOM     32  C   UNL     1       0.415   9.322  20.787  0.00  0.00    +0.000 C 
ATOM     33  O   UNL     1       0.586   8.273  21.380  0.00  0.00    +0.000 OA
BRANCH  32  34
ATOM     34  O   UNL     1       0.880   9.552  19.539  0.00  0.00    +0.000 OA
ATOM     35  H   UNL     1       0.194   9.788  18.889  0.00  0.00    +0.000 HD
ENDBRANCH  32  34
ENDBRANCH  17  32
TORSDOF 4
ENDMDL
