MODEL 1
REMARK VINA RESULT:      -4.8      0.000      0.000
REMARK  Name = 
REMARK  4 active torsions:
REMARK  status: ('A' for Active; 'I' for Inactive)
REMARK    1  A    between atoms: C_1  and  C_2
REMARK    2  A    between atoms: C_2  and  C_3
REMARK    3  A    between atoms: C_3  and  N_4
REMARK    4  A    between atoms: N_4  and  C_5
REMARK                            x       y       z     vdW  Elec       q    Type
REMARK                         _______ _______ _______ _____ _____    ______ ____
ROOT
ATOM      1  N   UNL     1       3.120   3.783  19.032  0.00  0.00    +0.000 N 
ATOM      2  C   UNL     1       3.741   5.086  19.541  0.00  0.00    +0.000 C 
ATOM      3  C   UNL     1       1.593   3.898  18.908  0.00  0.00    +0.000 C 
ATOM      4  C   UNL     1       0.913   4.010  20.266  0.00  0.00    +0.000 C 
ATOM      5  C   UNL     1       1.278   2.854  21.182  0.00  0.00    +0.000 C 
ATOM      6  C   UNL     1       2.786   2.733  21.335  0.00  0.00    +0.000 C 
ATOM      7  C   UNL     1       3.484   2.620  19.983  0.00  0.00    +0.000 C 
ENDROOT
BRANCH   1   8
ATOM      8  C   UNL     1       3.735   3.426  17.645  0.00  0.00    +0.000 C 
BRANCH   8  10
ATOM      9  C   UNL     1       5.385   4.103  15.863  0.00  0.00    +0.000 C 
ATOM     10  C   UNL     1       4.475   4.591  16.983  0.00  0.00    +0.000 C 
ENDBRANCH   8  10
ENDBRANCH   1   8
TORSDOF 2
ENDMDL
MODEL 2
REMARK VINA RESULT:      -4.8      2.071      3.173
REMARK  Name = 
REMARK  4 active torsions:
REMARK  status: ('A' for Active; 'I' for Inactive)
REMARK    1  A    between atoms: C_1  and  C_2
REMARK    2  A    between atoms: C_2  and  C_3
REMARK    3  A    between atoms: C_3  and  N_4
REMARK    4  A    between atoms: N_4  and  C_5
REMARK                            x       y       z     vdW  Elec       q    Type
REMARK                         _______ _______ _______ _____ _____    ______ ____
ROOT
ATOM      1  N   UNL     1       2.460   5.324  19.466  0.00  0.00    +0.000 N 
ATOM      2  C   UNL     1       3.904   4.856  19.664  0.00  0.00    +0.000 C 
ATOM      3  C   UNL     1       1.543   4.810  20.587  0.00  0.00    +0.000 C 
ATOM      4  C   UNL     1       1.349   3.301  20.524  0.00  0.00    +0.000 C 
ATOM      5  C   UNL     1       0.825   2.850  19.171  0.00  0.00    +0.000 C 
ATOM      6  C   UNL     1       1.728   3.333  18.047  0.00  0.00    +0.000 C 
ATOM      7  C   UNL     1       1.933   4.843  18.095  0.00  0.00    +0.000 C 
ENDROOT
BRANCH   1   8
ATOM      8  C   UNL     1       2.424   6.882  19.430  0.00  0.00    +0.000 C 
BRANCH   8  10
ATOM      9  C   UNL     1       2.034   8.757  17.790  0.00  0.00    +0.000 C 
ATOM     10  C   UNL     1       2.806   7.474  18.071  0.00  0.00    +0.000 C 
ENDBRANCH   8  10
ENDBRANCH   1   8
TORSDOF 2
ENDMDL
MODEL 3
REMARK VINA RESULT:      -4.8      3.479      5.378
REMARK  Name = 
REMARK  4 active torsions:
REMARK  status: ('A' for Active; 'I' for Inactive)
REMARK    1  A    between atoms: C_1  and  C_2
REMARK    2  A    between atoms: C_2  and  C_3
REMARK    3  A    between atoms: C_3  and  N_4
REMARK    4  A    between atoms: N_4  and  C_5
REMARK                            x       y       z     vdW  Elec       q    Type
REMARK                         _______ _______ _______ _____ _____    ______ ____
ROOT
ATOM      1  N   UNL     1       6.077   4.651  16.643  0.00  0.00    +0.000 N 
ATOM      2  C   UNL     1       4.949   4.287  17.611  0.00  0.00    +0.000 C 
ATOM      3  C   UNL     1       7.455   4.519  17.310  0.00  0.00    +0.000 C 
ATOM      4  C   UNL     1       7.675   5.570  18.390  0.00  0.00    +0.000 C 
ATOM      5  C   UNL     1       7.484   6.980  17.858  0.00  0.00    +0.000 C 
ATOM      6  C   UNL     1       6.118   7.140  17.210  0.00  0.00    +0.000 C 
ATOM      7  C   UNL     1       5.881   6.095  16.125  0.00  0.00    +0.000 C 
ENDROOT
BRANCH   1   8
ATOM      8  C   UNL     1       6.006   3.722  15.394  0.00  0.00    +0.000 C 
BRANCH   8  10
ATOM      9  C   UNL     1       6.134   3.538  12.883  0.00  0.00    +0.000 C 
ATOM     10  C   UNL     1       6.453   4.400  14.097  0.00  0.00    +0.000 C 
ENDBRANCH   8  10
ENDBRANCH   1   8
TORSDOF 2
ENDMDL
MODEL 4
REMARK VINA RESULT:      -4.7      1.064      1.720
REMARK  Name = 
REMARK  4 active torsions:
REMARK  status: ('A' for Active; 'I' for Inactive)
REMARK    1  A    between atoms: C_1  and  C_2
REMARK    2  A    between atoms: C_2  and  C_3
REMARK    3  A    between atoms: C_3  and  N_4
REMARK    4  A    between atoms: N_4  and  C_5
REMARK                            x       y       z     vdW  Elec       q    Type
REMARK                         _______ _______ _______ _____ _____    ______ ____
ROOT
ATOM      1  N   UNL     1       3.695   3.375  19.161  0.00  0.00    +0.000 N 
ATOM      2  C   UNL     1       4.357   2.282  20.003  0.00  0.00    +0.000 C 
ATOM      3  C   UNL     1       3.058   4.458  20.045  0.00  0.00    +0.000 C 
ATOM      4  C   UNL     1       1.849   3.937  20.811  0.00  0.00    +0.000 C 
ATOM      5  C   UNL     1       0.804   3.336  19.886  0.00  0.00    +0.000 C 
ATOM      6  C   UNL     1       1.410   2.247  19.014  0.00  0.00    +0.000 C 
ATOM      7  C   UNL     1       2.622   2.752  18.238  0.00  0.00    +0.000 C 
ENDROOT
BRANCH   1   8
ATOM      8  C   UNL     1       4.760   4.021  18.224  0.00  0.00    +0.000 C 
BRANCH   8  10
ATOM      9  C   UNL     1       5.602   4.002  15.848  0.00  0.00    +0.000 C 
ATOM     10  C   UNL     1       4.371   3.999  16.744  0.00  0.00    +0.000 C 
ENDBRANCH   8  10
ENDBRANCH   1   8
TORSDOF 2
ENDMDL
MODEL 5
REMARK VINA RESULT:      -4.7      1.202      2.236
REMARK  Name = 
REMARK  4 active torsions:
REMARK  status: ('A' for Active; 'I' for Inactive)
REMARK    1  A    between atoms: C_1  and  C_2
REMARK    2  A    between atoms: C_2  and  C_3
REMARK    3  A    between atoms: C_3  and  N_4
REMARK    4  A    between atoms: N_4  and  C_5
REMARK                            x       y       z     vdW  Elec       q    Type
REMARK                         _______ _______ _______ _____ _____    ______ ____
ROOT
ATOM      1  N   UNL     1       3.122   3.247  18.424  0.00  0.00    +0.000 N 
ATOM      2  C   UNL     1       3.451   1.794  18.072  0.00  0.00    +0.000 C 
ATOM      3  C   UNL     1       3.520   3.579  19.871  0.00  0.00    +0.000 C 
ATOM      4  C   UNL     1       2.651   2.850  20.887  0.00  0.00    +0.000 C 
ATOM      5  C   UNL     1       1.172   3.127  20.674  0.00  0.00    +0.000 C 
ATOM      6  C   UNL     1       0.752   2.787  19.253  0.00  0.00    +0.000 C 
ATOM      7  C   UNL     1       1.612   3.509  18.221  0.00  0.00    +0.000 C 
ENDROOT
BRANCH   1   8
ATOM      8  C   UNL     1       3.871   4.198  17.442  0.00  0.00    +0.000 C 
BRANCH   8  10
ATOM      9  C   UNL     1       4.641   6.549  16.956  0.00  0.00    +0.000 C 
ATOM     10  C   UNL     1       4.170   5.579  18.031  0.00  0.00    +0.000 C 
ENDBRANCH   8  10
ENDBRANCH   1   8
TORSDOF 2
ENDMDL
MODEL 6
REMARK VINA RESULT:      -4.7      1.269      2.022
REMARK  Name = 
REMARK  4 active torsions:
REMARK  status: ('A' for Active; 'I' for Inactive)
REMARK    1  A    between atoms: C_1  and  C_2
REMARK    2  A    between atoms: C_2  and  C_3
REMARK    3  A    between atoms: C_3  and  N_4
REMARK    4  A    between atoms: N_4  and  C_5
REMARK                            x       y       z     vdW  Elec       q    Type
REMARK                         _______ _______ _______ _____ _____    ______ ____
ROOT
ATOM      1  N   UNL     1       3.660   3.433  19.293  0.00  0.00    +0.000 N 
ATOM      2  C   UNL     1       4.339   2.252  19.991  0.00  0.00    +0.000 C 
ATOM      3  C   UNL     1       2.918   4.329  20.297  0.00  0.00    +0.000 C 
ATOM      4  C   UNL     1       1.703   3.635  20.898  0.00  0.00    +0.000 C 
ATOM      5  C   UNL     1       0.743   3.140  19.830  0.00  0.00    +0.000 C 
ATOM      6  C   UNL     1       1.453   2.235  18.835  0.00  0.00    +0.000 C 
ATOM      7  C   UNL     1       2.672   2.915  18.222  0.00  0.00    +0.000 C 
ENDROOT
BRANCH   1   8
ATOM      8  C   UNL     1       4.734   4.270  18.535  0.00  0.00    +0.000 C 
BRANCH   8  10
ATOM      9  C   UNL     1       4.072   6.443  17.442  0.00  0.00    +0.000 C 
ATOM     10  C   UNL     1       4.206   4.937  17.262  0.00  0.00    +0.000 C 
ENDBRANCH   8  10
ENDBRANCH   1   8
TORSDOF 2
ENDMDL
MODEL 7
REMARK VINA RESULT:      -4.7      1.167      1.771
REMARK  Name = 
REMARK  4 active torsions:
REMARK  status: ('A' for Active; 'I' for Inactive)
REMARK    1  A    between atoms: C_1  and  C_2
REMARK    2  A    between atoms: C_2  and  C_3
REMARK    3  A    between atoms: C_3  and  N_4
REMARK    4  A    between atoms: N_4  and  C_5
REMARK                            x       y       z     vdW  Elec       q    Type
REMARK                         _______ _______ _______ _____ _____    ______ ____
ROOT
ATOM      1  N   UNL     1       3.271   4.306  18.662  0.00  0.00    +0.000 N 
ATOM      2  C   UNL     1       4.254   3.217  19.098  0.00  0.00    +0.000 C 
ATOM      3  C   UNL     1       2.976   5.287  19.807  0.00  0.00    +0.000 C 
ATOM      4  C   UNL     1       2.179   4.637  20.930  0.00  0.00    +0.000 C 
ATOM      5  C   UNL     1       0.886   4.017  20.426  0.00  0.00    +0.000 C 
ATOM      6  C   UNL     1       1.158   3.027  19.304  0.00  0.00    +0.000 C 
ATOM      7  C   UNL     1       1.955   3.662  18.170  0.00  0.00    +0.000 C 
ENDROOT
BRANCH   1   8
ATOM      8  C   UNL     1       3.865   5.080  17.447  0.00  0.00    +0.000 C 
BRANCH   8  10
ATOM      9  C   UNL     1       5.516   5.049  15.542  0.00  0.00    +0.000 C 
ATOM     10  C   UNL     1       4.696   4.203  16.506  0.00  0.00    +0.000 C 
ENDBRANCH   8  10
ENDBRANCH   1   8
TORSDOF 2
ENDMDL
MODEL 8
REMARK VINA RESULT:      -4.7      2.211      2.720
REMARK  Name = 
REMARK  4 active torsions:
REMARK  status: ('A' for Active; 'I' for Inactive)
REMARK    1  A    between atoms: C_1  and  C_2
REMARK    2  A    between atoms: C_2  and  C_3
REMARK    3  A    between atoms: C_3  and  N_4
REMARK    4  A    between atoms: N_4  and  C_5
REMARK                            x       y       z     vdW  Elec       q    Type
REMARK                         _______ _______ _______ _____ _____    ______ ____
ROOT
ATOM      1  N   UNL     1       4.635   4.415  17.704  0.00  0.00    +0.000 N 
ATOM      2  C   UNL     1       5.060   4.252  19.165  0.00  0.00    +0.000 C 
ATOM      3  C   UNL     1       3.794   5.685  17.500  0.00  0.00    +0.000 C 
ATOM      4  C   UNL     1       2.430   5.585  18.170  0.00  0.00    +0.000 C 
ATOM      5  C   UNL     1       1.655   4.365  17.704  0.00  0.00    +0.000 C 
ATOM      6  C   UNL     1       2.461   3.093  17.913  0.00  0.00    +0.000 C 
ATOM      7  C   UNL     1       3.831   3.175  17.248  0.00  0.00    +0.000 C 
ENDROOT
BRANCH   1   8
ATOM      8  C   UNL     1       5.903   4.474  16.800  0.00  0.00    +0.000 C 
BRANCH   8  10
ATOM      9  C   UNL     1       6.053   4.029  14.324  0.00  0.00    +0.000 C 
ATOM     10  C   UNL     1       5.634   5.023  15.397  0.00  0.00    +0.000 C 
ENDBRANCH   8  10
ENDBRANCH   1   8
TORSDOF 2
ENDMDL
MODEL 9
REMARK VINA RESULT:      -4.6      3.775      4.909
REMARK  Name = 
REMARK  4 active torsions:
REMARK  status: ('A' for Active; 'I' for Inactive)
REMARK    1  A    between atoms: C_1  and  C_2
REMARK    2  A    between atoms: C_2  and  C_3
REMARK    3  A    between atoms: C_3  and  N_4
REMARK    4  A    between atoms: N_4  and  C_5
REMARK                            x       y       z     vdW  Elec       q    Type
REMARK                         _______ _______ _______ _____ _____    ______ ____
ROOT
ATOM      1  N   UNL     1       5.646   5.372  16.912  0.00  0.00    +0.000 N 
ATOM      2  C   UNL     1       4.541   6.415  17.087  0.00  0.00    +0.000 C 
ATOM      3  C   UNL     1       5.824   4.522  18.180  0.00  0.00    +0.000 C 
ATOM      4  C   UNL     1       6.395   5.330  19.338  0.00  0.00    +0.000 C 
ATOM      5  C   UNL     1       7.707   6.002  18.970  0.00  0.00    +0.000 C 
ATOM      6  C   UNL     1       7.550   6.864  17.727  0.00  0.00    +0.000 C 
ATOM      7  C   UNL     1       6.979   6.070  16.557  0.00  0.00    +0.000 C 
ENDROOT
BRANCH   1   8
ATOM      8  C   UNL     1       5.297   4.448  15.706  0.00  0.00    +0.000 C 
BRANCH   8  10
ATOM      9  C   UNL     1       6.015   3.783  13.383  0.00  0.00    +0.000 C 
ATOM     10  C   UNL     1       6.483   4.176  14.778  0.00  0.00    +0.000 C 
ENDBRANCH   8  10
ENDBRANCH   1   8
TORSDOF 2
ENDMDL
