MODEL 1
REMARK VINA RESULT:      -8.7      0.000      0.000
REMARK  Name = 
REMARK  10 active torsions:
REMARK  status: ('A' for Active; 'I' for Inactive)
REMARK    1  A    between atoms: C_1  and  C_2
REMARK    2  A    between atoms: C_4  and  O_5
REMARK    3  A    between atoms: O_5  and  C_6
REMARK    4  A    between atoms: C_6  and  C_7
REMARK    5  A    between atoms: C_6  and  C_8
REMARK    6  A    between atoms: N_10  and  C_11
REMARK    7  A    between atoms: N_14  and  C_15
REMARK    8  A    between atoms: C_15  and  C_16
REMARK    9  A    between atoms: C_25  and  C_26
REMARK   10  A    between atoms: C_27  and  C_28
REMARK                            x       y       z     vdW  Elec       q    Type
REMARK                         _______ _______ _______ _____ _____    ______ ____
ROOT
ATOM      1  C   UNL     1       1.240   9.279  18.099  0.00  0.00    +0.000 C 
ATOM      2  C   UNL     1       2.051  10.553  17.889  0.00  0.00    +0.000 C 
ENDROOT
BRANCH   1   3
ATOM      3  C   UNL     1       2.176   8.197  18.642  0.00  0.00    +0.000 C 
ATOM      4  O   UNL     1       2.163   7.871  19.828  0.00  0.00    +0.000 OA
ATOM      5  N   UNL     1       3.013   7.611  17.704  0.00  0.00    +0.000 N 
ATOM      6  H   UNL     1       3.060   8.077  16.801  0.00  0.00    +0.000 HD
BRANCH   5   7
ATOM      7  C   UNL     1       4.114   6.755  18.133  0.00  0.00    +0.000 C 
ATOM      8  C   UNL     1       5.311   6.844  17.188  0.00  0.00    +0.000 C 
ATOM      9  C   UNL     1       5.262   5.835  16.049  0.00  0.00    +0.000 C 
ATOM     10  N   UNL     1       5.163   4.480  16.605  0.00  0.00    +0.000 NA
ATOM     11  C   UNL     1       3.857   4.323  17.261  0.00  0.00    +0.000 C 
ATOM     12  C   UNL     1       3.666   5.311  18.416  0.00  0.00    +0.000 C 
BRANCH  10  13
ATOM     13  C   UNL     1       5.362   3.441  15.573  0.00  0.00    +0.000 C 
BRANCH  13  14
ATOM     14  C   UNL     1       6.066   3.964  14.334  0.00  0.00    +0.000 A 
ATOM     15  C   UNL     1       5.683   3.528  13.055  0.00  0.00    +0.000 A 
ATOM     16  C   UNL     1       6.410   3.913  11.927  0.00  0.00    +0.000 A 
ATOM     17  C   UNL     1       7.516   4.751  12.061  0.00  0.00    +0.000 A 
ATOM     18  C   UNL     1       7.881   5.225  13.320  0.00  0.00    +0.000 A 
ATOM     19  C   UNL     1       7.157   4.839  14.450  0.00  0.00    +0.000 A 
ENDBRANCH  13  14
ENDBRANCH  10  13
ENDBRANCH   5   7
ENDBRANCH   1   3
BRANCH   1  20
ATOM     20  O   UNL     1       0.187   9.571  19.025  0.00  0.00    +0.000 OA
BRANCH  20  24
ATOM     21  C   UNL     1      -3.197  10.292  15.485  0.00  0.00    +0.000 C 
ATOM     22  C   UNL     1      -2.624  10.586  16.841  0.00  0.00    +0.000 A 
ATOM     23  C   UNL     1      -1.466   9.956  17.300  0.00  0.00    +0.000 A 
ATOM     24  C   UNL     1      -0.920  10.241  18.572  0.00  0.00    +0.000 A 
ATOM     25  C   UNL     1      -1.555  11.163  19.441  0.00  0.00    +0.000 A 
ATOM     26  C   UNL     1      -1.115  11.575  20.809  0.00  0.00    +0.000 A 
ATOM     27  C   UNL     1       0.162  11.072  21.436  0.00  0.00    +0.000 C 
ATOM     28  C   UNL     1      -1.877  12.440  21.516  0.00  0.00    +0.000 A 
ATOM     29  C   UNL     1      -1.576  12.929  22.914  0.00  0.00    +0.000 C 
ATOM     30  C   UNL     1      -3.134  13.022  20.981  0.00  0.00    +0.000 A 
ATOM     31  O   UNL     1      -3.826  13.793  21.639  0.00  0.00    +0.000 OA
ATOM     32  O   UNL     1      -3.485  12.667  19.701  0.00  0.00    +0.000 OA
ATOM     33  C   UNL     1      -2.727  11.754  18.948  0.00  0.00    +0.000 A 
ATOM     34  C   UNL     1      -3.260  11.489  17.682  0.00  0.00    +0.000 A 
ENDBRANCH  20  24
ENDBRANCH   1  20
TORSDOF 6
ENDMDL
MODEL 2
REMARK VINA RESULT:      -8.6      3.391     11.167
REMARK  Name = 
REMARK  10 active torsions:
REMARK  status: ('A' for Active; 'I' for Inactive)
REMARK    1  A    between atoms: C_1  and  C_2
REMARK    2  A    between atoms: C_4  and  O_5
REMARK    3  A    between atoms: O_5  and  C_6
REMARK    4  A    between atoms: C_6  and  C_7
REMARK    5  A    between atoms: C_6  and  C_8
REMARK    6  A    between atoms: N_10  and  C_11
REMARK    7  A    between atoms: N_14  and  C_15
REMARK    8  A    between atoms: C_15  and  C_16
REMARK    9  A    between atoms: C_25  and  C_26
REMARK   10  A    between atoms: C_27  and  C_28
REMARK                            x       y       z     vdW  Elec       q    Type
REMARK                         _______ _______ _______ _____ _____    ______ ____
ROOT
ATOM      1  C   UNL     1       2.444   8.121  18.759  0.00  0.00    +0.000 C 
ATOM      2  C   UNL     1       2.118   8.909  17.495  0.00  0.00    +0.000 C 
ENDROOT
BRANCH   1   3
ATOM      3  C   UNL     1       1.429   8.500  19.839  0.00  0.00    +0.000 C 
ATOM      4  O   UNL     1       1.327   7.856  20.882  0.00  0.00    +0.000 OA
ATOM      5  N   UNL     1       0.657   9.618  19.559  0.00  0.00    +0.000 N 
ATOM      6  H   UNL     1       0.705   9.961  18.603  0.00  0.00    +0.000 HD
BRANCH   5   7
ATOM      7  C   UNL     1      -0.506   9.934  20.383  0.00  0.00    +0.000 C 
ATOM      8  C   UNL     1      -1.500  10.833  19.649  0.00  0.00    +0.000 C 
ATOM      9  C   UNL     1      -1.234  12.320  19.846  0.00  0.00    +0.000 C 
ATOM     10  N   UNL     1      -1.243  12.628  21.281  0.00  0.00    +0.000 NA
ATOM     11  C   UNL     1      -0.087  11.983  21.920  0.00  0.00    +0.000 C 
ATOM     12  C   UNL     1      -0.121  10.459  21.776  0.00  0.00    +0.000 C 
BRANCH  10  13
ATOM     13  C   UNL     1      -1.240  14.084  21.534  0.00  0.00    +0.000 C 
BRANCH  13  14
ATOM     14  C   UNL     1      -1.632  14.439  22.957  0.00  0.00    +0.000 A 
ATOM     15  C   UNL     1      -2.819  13.940  23.518  0.00  0.00    +0.000 A 
ATOM     16  C   UNL     1      -3.240  14.365  24.780  0.00  0.00    +0.000 A 
ATOM     17  C   UNL     1      -2.473  15.278  25.502  0.00  0.00    +0.000 A 
ATOM     18  C   UNL     1      -1.272  15.748  24.974  0.00  0.00    +0.000 A 
ATOM     19  C   UNL     1      -0.850  15.327  23.711  0.00  0.00    +0.000 A 
ENDBRANCH  13  14
ENDBRANCH  10  13
ENDBRANCH   5   7
ENDBRANCH   1   3
BRANCH   1  20
ATOM     20  O   UNL     1       2.372   6.725  18.443  0.00  0.00    +0.000 OA
BRANCH  20  24
ATOM     21  C   UNL     1       6.994   6.272  16.729  0.00  0.00    +0.000 C 
ATOM     22  C   UNL     1       5.841   5.784  17.558  0.00  0.00    +0.000 A 
ATOM     23  C   UNL     1       4.627   6.471  17.601  0.00  0.00    +0.000 A 
ATOM     24  C   UNL     1       3.537   6.005  18.372  0.00  0.00    +0.000 A 
ATOM     25  C   UNL     1       3.656   4.832  19.157  0.00  0.00    +0.000 A 
ATOM     26  C   UNL     1       2.611   4.207  20.024  0.00  0.00    +0.000 A 
ATOM     27  C   UNL     1       1.208   4.754  20.124  0.00  0.00    +0.000 C 
ATOM     28  C   UNL     1       2.919   3.103  20.741  0.00  0.00    +0.000 A 
ATOM     29  C   UNL     1       1.980   2.376  21.675  0.00  0.00    +0.000 C 
ATOM     30  C   UNL     1       4.259   2.463  20.690  0.00  0.00    +0.000 A 
ATOM     31  O   UNL     1       4.532   1.471  21.358  0.00  0.00    +0.000 OA
ATOM     32  O   UNL     1       5.182   3.027  19.843  0.00  0.00    +0.000 OA
ATOM     33  C   UNL     1       4.900   4.187  19.101  0.00  0.00    +0.000 A 
ATOM     34  C   UNL     1       5.974   4.634  18.324  0.00  0.00    +0.000 A 
ENDBRANCH  20  24
ENDBRANCH   1  20
TORSDOF 6
ENDMDL
MODEL 3
REMARK VINA RESULT:      -8.5      3.546     10.887
REMARK  Name = 
REMARK  10 active torsions:
REMARK  status: ('A' for Active; 'I' for Inactive)
REMARK    1  A    between atoms: C_1  and  C_2
REMARK    2  A    between atoms: C_4  and  O_5
REMARK    3  A    between atoms: O_5  and  C_6
REMARK    4  A    between atoms: C_6  and  C_7
REMARK    5  A    between atoms: C_6  and  C_8
REMARK    6  A    between atoms: N_10  and  C_11
REMARK    7  A    between atoms: N_14  and  C_15
REMARK    8  A    between atoms: C_15  and  C_16
REMARK    9  A    between atoms: C_25  and  C_26
REMARK   10  A    between atoms: C_27  and  C_28
REMARK                            x       y       z     vdW  Elec       q    Type
REMARK                         _______ _______ _______ _____ _____    ______ ____
ROOT
ATOM      1  C   UNL     1       1.395   7.903  19.949  0.00  0.00    +0.000 C 
ATOM      2  C   UNL     1       1.329   8.486  21.357  0.00  0.00    +0.000 C 
ENDROOT
BRANCH   1   3
ATOM      3  C   UNL     1       1.181   9.039  18.947  0.00  0.00    +0.000 C 
ATOM      4  O   UNL     1       1.372   8.880  17.743  0.00  0.00    +0.000 OA
ATOM      5  N   UNL     1       0.746  10.237  19.494  0.00  0.00    +0.000 N 
ATOM      6  H   UNL     1       0.791  10.303  20.508  0.00  0.00    +0.000 HD
BRANCH   5   7
ATOM      7  C   UNL     1       0.745  11.456  18.690  0.00  0.00    +0.000 C 
ATOM      8  C   UNL     1       1.775  12.469  19.185  0.00  0.00    +0.000 C 
ATOM      9  C   UNL     1       1.229  13.427  20.236  0.00  0.00    +0.000 C 
ATOM     10  N   UNL     1       0.058  14.126  19.693  0.00  0.00    +0.000 NA
ATOM     11  C   UNL     1      -1.035  13.161  19.504  0.00  0.00    +0.000 C 
ATOM     12  C   UNL     1      -0.663  12.050  18.517  0.00  0.00    +0.000 C 
BRANCH  10  13
ATOM     13  C   UNL     1      -0.371  15.244  20.560  0.00  0.00    +0.000 C 
BRANCH  13  14
ATOM     14  C   UNL     1      -1.100  16.337  19.800  0.00  0.00    +0.000 A 
ATOM     15  C   UNL     1      -0.517  16.937  18.673  0.00  0.00    +0.000 A 
ATOM     16  C   UNL     1      -1.132  18.025  18.050  0.00  0.00    +0.000 A 
ATOM     17  C   UNL     1      -2.344  18.514  18.535  0.00  0.00    +0.000 A 
ATOM     18  C   UNL     1      -2.955  17.900  19.626  0.00  0.00    +0.000 A 
ATOM     19  C   UNL     1      -2.340  16.814  20.253  0.00  0.00    +0.000 A 
ENDBRANCH  13  14
ENDBRANCH  10  13
ENDBRANCH   5   7
ENDBRANCH   1   3
BRANCH   1  20
ATOM     20  O   UNL     1       2.680   7.295  19.781  0.00  0.00    +0.000 OA
BRANCH  20  24
ATOM     21  C   UNL     1       1.331   2.888  21.586  0.00  0.00    +0.000 C 
ATOM     22  C   UNL     1       2.073   3.735  20.593  0.00  0.00    +0.000 A 
ATOM     23  C   UNL     1       2.051   5.129  20.659  0.00  0.00    +0.000 A 
ATOM     24  C   UNL     1       2.759   5.926  19.731  0.00  0.00    +0.000 A 
ATOM     25  C   UNL     1       3.494   5.329  18.677  0.00  0.00    +0.000 A 
ATOM     26  C   UNL     1       4.291   6.021  17.617  0.00  0.00    +0.000 A 
ATOM     27  C   UNL     1       4.463   7.519  17.580  0.00  0.00    +0.000 C 
ATOM     28  C   UNL     1       4.896   5.284  16.658  0.00  0.00    +0.000 A 
ATOM     29  C   UNL     1       5.712   5.839  15.514  0.00  0.00    +0.000 C 
ATOM     30  C   UNL     1       4.820   3.801  16.620  0.00  0.00    +0.000 A 
ATOM     31  O   UNL     1       5.359   3.145  15.734  0.00  0.00    +0.000 OA
ATOM     32  O   UNL     1       4.127   3.190  17.637  0.00  0.00    +0.000 OA
ATOM     33  C   UNL     1       3.469   3.928  18.636  0.00  0.00    +0.000 A 
ATOM     34  C   UNL     1       2.786   3.135  19.564  0.00  0.00    +0.000 A 
ENDBRANCH  20  24
ENDBRANCH   1  20
TORSDOF 6
ENDMDL
MODEL 4
REMARK VINA RESULT:      -8.4      3.079     11.043
REMARK  Name = 
REMARK  10 active torsions:
REMARK  status: ('A' for Active; 'I' for Inactive)
REMARK    1  A    between atoms: C_1  and  C_2
REMARK    2  A    between atoms: C_4  and  O_5
REMARK    3  A    between atoms: O_5  and  C_6
REMARK    4  A    between atoms: C_6  and  C_7
REMARK    5  A    between atoms: C_6  and  C_8
REMARK    6  A    between atoms: N_10  and  C_11
REMARK    7  A    between atoms: N_14  and  C_15
REMARK    8  A    between atoms: C_15  and  C_16
REMARK    9  A    between atoms: C_25  and  C_26
REMARK   10  A    between atoms: C_27  and  C_28
REMARK                            x       y       z     vdW  Elec       q    Type
REMARK                         _______ _______ _______ _____ _____    ______ ____
ROOT
ATOM      1  C   UNL     1       1.335   7.871  20.012  0.00  0.00    +0.000 C 
ATOM      2  C   UNL     1       1.418   8.406  21.437  0.00  0.00    +0.000 C 
ENDROOT
BRANCH   1   3
ATOM      3  C   UNL     1       0.970   9.030  19.082  0.00  0.00    +0.000 C 
ATOM      4  O   UNL     1       1.342   9.058  17.911  0.00  0.00    +0.000 OA
ATOM      5  N   UNL     1       0.185  10.022  19.653  0.00  0.00    +0.000 N 
ATOM      6  H   UNL     1       0.087   9.981  20.664  0.00  0.00    +0.000 HD
BRANCH   5   7
ATOM      7  C   UNL     1      -0.021  11.289  18.957  0.00  0.00    +0.000 C 
ATOM      8  C   UNL     1       0.714  12.442  19.638  0.00  0.00    +0.000 C 
ATOM      9  C   UNL     1      -0.116  13.146  20.703  0.00  0.00    +0.000 C 
ATOM     10  N   UNL     1      -1.364  13.632  20.102  0.00  0.00    +0.000 NA
ATOM     11  C   UNL     1      -2.196  12.481  19.721  0.00  0.00    +0.000 C 
ATOM     12  C   UNL     1      -1.506  11.583  18.689  0.00  0.00    +0.000 C 
BRANCH  10  13
ATOM     13  C   UNL     1      -2.101  14.536  21.009  0.00  0.00    +0.000 C 
BRANCH  13  14
ATOM     14  C   UNL     1      -3.044  13.799  21.943  0.00  0.00    +0.000 A 
ATOM     15  C   UNL     1      -4.432  13.833  21.732  0.00  0.00    +0.000 A 
ATOM     16  C   UNL     1      -5.305  13.260  22.659  0.00  0.00    +0.000 A 
ATOM     17  C   UNL     1      -4.801  12.632  23.797  0.00  0.00    +0.000 A 
ATOM     18  C   UNL     1      -3.425  12.555  23.996  0.00  0.00    +0.000 A 
ATOM     19  C   UNL     1      -2.549  13.130  23.072  0.00  0.00    +0.000 A 
ENDBRANCH  13  14
ENDBRANCH  10  13
ENDBRANCH   5   7
ENDBRANCH   1   3
BRANCH   1  20
ATOM     20  O   UNL     1       2.610   7.313  19.672  0.00  0.00    +0.000 OA
BRANCH  20  24
ATOM     21  C   UNL     1       1.458   2.889  21.571  0.00  0.00    +0.000 C 
ATOM     22  C   UNL     1       2.156   3.747  20.556  0.00  0.00    +0.000 A 
ATOM     23  C   UNL     1       2.078   5.139  20.596  0.00  0.00    +0.000 A 
ATOM     24  C   UNL     1       2.744   5.948  19.647  0.00  0.00    +0.000 A 
ATOM     25  C   UNL     1       3.495   5.362  18.598  0.00  0.00    +0.000 A 
ATOM     26  C   UNL     1       4.254   6.065  17.519  0.00  0.00    +0.000 A 
ATOM     27  C   UNL     1       4.363   7.568  17.452  0.00  0.00    +0.000 C 
ATOM     28  C   UNL     1       4.880   5.336  16.567  0.00  0.00    +0.000 A 
ATOM     29  C   UNL     1       5.663   5.902  15.406  0.00  0.00    +0.000 C 
ATOM     30  C   UNL     1       4.865   3.851  16.557  0.00  0.00    +0.000 A 
ATOM     31  O   UNL     1       5.423   3.201  15.679  0.00  0.00    +0.000 OA
ATOM     32  O   UNL     1       4.206   3.231  17.592  0.00  0.00    +0.000 OA
ATOM     33  C   UNL     1       3.527   3.960  18.583  0.00  0.00    +0.000 A 
ATOM     34  C   UNL     1       2.885   3.157  19.532  0.00  0.00    +0.000 A 
ENDBRANCH  20  24
ENDBRANCH   1  20
TORSDOF 6
ENDMDL
MODEL 5
REMARK VINA RESULT:      -8.3      4.110      6.369
REMARK  Name = 
REMARK  10 active torsions:
REMARK  status: ('A' for Active; 'I' for Inactive)
REMARK    1  A    between atoms: C_1  and  C_2
REMARK    2  A    between atoms: C_4  and  O_5
REMARK    3  A    between atoms: O_5  and  C_6
REMARK    4  A    between atoms: C_6  and  C_7
REMARK    5  A    between atoms: C_6  and  C_8
REMARK    6  A    between atoms: N_10  and  C_11
REMARK    7  A    between atoms: N_14  and  C_15
REMARK    8  A    between atoms: C_15  and  C_16
REMARK    9  A    between atoms: C_25  and  C_26
REMARK   10  A    between atoms: C_27  and  C_28
REMARK                            x       y       z     vdW  Elec       q    Type
REMARK                         _______ _______ _______ _____ _____    ______ ____
ROOT
ATOM      1  C   UNL     1       1.475  13.919  20.262  0.00  0.00    +0.000 C 
ATOM      2  C   UNL     1       2.991  13.868  20.109  0.00  0.00    +0.000 C 
ENDROOT
BRANCH   1   3
ATOM      3  C   UNL     1       0.872  12.757  19.470  0.00  0.00    +0.000 C 
ATOM      4  O   UNL     1       0.044  12.945  18.581  0.00  0.00    +0.000 OA
ATOM      5  N   UNL     1       1.338  11.498  19.819  0.00  0.00    +0.000 N 
ATOM      6  H   UNL     1       1.883  11.449  20.676  0.00  0.00    +0.000 HD
BRANCH   5   7
ATOM      7  C   UNL     1       0.668  10.301  19.319  0.00  0.00    +0.000 C 
ATOM      8  C   UNL     1       0.438   9.271  20.424  0.00  0.00    +0.000 C 
ATOM      9  C   UNL     1       1.590   8.288  20.587  0.00  0.00    +0.000 C 
ATOM     10  N   UNL     1       1.831   7.608  19.309  0.00  0.00    +0.000 NA
ATOM     11  C   UNL     1       2.344   8.581  18.334  0.00  0.00    +0.000 C 
ATOM     12  C   UNL     1       1.350   9.717  18.071  0.00  0.00    +0.000 C 
BRANCH  10  13
ATOM     13  C   UNL     1       2.762   6.469  19.455  0.00  0.00    +0.000 C 
BRANCH  13  14
ATOM     14  C   UNL     1       2.079   5.122  19.306  0.00  0.00    +0.000 A 
ATOM     15  C   UNL     1       1.480   4.497  20.411  0.00  0.00    +0.000 A 
ATOM     16  C   UNL     1       0.962   3.205  20.301  0.00  0.00    +0.000 A 
ATOM     17  C   UNL     1       1.021   2.531  19.083  0.00  0.00    +0.000 A 
ATOM     18  C   UNL     1       1.574   3.156  17.967  0.00  0.00    +0.000 A 
ATOM     19  C   UNL     1       2.096   4.447  18.076  0.00  0.00    +0.000 A 
ENDBRANCH  13  14
ENDBRANCH  10  13
ENDBRANCH   5   7
ENDBRANCH   1   3
BRANCH   1  20
ATOM     20  O   UNL     1       1.167  13.814  21.657  0.00  0.00    +0.000 OA
BRANCH  20  24
ATOM     21  C   UNL     1       1.408  18.621  22.815  0.00  0.00    +0.000 C 
ATOM     22  C   UNL     1       0.715  17.290  22.848  0.00  0.00    +0.000 A 
ATOM     23  C   UNL     1       1.273  16.158  22.254  0.00  0.00    +0.000 A 
ATOM     24  C   UNL     1       0.626  14.902  22.295  0.00  0.00    +0.000 A 
ATOM     25  C   UNL     1      -0.638  14.760  22.919  0.00  0.00    +0.000 A 
ATOM     26  C   UNL     1      -1.454  13.514  23.050  0.00  0.00    +0.000 A 
ATOM     27  C   UNL     1      -0.972  12.174  22.553  0.00  0.00    +0.000 C 
ATOM     28  C   UNL     1      -2.667  13.577  23.644  0.00  0.00    +0.000 A 
ATOM     29  C   UNL     1      -3.612  12.412  23.828  0.00  0.00    +0.000 C 
ATOM     30  C   UNL     1      -3.222  14.838  24.200  0.00  0.00    +0.000 A 
ATOM     31  O   UNL     1      -4.331  14.885  24.721  0.00  0.00    +0.000 OA
ATOM     32  O   UNL     1      -2.427  15.955  24.114  0.00  0.00    +0.000 OA
ATOM     33  C   UNL     1      -1.171  15.927  23.483  0.00  0.00    +0.000 A 
ATOM     34  C   UNL     1      -0.525  17.168  23.462  0.00  0.00    +0.000 A 
ENDBRANCH  20  24
ENDBRANCH   1  20
TORSDOF 6
ENDMDL
MODEL 6
REMARK VINA RESULT:      -8.3      3.204     10.988
REMARK  Name = 
REMARK  10 active torsions:
REMARK  status: ('A' for Active; 'I' for Inactive)
REMARK    1  A    between atoms: C_1  and  C_2
REMARK    2  A    between atoms: C_4  and  O_5
REMARK    3  A    between atoms: O_5  and  C_6
REMARK    4  A    between atoms: C_6  and  C_7
REMARK    5  A    between atoms: C_6  and  C_8
REMARK    6  A    between atoms: N_10  and  C_11
REMARK    7  A    between atoms: N_14  and  C_15
REMARK    8  A    between atoms: C_15  and  C_16
REMARK    9  A    between atoms: C_25  and  C_26
REMARK   10  A    between atoms: C_27  and  C_28
REMARK                            x       y       z     vdW  Elec       q    Type
REMARK                         _______ _______ _______ _____ _____    ______ ____
ROOT
ATOM      1  C   UNL     1       1.229   8.186  19.904  0.00  0.00    +0.000 C 
ATOM      2  C   UNL     1       1.419   8.846  21.265  0.00  0.00    +0.000 C 
ENDROOT
BRANCH   1   3
ATOM      3  C   UNL     1       0.760   9.253  18.912  0.00  0.00    +0.000 C 
ATOM      4  O   UNL     1       1.547   9.816  18.153  0.00  0.00    +0.000 OA
ATOM      5  N   UNL     1      -0.601   9.517  18.926  0.00  0.00    +0.000 N 
ATOM      6  H   UNL     1      -1.120   9.123  19.707  0.00  0.00    +0.000 HD
BRANCH   5   7
ATOM      7  C   UNL     1      -1.133  10.676  18.215  0.00  0.00    +0.000 C 
ATOM      8  C   UNL     1      -1.723  11.712  19.170  0.00  0.00    +0.000 C 
ATOM      9  C   UNL     1      -3.200  11.494  19.467  0.00  0.00    +0.000 C 
ATOM     10  N   UNL     1      -3.952  11.488  18.207  0.00  0.00    +0.000 NA
ATOM     11  C   UNL     1      -3.578  10.300  17.426  0.00  0.00    +0.000 C 
ATOM     12  C   UNL     1      -2.087  10.284  17.074  0.00  0.00    +0.000 C 
BRANCH  10  13
ATOM     13  C   UNL     1      -5.412  11.531  18.432  0.00  0.00    +0.000 C 
BRANCH  13  14
ATOM     14  C   UNL     1      -6.011  12.903  18.181  0.00  0.00    +0.000 A 
ATOM     15  C   UNL     1      -6.425  13.279  16.894  0.00  0.00    +0.000 A 
ATOM     16  C   UNL     1      -6.860  14.581  16.640  0.00  0.00    +0.000 A 
ATOM     17  C   UNL     1      -6.903  15.517  17.673  0.00  0.00    +0.000 A 
ATOM     18  C   UNL     1      -6.536  15.144  18.964  0.00  0.00    +0.000 A 
ATOM     19  C   UNL     1      -6.097  13.843  19.220  0.00  0.00    +0.000 A 
ENDBRANCH  13  14
ENDBRANCH  10  13
ENDBRANCH   5   7
ENDBRANCH   1   3
BRANCH   1  20
ATOM     20  O   UNL     1       2.484   7.620  19.506  0.00  0.00    +0.000 OA
BRANCH  20  24
ATOM     21  C   UNL     1       1.332   3.263  21.553  0.00  0.00    +0.000 C 
ATOM     22  C   UNL     1       2.042   4.087  20.519  0.00  0.00    +0.000 A 
ATOM     23  C   UNL     1       1.952   5.480  20.503  0.00  0.00    +0.000 A 
ATOM     24  C   UNL     1       2.630   6.257  19.536  0.00  0.00    +0.000 A 
ATOM     25  C   UNL     1       3.404   5.637  18.524  0.00  0.00    +0.000 A 
ATOM     26  C   UNL     1       4.177   6.305  17.433  0.00  0.00    +0.000 A 
ATOM     27  C   UNL     1       4.276   7.806  17.310  0.00  0.00    +0.000 C 
ATOM     28  C   UNL     1       4.827   5.546  16.522  0.00  0.00    +0.000 A 
ATOM     29  C   UNL     1       5.627   6.074  15.354  0.00  0.00    +0.000 C 
ATOM     30  C   UNL     1       4.824   4.061  16.569  0.00  0.00    +0.000 A 
ATOM     31  O   UNL     1       5.403   3.382  15.727  0.00  0.00    +0.000 OA
ATOM     32  O   UNL     1       4.150   3.476  17.614  0.00  0.00    +0.000 OA
ATOM     33  C   UNL     1       3.447   4.237  18.564  0.00  0.00    +0.000 A 
ATOM     34  C   UNL     1       2.794   3.465  19.531  0.00  0.00    +0.000 A 
ENDBRANCH  20  24
ENDBRANCH   1  20
TORSDOF 6
ENDMDL
MODEL 7
REMARK VINA RESULT:      -8.3      3.771     10.598
REMARK  Name = 
REMARK  10 active torsions:
REMARK  status: ('A' for Active; 'I' for Inactive)
REMARK    1  A    between atoms: C_1  and  C_2
REMARK    2  A    between atoms: C_4  and  O_5
REMARK    3  A    between atoms: O_5  and  C_6
REMARK    4  A    between atoms: C_6  and  C_7
REMARK    5  A    between atoms: C_6  and  C_8
REMARK    6  A    between atoms: N_10  and  C_11
REMARK    7  A    between atoms: N_14  and  C_15
REMARK    8  A    between atoms: C_15  and  C_16
REMARK    9  A    between atoms: C_25  and  C_26
REMARK   10  A    between atoms: C_27  and  C_28
REMARK                            x       y       z     vdW  Elec       q    Type
REMARK                         _______ _______ _______ _____ _____    ______ ____
ROOT
ATOM      1  C   UNL     1       1.298   7.880  20.041  0.00  0.00    +0.000 C 
ATOM      2  C   UNL     1       1.364   8.582  21.393  0.00  0.00    +0.000 C 
ENDROOT
BRANCH   1   3
ATOM      3  C   UNL     1       0.917   8.914  18.980  0.00  0.00    +0.000 C 
ATOM      4  O   UNL     1       1.291   8.807  17.813  0.00  0.00    +0.000 OA
ATOM      5  N   UNL     1       0.118   9.955  19.428  0.00  0.00    +0.000 N 
ATOM      6  H   UNL     1       0.018  10.035  20.437  0.00  0.00    +0.000 HD
BRANCH   5   7
ATOM      7  C   UNL     1      -0.105  11.127  18.585  0.00  0.00    +0.000 C 
ATOM      8  C   UNL     1       1.053  12.119  18.667  0.00  0.00    +0.000 C 
ATOM      9  C   UNL     1       0.888  13.156  19.770  0.00  0.00    +0.000 C 
ATOM     10  N   UNL     1      -0.376  13.876  19.573  0.00  0.00    +0.000 NA
ATOM     11  C   UNL     1      -1.497  12.951  19.798  0.00  0.00    +0.000 C 
ATOM     12  C   UNL     1      -1.481  11.772  18.820  0.00  0.00    +0.000 C 
BRANCH  10  13
ATOM     13  C   UNL     1      -0.484  15.057  20.455  0.00  0.00    +0.000 C 
BRANCH  13  14
ATOM     14  C   UNL     1      -0.094  16.351  19.762  0.00  0.00    +0.000 A 
ATOM     15  C   UNL     1      -0.629  16.681  18.507  0.00  0.00    +0.000 A 
ATOM     16  C   UNL     1      -0.176  17.807  17.817  0.00  0.00    +0.000 A 
ATOM     17  C   UNL     1       0.802  18.625  18.380  0.00  0.00    +0.000 A 
ATOM     18  C   UNL     1       1.311  18.332  19.644  0.00  0.00    +0.000 A 
ATOM     19  C   UNL     1       0.862  17.204  20.335  0.00  0.00    +0.000 A 
ENDBRANCH  13  14
ENDBRANCH  10  13
ENDBRANCH   5   7
ENDBRANCH   1   3
BRANCH   1  20
ATOM     20  O   UNL     1       2.583   7.308  19.774  0.00  0.00    +0.000 OA
BRANCH  20  24
ATOM     21  C   UNL     1       1.354   2.878  21.610  0.00  0.00    +0.000 C 
ATOM     22  C   UNL     1       2.073   3.738  20.612  0.00  0.00    +0.000 A 
ATOM     23  C   UNL     1       2.013   5.131  20.667  0.00  0.00    +0.000 A 
ATOM     24  C   UNL     1       2.700   5.941  19.735  0.00  0.00    +0.000 A 
ATOM     25  C   UNL     1       3.453   5.358  18.685  0.00  0.00    +0.000 A 
ATOM     26  C   UNL     1       4.232   6.063  17.622  0.00  0.00    +0.000 A 
ATOM     27  C   UNL     1       4.362   7.565  17.575  0.00  0.00    +0.000 C 
ATOM     28  C   UNL     1       4.857   5.337  16.668  0.00  0.00    +0.000 A 
ATOM     29  C   UNL     1       5.660   5.906  15.522  0.00  0.00    +0.000 C 
ATOM     30  C   UNL     1       4.823   3.852  16.641  0.00  0.00    +0.000 A 
ATOM     31  O   UNL     1       5.381   3.205  15.761  0.00  0.00    +0.000 OA
ATOM     32  O   UNL     1       4.145   3.229  17.662  0.00  0.00    +0.000 OA
ATOM     33  C   UNL     1       3.466   3.956  18.655  0.00  0.00    +0.000 A 
ATOM     34  C   UNL     1       2.804   3.150  19.588  0.00  0.00    +0.000 A 
ENDBRANCH  20  24
ENDBRANCH   1  20
TORSDOF 6
ENDMDL
MODEL 8
REMARK VINA RESULT:      -8.3      4.161      5.916
REMARK  Name = 
REMARK  10 active torsions:
REMARK  status: ('A' for Active; 'I' for Inactive)
REMARK    1  A    between atoms: C_1  and  C_2
REMARK    2  A    between atoms: C_4  and  O_5
REMARK    3  A    between atoms: O_5  and  C_6
REMARK    4  A    between atoms: C_6  and  C_7
REMARK    5  A    between atoms: C_6  and  C_8
REMARK    6  A    between atoms: N_10  and  C_11
REMARK    7  A    between atoms: N_14  and  C_15
REMARK    8  A    between atoms: C_15  and  C_16
REMARK    9  A    between atoms: C_25  and  C_26
REMARK   10  A    between atoms: C_27  and  C_28
REMARK                            x       y       z     vdW  Elec       q    Type
REMARK                         _______ _______ _______ _____ _____    ______ ____
ROOT
ATOM      1  C   UNL     1       1.162  13.988  19.509  0.00  0.00    +0.000 C 
ATOM      2  C   UNL     1       2.566  13.650  19.999  0.00  0.00    +0.000 C 
ENDROOT
BRANCH   1   3
ATOM      3  C   UNL     1       0.525  12.711  18.956  0.00  0.00    +0.000 C 
ATOM      4  O   UNL     1      -0.460  12.750  18.221  0.00  0.00    +0.000 OA
ATOM      5  N   UNL     1       1.147  11.529  19.330  0.00  0.00    +0.000 N 
ATOM      6  H   UNL     1       1.837  11.608  20.072  0.00  0.00    +0.000 HD
BRANCH   5   7
ATOM      7  C   UNL     1       0.498  10.246  19.079  0.00  0.00    +0.000 C 
ATOM      8  C   UNL     1       0.383   9.404  20.348  0.00  0.00    +0.000 C 
ATOM      9  C   UNL     1       1.585   8.500  20.589  0.00  0.00    +0.000 C 
ATOM     10  N   UNL     1       1.774   7.626  19.424  0.00  0.00    +0.000 NA
ATOM     11  C   UNL     1       2.182   8.442  18.271  0.00  0.00    +0.000 C 
ATOM     12  C   UNL     1       1.125   9.486  17.897  0.00  0.00    +0.000 C 
BRANCH  10  13
ATOM     13  C   UNL     1       2.761   6.558  19.688  0.00  0.00    +0.000 C 
BRANCH  13  14
ATOM     14  C   UNL     1       2.174   5.164  19.557  0.00  0.00    +0.000 A 
ATOM     15  C   UNL     1       2.036   4.561  18.297  0.00  0.00    +0.000 A 
ATOM     16  C   UNL     1       1.384   3.333  18.165  0.00  0.00    +0.000 A 
ATOM     17  C   UNL     1       0.879   2.686  19.293  0.00  0.00    +0.000 A 
ATOM     18  C   UNL     1       1.048   3.254  20.554  0.00  0.00    +0.000 A 
ATOM     19  C   UNL     1       1.697   4.483  20.687  0.00  0.00    +0.000 A 
ENDBRANCH  13  14
ENDBRANCH  10  13
ENDBRANCH   5   7
ENDBRANCH   1   3
BRANCH   1  20
ATOM     20  O   UNL     1       0.417  14.504  20.618  0.00  0.00    +0.000 OA
BRANCH  20  24
ATOM     21  C   UNL     1      -1.164  18.295  17.856  0.00  0.00    +0.000 C 
ATOM     22  C   UNL     1      -1.324  17.346  19.008  0.00  0.00    +0.000 A 
ATOM     23  C   UNL     1      -0.366  16.374  19.295  0.00  0.00    +0.000 A 
ATOM     24  C   UNL     1      -0.510  15.488  20.387  0.00  0.00    +0.000 A 
ATOM     25  C   UNL     1      -1.660  15.540  21.213  0.00  0.00    +0.000 A 
ATOM     26  C   UNL     1      -1.970  14.683  22.399  0.00  0.00    +0.000 A 
ATOM     27  C   UNL     1      -1.010  13.640  22.917  0.00  0.00    +0.000 C 
ATOM     28  C   UNL     1      -3.146  14.848  23.045  0.00  0.00    +0.000 A 
ATOM     29  C   UNL     1      -3.607  14.045  24.239  0.00  0.00    +0.000 C 
ATOM     30  C   UNL     1      -4.147  15.867  22.640  0.00  0.00    +0.000 A 
ATOM     31  O   UNL     1      -5.218  15.996  23.224  0.00  0.00    +0.000 OA
ATOM     32  O   UNL     1      -3.812  16.677  21.581  0.00  0.00    +0.000 OA
ATOM     33  C   UNL     1      -2.607  16.517  20.875  0.00  0.00    +0.000 A 
ATOM     34  C   UNL     1      -2.459  17.409  19.807  0.00  0.00    +0.000 A 
ENDBRANCH  20  24
ENDBRANCH   1  20
TORSDOF 6
ENDMDL
MODEL 9
REMARK VINA RESULT:      -8.3      3.402     11.217
REMARK  Name = 
REMARK  10 active torsions:
REMARK  status: ('A' for Active; 'I' for Inactive)
REMARK    1  A    between atoms: C_1  and  C_2
REMARK    2  A    between atoms: C_4  and  O_5
REMARK    3  A    between atoms: O_5  and  C_6
REMARK    4  A    between atoms: C_6  and  C_7
REMARK    5  A    between atoms: C_6  and  C_8
REMARK    6  A    between atoms: N_10  and  C_11
REMARK    7  A    between atoms: N_14  and  C_15
REMARK    8  A    between atoms: C_15  and  C_16
REMARK    9  A    between atoms: C_25  and  C_26
REMARK   10  A    between atoms: C_27  and  C_28
REMARK                            x       y       z     vdW  Elec       q    Type
REMARK                         _______ _______ _______ _____ _____    ______ ____
ROOT
ATOM      1  C   UNL     1       2.397   8.181  18.723  0.00  0.00    +0.000 C 
ATOM      2  C   UNL     1       1.973   8.905  17.449  0.00  0.00    +0.000 C 
ENDROOT
BRANCH   1   3
ATOM      3  C   UNL     1       1.465   8.615  19.856  0.00  0.00    +0.000 C 
ATOM      4  O   UNL     1       1.381   7.972  20.901  0.00  0.00    +0.000 OA
ATOM      5  N   UNL     1       0.748   9.778  19.621  0.00  0.00    +0.000 N 
ATOM      6  H   UNL     1       0.765  10.123  18.664  0.00  0.00    +0.000 HD
BRANCH   5   7
ATOM      7  C   UNL     1      -0.349  10.158  20.506  0.00  0.00    +0.000 C 
ATOM      8  C   UNL     1      -1.505  10.800  19.742  0.00  0.00    +0.000 C 
ATOM      9  C   UNL     1      -1.381  12.313  19.610  0.00  0.00    +0.000 C 
ATOM     10  N   UNL     1      -1.272  12.908  20.948  0.00  0.00    +0.000 NA
ATOM     11  C   UNL     1       0.008  12.508  21.550  0.00  0.00    +0.000 C 
ATOM     12  C   UNL     1       0.123  10.989  21.711  0.00  0.00    +0.000 C 
BRANCH  10  13
ATOM     13  C   UNL     1      -1.399  14.380  20.911  0.00  0.00    +0.000 C 
BRANCH  13  14
ATOM     14  C   UNL     1      -2.496  14.904  21.819  0.00  0.00    +0.000 A 
ATOM     15  C   UNL     1      -3.223  14.028  22.641  0.00  0.00    +0.000 A 
ATOM     16  C   UNL     1      -4.313  14.491  23.382  0.00  0.00    +0.000 A 
ATOM     17  C   UNL     1      -4.677  15.835  23.323  0.00  0.00    +0.000 A 
ATOM     18  C   UNL     1      -3.938  16.723  22.544  0.00  0.00    +0.000 A 
ATOM     19  C   UNL     1      -2.849  16.262  21.799  0.00  0.00    +0.000 A 
ENDBRANCH  13  14
ENDBRANCH  10  13
ENDBRANCH   5   7
ENDBRANCH   1   3
BRANCH   1  20
ATOM     20  O   UNL     1       2.307   6.772  18.484  0.00  0.00    +0.000 OA
BRANCH  20  24
ATOM     21  C   UNL     1       6.905   6.283  16.717  0.00  0.00    +0.000 C 
ATOM     22  C   UNL     1       5.758   5.804  17.559  0.00  0.00    +0.000 A 
ATOM     23  C   UNL     1       4.550   6.500  17.616  0.00  0.00    +0.000 A 
ATOM     24  C   UNL     1       3.466   6.043  18.399  0.00  0.00    +0.000 A 
ATOM     25  C   UNL     1       3.584   4.869  19.183  0.00  0.00    +0.000 A 
ATOM     26  C   UNL     1       2.544   4.252  20.062  0.00  0.00    +0.000 A 
ATOM     27  C   UNL     1       1.147   4.810  20.178  0.00  0.00    +0.000 C 
ATOM     28  C   UNL     1       2.853   3.146  20.776  0.00  0.00    +0.000 A 
ATOM     29  C   UNL     1       1.918   2.427  21.721  0.00  0.00    +0.000 C 
ATOM     30  C   UNL     1       4.187   2.496  20.710  0.00  0.00    +0.000 A 
ATOM     31  O   UNL     1       4.460   1.503  21.376  0.00  0.00    +0.000 OA
ATOM     32  O   UNL     1       5.105   3.053  19.852  0.00  0.00    +0.000 OA
ATOM     33  C   UNL     1       4.823   4.215  19.113  0.00  0.00    +0.000 A 
ATOM     34  C   UNL     1       5.891   4.653  18.324  0.00  0.00    +0.000 A 
ENDBRANCH  20  24
ENDBRANCH   1  20
TORSDOF 6
ENDMDL
