MODEL 1
REMARK VINA RESULT:      -7.0      0.000      0.000
REMARK  Name = 
REMARK  7 active torsions:
REMARK  status: ('A' for Active; 'I' for Inactive)
REMARK    1  A    between atoms: C_1  and  C_2
REMARK    2  A    between atoms: C_4  and  C_5
REMARK    3  A    between atoms: N_7  and  C_8
REMARK    4  A    between atoms: C_8  and  C_9
REMARK    5  A    between atoms: C_9  and  C_10
REMARK    6  A    between atoms: C_13  and  C_14
REMARK    7  A    between atoms: N_19  and  C_20
REMARK                            x       y       z     vdW  Elec       q    Type
REMARK                         _______ _______ _______ _____ _____    ______ ____
ROOT
ATOM      1  C   UNL     1       3.749   6.260  18.166  0.00  0.00    +0.000 C 
ATOM      2  O   UNL     1       3.252   7.322  17.802  0.00  0.00    +0.000 OA
ATOM      3  N   UNL     1       5.094   5.987  18.029  0.00  0.00    +0.000 N 
ATOM      4  H   UNL     1       5.403   5.080  18.370  0.00  0.00    +0.000 HD
ENDROOT
BRANCH   1   8
ATOM      5  C   UNL     1       0.620   2.320  18.871  0.00  0.00    +0.000 C 
ATOM      6  C   UNL     1       1.567   3.451  19.018  0.00  0.00    +0.000 A 
ATOM      7  C   UNL     1       2.128   4.273  18.067  0.00  0.00    +0.000 A 
ATOM      8  C   UNL     1       2.954   5.186  18.777  0.00  0.00    +0.000 A 
ATOM      9  N   UNL     1       2.914   4.938  20.103  0.00  0.00    +0.000 NA
ATOM     10  N   UNL     1       2.070   3.886  20.215  0.00  0.00    +0.000 N 
ATOM     11  C   UNL     1       1.774   3.337  21.520  0.00  0.00    +0.000 C 
ENDBRANCH   1   8
BRANCH   3  12
ATOM     12  C   UNL     1       6.007   6.923  17.396  0.00  0.00    +0.000 C 
BRANCH  12  13
ATOM     13  C   UNL     1       7.247   6.247  16.806  0.00  0.00    +0.000 C 
BRANCH  13  14
ATOM     14  C   UNL     1       6.876   5.208  15.811  0.00  0.00    +0.000 A 
ATOM     15  N   UNL     1       6.365   4.026  16.175  0.00  0.00    +0.000 NA
ATOM     16  O   UNL     1       6.050   3.427  14.954  0.00  0.00    +0.000 OA
ATOM     17  C   UNL     1       6.411   4.312  13.973  0.00  0.00    +0.000 A 
ATOM     18  N   UNL     1       6.960   5.407  14.456  0.00  0.00    +0.000 NA
BRANCH  17  19
ATOM     19  C   UNL     1       6.108   4.060  12.502  0.00  0.00    +0.000 C 
ATOM     20  C   UNL     1       7.056   3.147  11.744  0.00  0.00    +0.000 C 
ATOM     21  C   UNL     1       5.659   2.703  12.009  0.00  0.00    +0.000 C 
ENDBRANCH  17  19
ENDBRANCH  13  14
ENDBRANCH  12  13
ENDBRANCH   3  12
TORSDOF 5
ENDMDL
MODEL 2
REMARK VINA RESULT:      -7.0      1.714      1.948
REMARK  Name = 
REMARK  7 active torsions:
REMARK  status: ('A' for Active; 'I' for Inactive)
REMARK    1  A    between atoms: C_1  and  C_2
REMARK    2  A    between atoms: C_4  and  C_5
REMARK    3  A    between atoms: N_7  and  C_8
REMARK    4  A    between atoms: C_8  and  C_9
REMARK    5  A    between atoms: C_9  and  C_10
REMARK    6  A    between atoms: C_13  and  C_14
REMARK    7  A    between atoms: N_19  and  C_20
REMARK                            x       y       z     vdW  Elec       q    Type
REMARK                         _______ _______ _______ _____ _____    ______ ____
ROOT
ATOM      1  C   UNL     1       5.408   4.330  19.120  0.00  0.00    +0.000 C 
ATOM      2  O   UNL     1       6.003   5.057  19.910  0.00  0.00    +0.000 OA
ATOM      3  N   UNL     1       5.927   3.994  17.888  0.00  0.00    +0.000 N 
ATOM      4  H   UNL     1       5.355   3.379  17.314  0.00  0.00    +0.000 HD
ENDROOT
BRANCH   1   8
ATOM      5  C   UNL     1       0.770   2.303  18.678  0.00  0.00    +0.000 C 
ATOM      6  C   UNL     1       2.056   2.866  19.155  0.00  0.00    +0.000 A 
ATOM      7  C   UNL     1       3.146   3.322  18.448  0.00  0.00    +0.000 A 
ATOM      8  C   UNL     1       4.088   3.756  19.419  0.00  0.00    +0.000 A 
ATOM      9  N   UNL     1       3.610   3.571  20.667  0.00  0.00    +0.000 NA
ATOM     10  N   UNL     1       2.384   3.033  20.473  0.00  0.00    +0.000 N 
ATOM     11  C   UNL     1       1.556   2.700  21.612  0.00  0.00    +0.000 C 
ENDBRANCH   1   8
BRANCH   3  12
ATOM     12  C   UNL     1       7.197   4.521  17.420  0.00  0.00    +0.000 C 
BRANCH  12  13
ATOM     13  C   UNL     1       7.040   5.647  16.395  0.00  0.00    +0.000 C 
BRANCH  13  14
ATOM     14  C   UNL     1       6.885   5.110  15.019  0.00  0.00    +0.000 A 
ATOM     15  N   UNL     1       7.767   5.378  14.048  0.00  0.00    +0.000 NA
ATOM     16  O   UNL     1       7.319   4.590  12.987  0.00  0.00    +0.000 OA
ATOM     17  C   UNL     1       6.204   3.927  13.426  0.00  0.00    +0.000 A 
ATOM     18  N   UNL     1       5.878   4.248  14.661  0.00  0.00    +0.000 NA
BRANCH  17  19
ATOM     19  C   UNL     1       5.501   2.873  12.581  0.00  0.00    +0.000 C 
ATOM     20  C   UNL     1       4.434   3.356  11.615  0.00  0.00    +0.000 C 
ATOM     21  C   UNL     1       5.707   2.793  11.086  0.00  0.00    +0.000 C 
ENDBRANCH  17  19
ENDBRANCH  13  14
ENDBRANCH  12  13
ENDBRANCH   3  12
TORSDOF 5
ENDMDL
MODEL 3
REMARK VINA RESULT:      -6.9      1.607      6.877
REMARK  Name = 
REMARK  7 active torsions:
REMARK  status: ('A' for Active; 'I' for Inactive)
REMARK    1  A    between atoms: C_1  and  C_2
REMARK    2  A    between atoms: C_4  and  C_5
REMARK    3  A    between atoms: N_7  and  C_8
REMARK    4  A    between atoms: C_8  and  C_9
REMARK    5  A    between atoms: C_9  and  C_10
REMARK    6  A    between atoms: C_13  and  C_14
REMARK    7  A    between atoms: N_19  and  C_20
REMARK                            x       y       z     vdW  Elec       q    Type
REMARK                         _______ _______ _______ _____ _____    ______ ____
ROOT
ATOM      1  C   UNL     1       7.019   5.241  16.398  0.00  0.00    +0.000 C 
ATOM      2  O   UNL     1       7.589   6.271  16.744  0.00  0.00    +0.000 OA
ATOM      3  N   UNL     1       6.463   4.362  17.303  0.00  0.00    +0.000 N 
ATOM      4  H   UNL     1       6.007   3.543  16.909  0.00  0.00    +0.000 HD
ENDROOT
BRANCH   1   8
ATOM      5  C   UNL     1       5.566   2.956  12.099  0.00  0.00    +0.000 C 
ATOM      6  C   UNL     1       6.198   3.808  13.134  0.00  0.00    +0.000 A 
ATOM      7  C   UNL     1       6.000   3.853  14.495  0.00  0.00    +0.000 A 
ATOM      8  C   UNL     1       6.882   4.853  14.987  0.00  0.00    +0.000 A 
ATOM      9  N   UNL     1       7.586   5.408  13.979  0.00  0.00    +0.000 NA
ATOM     10  N   UNL     1       7.151   4.757  12.876  0.00  0.00    +0.000 N 
ATOM     11  C   UNL     1       7.700   5.091  11.580  0.00  0.00    +0.000 C 
ENDBRANCH   1   8
BRANCH   3  12
ATOM     12  C   UNL     1       6.559   4.574  18.737  0.00  0.00    +0.000 C 
BRANCH  12  13
ATOM     13  C   UNL     1       5.658   5.705  19.239  0.00  0.00    +0.000 C 
BRANCH  13  14
ATOM     14  C   UNL     1       4.222   5.395  19.012  0.00  0.00    +0.000 A 
ATOM     15  N   UNL     1       3.662   5.470  17.798  0.00  0.00    +0.000 NA
ATOM     16  O   UNL     1       2.372   4.984  18.013  0.00  0.00    +0.000 OA
ATOM     17  C   UNL     1       2.283   4.669  19.343  0.00  0.00    +0.000 A 
ATOM     18  N   UNL     1       3.388   4.942  20.003  0.00  0.00    +0.000 NA
BRANCH  17  19
ATOM     19  C   UNL     1       1.054   3.991  19.935  0.00  0.00    +0.000 C 
ATOM     20  C   UNL     1       0.839   2.526  19.596  0.00  0.00    +0.000 C 
ATOM     21  C   UNL     1       1.177   2.918  20.993  0.00  0.00    +0.000 C 
ENDBRANCH  17  19
ENDBRANCH  13  14
ENDBRANCH  12  13
ENDBRANCH   3  12
TORSDOF 5
ENDMDL
MODEL 4
REMARK VINA RESULT:      -6.9      2.679      4.312
REMARK  Name = 
REMARK  7 active torsions:
REMARK  status: ('A' for Active; 'I' for Inactive)
REMARK    1  A    between atoms: C_1  and  C_2
REMARK    2  A    between atoms: C_4  and  C_5
REMARK    3  A    between atoms: N_7  and  C_8
REMARK    4  A    between atoms: C_8  and  C_9
REMARK    5  A    between atoms: C_9  and  C_10
REMARK    6  A    between atoms: C_13  and  C_14
REMARK    7  A    between atoms: N_19  and  C_20
REMARK                            x       y       z     vdW  Elec       q    Type
REMARK                         _______ _______ _______ _____ _____    ______ ____
ROOT
ATOM      1  C   UNL     1       2.194   4.875  20.427  0.00  0.00    +0.000 C 
ATOM      2  O   UNL     1       2.413   4.527  21.584  0.00  0.00    +0.000 OA
ATOM      3  N   UNL     1       2.108   3.974  19.387  0.00  0.00    +0.000 N 
ATOM      4  H   UNL     1       1.915   4.368  18.469  0.00  0.00    +0.000 HD
ENDROOT
BRANCH   1   8
ATOM      5  C   UNL     1       2.196   9.272  17.883  0.00  0.00    +0.000 C 
ATOM      6  C   UNL     1       2.038   8.184  18.877  0.00  0.00    +0.000 A 
ATOM      7  C   UNL     1       2.383   6.854  18.804  0.00  0.00    +0.000 A 
ATOM      8  C   UNL     1       2.006   6.283  20.050  0.00  0.00    +0.000 A 
ATOM      9  N   UNL     1       1.447   7.211  20.854  0.00  0.00    +0.000 NA
ATOM     10  N   UNL     1       1.480   8.346  20.117  0.00  0.00    +0.000 N 
ATOM     11  C   UNL     1       0.960   9.578  20.669  0.00  0.00    +0.000 C 
ENDBRANCH   1   8
BRANCH   3  12
ATOM     12  C   UNL     1       2.321   2.551  19.584  0.00  0.00    +0.000 C 
BRANCH  12  13
ATOM     13  C   UNL     1       3.646   2.054  19.000  0.00  0.00    +0.000 C 
BRANCH  13  14
ATOM     14  C   UNL     1       4.422   3.168  18.396  0.00  0.00    +0.000 A 
ATOM     15  N   UNL     1       5.375   3.820  19.075  0.00  0.00    +0.000 NA
ATOM     16  O   UNL     1       5.921   4.673  18.115  0.00  0.00    +0.000 OA
ATOM     17  C   UNL     1       5.234   4.452  16.950  0.00  0.00    +0.000 A 
ATOM     18  N   UNL     1       4.276   3.559  17.089  0.00  0.00    +0.000 NA
BRANCH  17  19
ATOM     19  C   UNL     1       5.628   5.117  15.638  0.00  0.00    +0.000 C 
ATOM     20  C   UNL     1       6.940   4.685  15.007  0.00  0.00    +0.000 C 
ATOM     21  C   UNL     1       5.653   4.345  14.338  0.00  0.00    +0.000 C 
ENDBRANCH  17  19
ENDBRANCH  13  14
ENDBRANCH  12  13
ENDBRANCH   3  12
TORSDOF 5
ENDMDL
MODEL 5
REMARK VINA RESULT:      -6.8      1.348      1.718
REMARK  Name = 
REMARK  7 active torsions:
REMARK  status: ('A' for Active; 'I' for Inactive)
REMARK    1  A    between atoms: C_1  and  C_2
REMARK    2  A    between atoms: C_4  and  C_5
REMARK    3  A    between atoms: N_7  and  C_8
REMARK    4  A    between atoms: C_8  and  C_9
REMARK    5  A    between atoms: C_9  and  C_10
REMARK    6  A    between atoms: C_13  and  C_14
REMARK    7  A    between atoms: N_19  and  C_20
REMARK                            x       y       z     vdW  Elec       q    Type
REMARK                         _______ _______ _______ _____ _____    ______ ____
ROOT
ATOM      1  C   UNL     1       5.069   5.125  19.012  0.00  0.00    +0.000 C 
ATOM      2  O   UNL     1       6.071   5.149  19.720  0.00  0.00    +0.000 OA
ATOM      3  N   UNL     1       4.978   5.833  17.832  0.00  0.00    +0.000 N 
ATOM      4  H   UNL     1       4.105   5.736  17.318  0.00  0.00    +0.000 HD
ENDROOT
BRANCH   1   8
ATOM      5  C   UNL     1       1.402   2.729  21.588  0.00  0.00    +0.000 C 
ATOM      6  C   UNL     1       2.293   3.308  20.554  0.00  0.00    +0.000 A 
ATOM      7  C   UNL     1       3.428   4.077  20.684  0.00  0.00    +0.000 A 
ATOM      8  C   UNL     1       3.876   4.340  19.361  0.00  0.00    +0.000 A 
ATOM      9  N   UNL     1       3.055   3.770  18.454  0.00  0.00    +0.000 NA
ATOM     10  N   UNL     1       2.112   3.156  19.205  0.00  0.00    +0.000 N 
ATOM     11  C   UNL     1       1.046   2.420  18.561  0.00  0.00    +0.000 C 
ENDBRANCH   1   8
BRANCH   3  12
ATOM     12  C   UNL     1       6.049   6.698  17.372  0.00  0.00    +0.000 C 
BRANCH  12  13
ATOM     13  C   UNL     1       7.256   5.926  16.832  0.00  0.00    +0.000 C 
BRANCH  13  14
ATOM     14  C   UNL     1       6.854   4.964  15.774  0.00  0.00    +0.000 A 
ATOM     15  N   UNL     1       6.158   3.854  16.050  0.00  0.00    +0.000 NA
ATOM     16  O   UNL     1       5.892   3.324  14.786  0.00  0.00    +0.000 OA
ATOM     17  C   UNL     1       6.462   4.170  13.872  0.00  0.00    +0.000 A 
ATOM     18  N   UNL     1       7.099   5.173  14.440  0.00  0.00    +0.000 NA
BRANCH  17  19
ATOM     19  C   UNL     1       6.278   3.987  12.372  0.00  0.00    +0.000 C 
ATOM     20  C   UNL     1       6.558   2.608  11.801  0.00  0.00    +0.000 C 
ATOM     21  C   UNL     1       5.164   3.132  11.812  0.00  0.00    +0.000 C 
ENDBRANCH  17  19
ENDBRANCH  13  14
ENDBRANCH  12  13
ENDBRANCH   3  12
TORSDOF 5
ENDMDL
MODEL 6
REMARK VINA RESULT:      -6.8      3.407      5.052
REMARK  Name = 
REMARK  7 active torsions:
REMARK  status: ('A' for Active; 'I' for Inactive)
REMARK    1  A    between atoms: C_1  and  C_2
REMARK    2  A    between atoms: C_4  and  C_5
REMARK    3  A    between atoms: N_7  and  C_8
REMARK    4  A    between atoms: C_8  and  C_9
REMARK    5  A    between atoms: C_9  and  C_10
REMARK    6  A    between atoms: C_13  and  C_14
REMARK    7  A    between atoms: N_19  and  C_20
REMARK                            x       y       z     vdW  Elec       q    Type
REMARK                         _______ _______ _______ _____ _____    ______ ____
ROOT
ATOM      1  C   UNL     1       2.141   4.684  20.397  0.00  0.00    +0.000 C 
ATOM      2  O   UNL     1       2.398   4.307  21.536  0.00  0.00    +0.000 OA
ATOM      3  N   UNL     1       1.976   3.807  19.346  0.00  0.00    +0.000 N 
ATOM      4  H   UNL     1       1.757   4.224  18.444  0.00  0.00    +0.000 HD
ENDROOT
BRANCH   1   8
ATOM      5  C   UNL     1       2.274   9.145  17.967  0.00  0.00    +0.000 C 
ATOM      6  C   UNL     1       2.076   8.035  18.930  0.00  0.00    +0.000 A 
ATOM      7  C   UNL     1       2.397   6.700  18.829  0.00  0.00    +0.000 A 
ATOM      8  C   UNL     1       1.987   6.105  20.053  0.00  0.00    +0.000 A 
ATOM      9  N   UNL     1       1.431   7.023  20.870  0.00  0.00    +0.000 NA
ATOM     10  N   UNL     1       1.500   8.176  20.164  0.00  0.00    +0.000 N 
ATOM     11  C   UNL     1       0.993   9.403  20.738  0.00  0.00    +0.000 C 
ENDBRANCH   1   8
BRANCH   3  12
ATOM     12  C   UNL     1       2.146   2.374  19.508  0.00  0.00    +0.000 C 
BRANCH  12  13
ATOM     13  C   UNL     1       3.443   1.848  18.888  0.00  0.00    +0.000 C 
BRANCH  13  14
ATOM     14  C   UNL     1       4.311   2.960  18.422  0.00  0.00    +0.000 A 
ATOM     15  N   UNL     1       4.264   3.420  17.166  0.00  0.00    +0.000 NA
ATOM     16  O   UNL     1       5.124   4.519  17.197  0.00  0.00    +0.000 OA
ATOM     17  C   UNL     1       5.609   4.607  18.475  0.00  0.00    +0.000 A 
ATOM     18  N   UNL     1       5.163   3.643  19.254  0.00  0.00    +0.000 NA
BRANCH  17  19
ATOM     19  C   UNL     1       6.491   5.762  18.931  0.00  0.00    +0.000 C 
ATOM     20  C   UNL     1       7.992   5.535  18.925  0.00  0.00    +0.000 C 
ATOM     21  C   UNL     1       7.389   6.499  17.963  0.00  0.00    +0.000 C 
ENDBRANCH  17  19
ENDBRANCH  13  14
ENDBRANCH  12  13
ENDBRANCH   3  12
TORSDOF 5
ENDMDL
MODEL 7
REMARK VINA RESULT:      -6.7      1.612      2.084
REMARK  Name = 
REMARK  7 active torsions:
REMARK  status: ('A' for Active; 'I' for Inactive)
REMARK    1  A    between atoms: C_1  and  C_2
REMARK    2  A    between atoms: C_4  and  C_5
REMARK    3  A    between atoms: N_7  and  C_8
REMARK    4  A    between atoms: C_8  and  C_9
REMARK    5  A    between atoms: C_9  and  C_10
REMARK    6  A    between atoms: C_13  and  C_14
REMARK    7  A    between atoms: N_19  and  C_20
REMARK                            x       y       z     vdW  Elec       q    Type
REMARK                         _______ _______ _______ _____ _____    ______ ____
ROOT
ATOM      1  C   UNL     1       5.027   4.743  18.872  0.00  0.00    +0.000 C 
ATOM      2  O   UNL     1       6.085   4.604  19.478  0.00  0.00    +0.000 OA
ATOM      3  N   UNL     1       4.906   5.565  17.772  0.00  0.00    +0.000 N 
ATOM      4  H   UNL     1       3.986   5.602  17.339  0.00  0.00    +0.000 HD
ENDROOT
BRANCH   1   8
ATOM      5  C   UNL     1       1.307   2.600  21.590  0.00  0.00    +0.000 C 
ATOM      6  C   UNL     1       2.192   3.122  20.522  0.00  0.00    +0.000 A 
ATOM      7  C   UNL     1       3.387   3.801  20.607  0.00  0.00    +0.000 A 
ATOM      8  C   UNL     1       3.794   4.047  19.268  0.00  0.00    +0.000 A 
ATOM      9  N   UNL     1       2.893   3.552  18.394  0.00  0.00    +0.000 NA
ATOM     10  N   UNL     1       1.940   3.002  19.181  0.00  0.00    +0.000 N 
ATOM     11  C   UNL     1       0.793   2.358  18.579  0.00  0.00    +0.000 C 
ENDBRANCH   1   8
BRANCH   3  12
ATOM     12  C   UNL     1       6.017   6.363  17.285  0.00  0.00    +0.000 C 
BRANCH  12  13
ATOM     13  C   UNL     1       7.176   5.518  16.750  0.00  0.00    +0.000 C 
BRANCH  13  14
ATOM     14  C   UNL     1       6.925   5.075  15.355  0.00  0.00    +0.000 A 
ATOM     15  N   UNL     1       7.700   5.464  14.335  0.00  0.00    +0.000 NA
ATOM     16  O   UNL     1       7.200   4.731  13.258  0.00  0.00    +0.000 OA
ATOM     17  C   UNL     1       6.164   3.975  13.739  0.00  0.00    +0.000 A 
ATOM     18  N   UNL     1       5.936   4.185  15.019  0.00  0.00    +0.000 NA
BRANCH  17  19
ATOM     19  C   UNL     1       5.442   2.946  12.878  0.00  0.00    +0.000 C 
ATOM     20  C   UNL     1       4.631   3.469  11.705  0.00  0.00    +0.000 C 
ATOM     21  C   UNL     1       5.865   2.673  11.453  0.00  0.00    +0.000 C 
ENDBRANCH  17  19
ENDBRANCH  13  14
ENDBRANCH  12  13
ENDBRANCH   3  12
TORSDOF 5
ENDMDL
MODEL 8
REMARK VINA RESULT:      -6.6      2.506      7.537
REMARK  Name = 
REMARK  7 active torsions:
REMARK  status: ('A' for Active; 'I' for Inactive)
REMARK    1  A    between atoms: C_1  and  C_2
REMARK    2  A    between atoms: C_4  and  C_5
REMARK    3  A    between atoms: N_7  and  C_8
REMARK    4  A    between atoms: C_8  and  C_9
REMARK    5  A    between atoms: C_9  and  C_10
REMARK    6  A    between atoms: C_13  and  C_14
REMARK    7  A    between atoms: N_19  and  C_20
REMARK                            x       y       z     vdW  Elec       q    Type
REMARK                         _______ _______ _______ _____ _____    ______ ____
ROOT
ATOM      1  C   UNL     1       6.004   4.902  17.248  0.00  0.00    +0.000 C 
ATOM      2  O   UNL     1       6.454   5.827  17.917  0.00  0.00    +0.000 OA
ATOM      3  N   UNL     1       5.169   3.941  17.779  0.00  0.00    +0.000 N 
ATOM      4  H   UNL     1       4.847   3.223  17.134  0.00  0.00    +0.000 HD
ENDROOT
BRANCH   1   8
ATOM      5  C   UNL     1       5.990   3.349  12.410  0.00  0.00    +0.000 C 
ATOM      6  C   UNL     1       6.259   4.010  13.709  0.00  0.00    +0.000 A 
ATOM      7  C   UNL     1       5.645   3.857  14.932  0.00  0.00    +0.000 A 
ATOM      8  C   UNL     1       6.318   4.736  15.822  0.00  0.00    +0.000 A 
ATOM      9  N   UNL     1       7.297   5.409  15.182  0.00  0.00    +0.000 NA
ATOM     10  N   UNL     1       7.235   4.949  13.911  0.00  0.00    +0.000 N 
ATOM     11  C   UNL     1       8.159   5.452  12.917  0.00  0.00    +0.000 C 
ENDBRANCH   1   8
BRANCH   3  12
ATOM     12  C   UNL     1       4.805   3.933  19.184  0.00  0.00    +0.000 C 
BRANCH  12  13
ATOM     13  C   UNL     1       3.293   4.010  19.414  0.00  0.00    +0.000 C 
BRANCH  13  14
ATOM     14  C   UNL     1       2.851   5.409  19.647  0.00  0.00    +0.000 A 
ATOM     15  N   UNL     1       3.189   6.408  18.822  0.00  0.00    +0.000 NA
ATOM     16  O   UNL     1       2.474   7.493  19.329  0.00  0.00    +0.000 OA
ATOM     17  C   UNL     1       1.778   7.038  20.418  0.00  0.00    +0.000 A 
ATOM     18  N   UNL     1       2.012   5.767  20.672  0.00  0.00    +0.000 NA
BRANCH  17  19
ATOM     19  C   UNL     1       0.781   7.912  21.168  0.00  0.00    +0.000 C 
ATOM     20  C   UNL     1       1.348   8.998  22.065  0.00  0.00    +0.000 C 
ATOM     21  C   UNL     1       0.604   9.375  20.831  0.00  0.00    +0.000 C 
ENDBRANCH  17  19
ENDBRANCH  13  14
ENDBRANCH  12  13
ENDBRANCH   3  12
TORSDOF 5
ENDMDL
MODEL 9
REMARK VINA RESULT:      -6.6      2.791      4.412
REMARK  Name = 
REMARK  7 active torsions:
REMARK  status: ('A' for Active; 'I' for Inactive)
REMARK    1  A    between atoms: C_1  and  C_2
REMARK    2  A    between atoms: C_4  and  C_5
REMARK    3  A    between atoms: N_7  and  C_8
REMARK    4  A    between atoms: C_8  and  C_9
REMARK    5  A    between atoms: C_9  and  C_10
REMARK    6  A    between atoms: C_13  and  C_14
REMARK    7  A    between atoms: N_19  and  C_20
REMARK                            x       y       z     vdW  Elec       q    Type
REMARK                         _______ _______ _______ _____ _____    ______ ____
ROOT
ATOM      1  C   UNL     1       2.209   4.930  20.401  0.00  0.00    +0.000 C 
ATOM      2  O   UNL     1       2.410   4.554  21.552  0.00  0.00    +0.000 OA
ATOM      3  N   UNL     1       2.164   4.058  19.334  0.00  0.00    +0.000 N 
ATOM      4  H   UNL     1       1.983   4.474  18.424  0.00  0.00    +0.000 HD
ENDROOT
BRANCH   1   8
ATOM      5  C   UNL     1       0.892   9.834  20.571  0.00  0.00    +0.000 C 
ATOM      6  C   UNL     1       1.396   8.491  20.199  0.00  0.00    +0.000 A 
ATOM      7  C   UNL     1       1.400   7.312  20.910  0.00  0.00    +0.000 A 
ATOM      8  C   UNL     1       2.000   6.344  20.060  0.00  0.00    +0.000 A 
ATOM      9  N   UNL     1       2.359   6.897  18.882  0.00  0.00    +0.000 NA
ATOM     10  N   UNL     1       1.982   8.191  18.998  0.00  0.00    +0.000 N 
ATOM     11  C   UNL     1       2.208   9.108  17.902  0.00  0.00    +0.000 C 
ENDBRANCH   1   8
BRANCH   3  12
ATOM     12  C   UNL     1       2.403   2.634  19.496  0.00  0.00    +0.000 C 
BRANCH  12  13
ATOM     13  C   UNL     1       3.831   2.219  19.135  0.00  0.00    +0.000 C 
BRANCH  13  14
ATOM     14  C   UNL     1       4.559   3.319  18.451  0.00  0.00    +0.000 A 
ATOM     15  N   UNL     1       5.495   4.047  19.073  0.00  0.00    +0.000 NA
ATOM     16  O   UNL     1       5.996   4.857  18.054  0.00  0.00    +0.000 OA
ATOM     17  C   UNL     1       5.304   4.539  16.916  0.00  0.00    +0.000 A 
ATOM     18  N   UNL     1       4.382   3.622  17.124  0.00  0.00    +0.000 NA
BRANCH  17  19
ATOM     19  C   UNL     1       5.657   5.133  15.559  0.00  0.00    +0.000 C 
ATOM     20  C   UNL     1       6.942   4.657  14.905  0.00  0.00    +0.000 C 
ATOM     21  C   UNL     1       5.629   4.297  14.299  0.00  0.00    +0.000 C 
ENDBRANCH  17  19
ENDBRANCH  13  14
ENDBRANCH  12  13
ENDBRANCH   3  12
TORSDOF 5
ENDMDL
