MODEL 1
REMARK VINA RESULT:      -8.7      0.000      0.000
REMARK  Name = 
REMARK  14 active torsions:
REMARK  status: ('A' for Active; 'I' for Inactive)
REMARK    1  A    between atoms: C_1  and  C_2
REMARK    2  A    between atoms: C_5  and  C_6
REMARK    3  A    between atoms: C_6  and  C_7
REMARK    4  A    between atoms: C_6  and  N_14
REMARK    5  A    between atoms: N_9  and  C_10
REMARK    6  A    between atoms: C_10  and  C_11
REMARK    7  A    between atoms: C_10  and  C_12
REMARK    8  A    between atoms: C_10  and  C_13
REMARK    9  A    between atoms: N_14  and  C_15
REMARK   10  A    between atoms: C_15  and  C_16
REMARK   11  A    between atoms: C_21  and  C_23
REMARK   12  A    between atoms: C_23  and  N_24
REMARK   13  A    between atoms: C_27  and  C_28
REMARK   14  A    between atoms: C_31  and  C_32
REMARK                            x       y       z     vdW  Elec       q    Type
REMARK                         _______ _______ _______ _____ _____    ______ ____
ROOT
ATOM      1  N   UNL     1       4.814   6.249  18.138  0.00  0.00    +0.000 N 
ATOM      2  C   UNL     1       5.987   5.950  18.846  0.00  0.00    +0.000 C 
ATOM      3  O   UNL     1       5.952   5.644  20.040  0.00  0.00    +0.000 OA
ENDROOT
BRANCH   1   4
ATOM      4  C   UNL     1       3.499   6.092  18.858  0.00  0.00    +0.000 C 
BRANCH   4   9
ATOM      5  C   UNL     1      -0.308  10.519  18.799  0.00  0.00    +0.000 C 
ATOM      6  C   UNL     1       0.792   9.503  18.879  0.00  0.00    +0.000 A 
ATOM      7  C   UNL     1       1.486   9.137  17.728  0.00  0.00    +0.000 A 
ATOM      8  C   UNL     1       2.358   8.048  17.761  0.00  0.00    +0.000 A 
ATOM      9  C   UNL     1       2.560   7.292  18.940  0.00  0.00    +0.000 A 
ATOM     10  C   UNL     1       1.950   7.742  20.110  0.00  0.00    +0.000 A 
ATOM     11  C   UNL     1       1.065   8.830  20.077  0.00  0.00    +0.000 A 
ENDBRANCH   4   9
BRANCH   4  12
ATOM     12  C   UNL     1       2.772   4.772  18.523  0.00  0.00    +0.000 C 
ATOM     13  O   UNL     1       2.178   4.571  17.466  0.00  0.00    +0.000 OA
ATOM     14  N   UNL     1       2.699   3.899  19.601  0.00  0.00    +0.000 N 
ATOM     15  H   UNL     1       3.180   4.182  20.447  0.00  0.00    +0.000 HD
BRANCH  14  16
ATOM     16  C   UNL     1       2.128   2.557  19.521  0.00  0.00    +0.000 C 
ATOM     17  C   UNL     1       1.988   1.962  20.930  0.00  0.00    +0.000 C 
ATOM     18  C   UNL     1       0.732   2.670  18.885  0.00  0.00    +0.000 C 
ATOM     19  C   UNL     1       2.991   1.639  18.632  0.00  0.00    +0.000 C 
ENDBRANCH  14  16
ENDBRANCH   4  12
ENDBRANCH   1   4
BRANCH   1  20
ATOM     20  C   UNL     1       4.865   6.709  16.727  0.00  0.00    +0.000 C 
BRANCH  20  21
ATOM     21  C   UNL     1       5.082   5.658  15.634  0.00  0.00    +0.000 C 
ATOM     22  C   UNL     1       5.316   4.241  16.130  0.00  0.00    +0.000 C 
ATOM     23  C   UNL     1       5.876   3.601  14.876  0.00  0.00    +0.000 C 
ATOM     24  C   UNL     1       6.682   4.724  14.244  0.00  0.00    +0.000 C 
ATOM     25  O   UNL     1       6.293   5.939  14.904  0.00  0.00    +0.000 OA
ENDBRANCH  20  21
ENDBRANCH   1  20
BRANCH   2  26
ATOM     26  C   UNL     1       7.318   5.912  18.125  0.00  0.00    +0.000 C 
BRANCH  26  27
ATOM     27  N   UNL     1       7.962   7.194  17.942  0.00  0.00    +0.000 N 
ATOM     28  N   UNL     1       7.683   8.010  16.909  0.00  0.00    +0.000 NA
ATOM     29  N   UNL     1       8.150   9.199  17.273  0.00  0.00    +0.000 NA
ATOM     30  C   UNL     1       8.683   9.049  18.531  0.00  0.00    +0.000 A 
ATOM     31  N   UNL     1       8.619   7.780  18.971  0.00  0.00    +0.000 NA
BRANCH  30  32
ATOM     32  C   UNL     1       9.240  10.178  19.336  0.00  0.00    +0.000 A 
ATOM     33  C   UNL     1      10.240  11.049  18.941  0.00  0.00    +0.000 A 
ATOM     34  C   UNL     1      10.434  11.971  20.004  0.00  0.00    +0.000 A 
ATOM     35  C   UNL     1       9.555  11.607  20.995  0.00  0.00    +0.000 A 
ATOM     36  C   UNL     1       9.268  12.131  22.344  0.00  0.00    +0.000 C 
ATOM     37  O   UNL     1       8.819  10.531  20.595  0.00  0.00    +0.000 OA
ENDBRANCH  30  32
ENDBRANCH  26  27
ENDBRANCH   2  26
TORSDOF 9
ENDMDL
MODEL 2
REMARK VINA RESULT:      -8.5      0.624      1.099
REMARK  Name = 
REMARK  14 active torsions:
REMARK  status: ('A' for Active; 'I' for Inactive)
REMARK    1  A    between atoms: C_1  and  C_2
REMARK    2  A    between atoms: C_5  and  C_6
REMARK    3  A    between atoms: C_6  and  C_7
REMARK    4  A    between atoms: C_6  and  N_14
REMARK    5  A    between atoms: N_9  and  C_10
REMARK    6  A    between atoms: C_10  and  C_11
REMARK    7  A    between atoms: C_10  and  C_12
REMARK    8  A    between atoms: C_10  and  C_13
REMARK    9  A    between atoms: N_14  and  C_15
REMARK   10  A    between atoms: C_15  and  C_16
REMARK   11  A    between atoms: C_21  and  C_23
REMARK   12  A    between atoms: C_23  and  N_24
REMARK   13  A    between atoms: C_27  and  C_28
REMARK   14  A    between atoms: C_31  and  C_32
REMARK                            x       y       z     vdW  Elec       q    Type
REMARK                         _______ _______ _______ _____ _____    ______ ____
ROOT
ATOM      1  N   UNL     1       4.908   6.101  18.154  0.00  0.00    +0.000 N 
ATOM      2  C   UNL     1       6.004   5.689  18.924  0.00  0.00    +0.000 C 
ATOM      3  O   UNL     1       5.865   5.340  20.099  0.00  0.00    +0.000 OA
ENDROOT
BRANCH   1   4
ATOM      4  C   UNL     1       3.538   6.013  18.778  0.00  0.00    +0.000 C 
BRANCH   4   9
ATOM      5  C   UNL     1       0.431  10.926  19.331  0.00  0.00    +0.000 C 
ATOM      6  C   UNL     1       1.079   9.592  19.112  0.00  0.00    +0.000 A 
ATOM      7  C   UNL     1       1.197   8.693  20.170  0.00  0.00    +0.000 A 
ATOM      8  C   UNL     1       1.980   7.548  20.023  0.00  0.00    +0.000 A 
ATOM      9  C   UNL     1       2.671   7.268  18.820  0.00  0.00    +0.000 A 
ATOM     10  C   UNL     1       2.449   8.115  17.734  0.00  0.00    +0.000 A 
ATOM     11  C   UNL     1       1.671   9.272  17.883  0.00  0.00    +0.000 A 
ENDBRANCH   4   9
BRANCH   4  12
ATOM     12  C   UNL     1       2.758   4.748  18.365  0.00  0.00    +0.000 C 
ATOM     13  O   UNL     1       1.693   4.774  17.750  0.00  0.00    +0.000 OA
ATOM     14  N   UNL     1       3.279   3.581  18.909  0.00  0.00    +0.000 N 
ATOM     15  H   UNL     1       4.135   3.674  19.445  0.00  0.00    +0.000 HD
BRANCH  14  16
ATOM     16  C   UNL     1       2.767   2.246  18.611  0.00  0.00    +0.000 C 
ATOM     17  C   UNL     1       1.456   2.005  19.376  0.00  0.00    +0.000 C 
ATOM     18  C   UNL     1       2.485   2.170  17.101  0.00  0.00    +0.000 C 
ATOM     19  C   UNL     1       3.803   1.162  18.964  0.00  0.00    +0.000 C 
ENDBRANCH  14  16
ENDBRANCH   4  12
ENDBRANCH   1   4
BRANCH   1  20
ATOM     20  C   UNL     1       5.089   6.610  16.771  0.00  0.00    +0.000 C 
BRANCH  20  21
ATOM     21  C   UNL     1       5.154   5.590  15.631  0.00  0.00    +0.000 C 
ATOM     22  C   UNL     1       5.418   4.155  16.054  0.00  0.00    +0.000 C 
ATOM     23  C   UNL     1       5.812   3.544  14.725  0.00  0.00    +0.000 C 
ATOM     24  C   UNL     1       6.557   4.674  14.032  0.00  0.00    +0.000 C 
ATOM     25  O   UNL     1       6.272   5.874  14.768  0.00  0.00    +0.000 OA
ENDBRANCH  20  21
ENDBRANCH   1  20
BRANCH   2  26
ATOM     26  C   UNL     1       7.377   5.580  18.293  0.00  0.00    +0.000 C 
BRANCH  26  27
ATOM     27  N   UNL     1       8.012   6.839  17.967  0.00  0.00    +0.000 N 
ATOM     28  N   UNL     1       7.921   7.408  16.752  0.00  0.00    +0.000 NA
ATOM     29  N   UNL     1       8.277   8.674  16.938  0.00  0.00    +0.000 NA
ATOM     30  C   UNL     1       8.555   8.817  18.275  0.00  0.00    +0.000 A 
ATOM     31  N   UNL     1       8.438   7.662  18.953  0.00  0.00    +0.000 NA
BRANCH  30  32
ATOM     32  C   UNL     1       8.914  10.121  18.913  0.00  0.00    +0.000 A 
ATOM     33  C   UNL     1       9.148  11.315  18.256  0.00  0.00    +0.000 A 
ATOM     34  C   UNL     1       9.433  12.289  19.252  0.00  0.00    +0.000 A 
ATOM     35  C   UNL     1       9.372  11.635  20.458  0.00  0.00    +0.000 A 
ATOM     36  C   UNL     1       9.582  12.059  21.856  0.00  0.00    +0.000 C 
ATOM     37  O   UNL     1       9.047  10.326  20.265  0.00  0.00    +0.000 OA
ENDBRANCH  30  32
ENDBRANCH  26  27
ENDBRANCH   2  26
TORSDOF 9
ENDMDL
MODEL 3
REMARK VINA RESULT:      -8.4      0.675      1.409
REMARK  Name = 
REMARK  14 active torsions:
REMARK  status: ('A' for Active; 'I' for Inactive)
REMARK    1  A    between atoms: C_1  and  C_2
REMARK    2  A    between atoms: C_5  and  C_6
REMARK    3  A    between atoms: C_6  and  C_7
REMARK    4  A    between atoms: C_6  and  N_14
REMARK    5  A    between atoms: N_9  and  C_10
REMARK    6  A    between atoms: C_10  and  C_11
REMARK    7  A    between atoms: C_10  and  C_12
REMARK    8  A    between atoms: C_10  and  C_13
REMARK    9  A    between atoms: N_14  and  C_15
REMARK   10  A    between atoms: C_15  and  C_16
REMARK   11  A    between atoms: C_21  and  C_23
REMARK   12  A    between atoms: C_23  and  N_24
REMARK   13  A    between atoms: C_27  and  C_28
REMARK   14  A    between atoms: C_31  and  C_32
REMARK                            x       y       z     vdW  Elec       q    Type
REMARK                         _______ _______ _______ _____ _____    ______ ____
ROOT
ATOM      1  N   UNL     1       4.854   6.209  18.190  0.00  0.00    +0.000 N 
ATOM      2  C   UNL     1       5.982   5.835  18.934  0.00  0.00    +0.000 C 
ATOM      3  O   UNL     1       5.888   5.521  20.123  0.00  0.00    +0.000 OA
ENDROOT
BRANCH   1   4
ATOM      4  C   UNL     1       3.508   6.122  18.863  0.00  0.00    +0.000 C 
BRANCH   4   9
ATOM      5  C   UNL     1       0.271  10.969  19.218  0.00  0.00    +0.000 C 
ATOM      6  C   UNL     1       0.953   9.643  19.058  0.00  0.00    +0.000 A 
ATOM      7  C   UNL     1       1.121   8.809  20.160  0.00  0.00    +0.000 A 
ATOM      8  C   UNL     1       1.933   7.679  20.058  0.00  0.00    +0.000 A 
ATOM      9  C   UNL     1       2.605   7.352  18.857  0.00  0.00    +0.000 A 
ATOM     10  C   UNL     1       2.334   8.131  17.731  0.00  0.00    +0.000 A 
ATOM     11  C   UNL     1       1.526   9.272  17.834  0.00  0.00    +0.000 A 
ENDBRANCH   4   9
BRANCH   4  12
ATOM     12  C   UNL     1       2.753   4.812  18.555  0.00  0.00    +0.000 C 
ATOM     13  O   UNL     1       2.151   4.603  17.504  0.00  0.00    +0.000 OA
ATOM     14  N   UNL     1       2.665   3.961  19.650  0.00  0.00    +0.000 N 
ATOM     15  H   UNL     1       3.155   4.250  20.489  0.00  0.00    +0.000 HD
BRANCH  14  16
ATOM     16  C   UNL     1       2.066   2.629  19.596  0.00  0.00    +0.000 C 
ATOM     17  C   UNL     1       0.711   2.693  18.875  0.00  0.00    +0.000 C 
ATOM     18  C   UNL     1       3.012   1.713  18.802  0.00  0.00    +0.000 C 
ATOM     19  C   UNL     1       1.897   2.040  21.010  0.00  0.00    +0.000 C 
ENDBRANCH  14  16
ENDBRANCH   4  12
ENDBRANCH   1   4
BRANCH   1  20
ATOM     20  C   UNL     1       4.980   6.677  16.787  0.00  0.00    +0.000 C 
BRANCH  20  21
ATOM     21  C   UNL     1       5.106   5.622  15.684  0.00  0.00    +0.000 C 
ATOM     22  C   UNL     1       5.296   4.194  16.166  0.00  0.00    +0.000 C 
ATOM     23  C   UNL     1       5.776   3.535  14.889  0.00  0.00    +0.000 C 
ATOM     24  C   UNL     1       6.605   4.623  14.227  0.00  0.00    +0.000 C 
ATOM     25  O   UNL     1       6.297   5.852  14.905  0.00  0.00    +0.000 OA
ENDBRANCH  20  21
ENDBRANCH   1  20
BRANCH   2  26
ATOM     26  C   UNL     1       7.333   5.725  18.259  0.00  0.00    +0.000 C 
BRANCH  26  27
ATOM     27  N   UNL     1       7.976   6.984  17.949  0.00  0.00    +0.000 N 
ATOM     28  N   UNL     1       7.842   7.597  16.759  0.00  0.00    +0.000 NA
ATOM     29  N   UNL     1       8.229   8.849  16.972  0.00  0.00    +0.000 NA
ATOM     30  C   UNL     1       8.569   8.940  18.300  0.00  0.00    +0.000 A 
ATOM     31  N   UNL     1       8.461   7.764  18.942  0.00  0.00    +0.000 NA
BRANCH  30  32
ATOM     32  C   UNL     1       8.980  10.214  18.966  0.00  0.00    +0.000 A 
ATOM     33  C   UNL     1       9.536  10.335  20.227  0.00  0.00    +0.000 A 
ATOM     34  C   UNL     1       9.788  11.717  20.441  0.00  0.00    +0.000 A 
ATOM     35  C   UNL     1       9.358  12.365  19.309  0.00  0.00    +0.000 A 
ATOM     36  C   UNL     1       9.318  13.784  18.903  0.00  0.00    +0.000 C 
ATOM     37  O   UNL     1       8.880  11.464  18.406  0.00  0.00    +0.000 OA
ENDBRANCH  30  32
ENDBRANCH  26  27
ENDBRANCH   2  26
TORSDOF 9
ENDMDL
MODEL 4
REMARK VINA RESULT:      -8.2      4.602      8.662
REMARK  Name = 
REMARK  14 active torsions:
REMARK  status: ('A' for Active; 'I' for Inactive)
REMARK    1  A    between atoms: C_1  and  C_2
REMARK    2  A    between atoms: C_5  and  C_6
REMARK    3  A    between atoms: C_6  and  C_7
REMARK    4  A    between atoms: C_6  and  N_14
REMARK    5  A    between atoms: N_9  and  C_10
REMARK    6  A    between atoms: C_10  and  C_11
REMARK    7  A    between atoms: C_10  and  C_12
REMARK    8  A    between atoms: C_10  and  C_13
REMARK    9  A    between atoms: N_14  and  C_15
REMARK   10  A    between atoms: C_15  and  C_16
REMARK   11  A    between atoms: C_21  and  C_23
REMARK   12  A    between atoms: C_23  and  N_24
REMARK   13  A    between atoms: C_27  and  C_28
REMARK   14  A    between atoms: C_31  and  C_32
REMARK                            x       y       z     vdW  Elec       q    Type
REMARK                         _______ _______ _______ _____ _____    ______ ____
ROOT
ATOM      1  N   UNL     1       0.485  10.957  20.517  0.00  0.00    +0.000 N 
ATOM      2  C   UNL     1       0.630   9.842  21.354  0.00  0.00    +0.000 C 
ATOM      3  O   UNL     1       0.997   9.965  22.526  0.00  0.00    +0.000 OA
ENDROOT
BRANCH   1   4
ATOM      4  C   UNL     1       0.698  12.322  21.122  0.00  0.00    +0.000 C 
BRANCH   4   9
ATOM      5  C   UNL     1       3.090  16.254  17.528  0.00  0.00    +0.000 C 
ATOM      6  C   UNL     1       2.480  15.376  18.578  0.00  0.00    +0.000 A 
ATOM      7  C   UNL     1       3.267  14.445  19.253  0.00  0.00    +0.000 A 
ATOM      8  C   UNL     1       2.664  13.491  20.072  0.00  0.00    +0.000 A 
ATOM      9  C   UNL     1       1.261  13.434  20.241  0.00  0.00    +0.000 A 
ATOM     10  C   UNL     1       0.497  14.443  19.654  0.00  0.00    +0.000 A 
ATOM     11  C   UNL     1       1.099  15.397  18.821  0.00  0.00    +0.000 A 
ENDBRANCH   4   9
BRANCH   4  12
ATOM     12  C   UNL     1      -0.472  12.786  22.014  0.00  0.00    +0.000 C 
ATOM     13  O   UNL     1      -0.338  13.146  23.181  0.00  0.00    +0.000 OA
ATOM     14  N   UNL     1      -1.717  12.587  21.430  0.00  0.00    +0.000 N 
ATOM     15  H   UNL     1      -1.721  12.236  20.479  0.00  0.00    +0.000 HD
BRANCH  14  16
ATOM     16  C   UNL     1      -2.976  13.011  22.038  0.00  0.00    +0.000 C 
ATOM     17  C   UNL     1      -3.177  12.290  23.381  0.00  0.00    +0.000 C 
ATOM     18  C   UNL     1      -2.898  14.525  22.291  0.00  0.00    +0.000 C 
ATOM     19  C   UNL     1      -4.166  12.739  21.098  0.00  0.00    +0.000 C 
ENDBRANCH  14  16
ENDBRANCH   4  12
ENDBRANCH   1   4
BRANCH   1  20
ATOM     20  C   UNL     1       0.136  10.801  19.083  0.00  0.00    +0.000 C 
BRANCH  20  21
ATOM     21  C   UNL     1      -1.329  10.540  18.722  0.00  0.00    +0.000 C 
ATOM     22  C   UNL     1      -1.556   9.789  17.421  0.00  0.00    +0.000 C 
ATOM     23  C   UNL     1      -3.028  10.070  17.196  0.00  0.00    +0.000 C 
ATOM     24  C   UNL     1      -3.197  11.483  17.729  0.00  0.00    +0.000 C 
ATOM     25  O   UNL     1      -2.017  11.786  18.491  0.00  0.00    +0.000 OA
ENDBRANCH  20  21
ENDBRANCH   1  20
BRANCH   2  26
ATOM     26  C   UNL     1       0.251   8.464  20.853  0.00  0.00    +0.000 C 
BRANCH  26  27
ATOM     27  N   UNL     1       1.360   7.583  20.559  0.00  0.00    +0.000 N 
ATOM     28  N   UNL     1       1.413   6.309  20.987  0.00  0.00    +0.000 NA
ATOM     29  N   UNL     1       2.337   5.730  20.230  0.00  0.00    +0.000 NA
ATOM     30  C   UNL     1       2.796   6.688  19.359  0.00  0.00    +0.000 A 
ATOM     31  N   UNL     1       2.228   7.889  19.566  0.00  0.00    +0.000 NA
BRANCH  30  32
ATOM     32  C   UNL     1       3.791   6.417  18.276  0.00  0.00    +0.000 A 
ATOM     33  C   UNL     1       3.911   7.109  17.085  0.00  0.00    +0.000 A 
ATOM     34  C   UNL     1       4.996   6.529  16.373  0.00  0.00    +0.000 A 
ATOM     35  C   UNL     1       5.468   5.507  17.159  0.00  0.00    +0.000 A 
ATOM     36  C   UNL     1       6.549   4.516  16.997  0.00  0.00    +0.000 C 
ATOM     37  O   UNL     1       4.754   5.438  18.318  0.00  0.00    +0.000 OA
ENDBRANCH  30  32
ENDBRANCH  26  27
ENDBRANCH   2  26
TORSDOF 9
ENDMDL
MODEL 5
REMARK VINA RESULT:      -8.1      4.700      8.869
REMARK  Name = 
REMARK  14 active torsions:
REMARK  status: ('A' for Active; 'I' for Inactive)
REMARK    1  A    between atoms: C_1  and  C_2
REMARK    2  A    between atoms: C_5  and  C_6
REMARK    3  A    between atoms: C_6  and  C_7
REMARK    4  A    between atoms: C_6  and  N_14
REMARK    5  A    between atoms: N_9  and  C_10
REMARK    6  A    between atoms: C_10  and  C_11
REMARK    7  A    between atoms: C_10  and  C_12
REMARK    8  A    between atoms: C_10  and  C_13
REMARK    9  A    between atoms: N_14  and  C_15
REMARK   10  A    between atoms: C_15  and  C_16
REMARK   11  A    between atoms: C_21  and  C_23
REMARK   12  A    between atoms: C_23  and  N_24
REMARK   13  A    between atoms: C_27  and  C_28
REMARK   14  A    between atoms: C_31  and  C_32
REMARK                            x       y       z     vdW  Elec       q    Type
REMARK                         _______ _______ _______ _____ _____    ______ ____
ROOT
ATOM      1  N   UNL     1       0.489  11.252  20.264  0.00  0.00    +0.000 N 
ATOM      2  C   UNL     1       0.731  10.089  21.007  0.00  0.00    +0.000 C 
ATOM      3  O   UNL     1       1.215  10.143  22.140  0.00  0.00    +0.000 OA
ENDROOT
BRANCH   1   4
ATOM      4  C   UNL     1       0.749  12.579  20.931  0.00  0.00    +0.000 C 
BRANCH   4   9
ATOM      5  C   UNL     1       2.974  16.691  17.432  0.00  0.00    +0.000 C 
ATOM      6  C   UNL     1       2.417  15.759  18.466  0.00  0.00    +0.000 A 
ATOM      7  C   UNL     1       3.229  14.777  19.028  0.00  0.00    +0.000 A 
ATOM      8  C   UNL     1       2.664  13.782  19.827  0.00  0.00    +0.000 A 
ATOM      9  C   UNL     1       1.273  13.735  20.084  0.00  0.00    +0.000 A 
ATOM     10  C   UNL     1       0.492  14.790  19.612  0.00  0.00    +0.000 A 
ATOM     11  C   UNL     1       1.056  15.784  18.800  0.00  0.00    +0.000 A 
ENDBRANCH   4   9
BRANCH   4  12
ATOM     12  C   UNL     1      -0.366  13.000  21.911  0.00  0.00    +0.000 C 
ATOM     13  O   UNL     1      -0.157  13.360  23.068  0.00  0.00    +0.000 OA
ATOM     14  N   UNL     1      -1.644  12.762  21.421  0.00  0.00    +0.000 N 
ATOM     15  H   UNL     1      -1.708  12.415  20.470  0.00  0.00    +0.000 HD
BRANCH  14  16
ATOM     16  C   UNL     1      -2.866  13.141  22.125  0.00  0.00    +0.000 C 
ATOM     17  C   UNL     1      -4.092  12.836  21.249  0.00  0.00    +0.000 C 
ATOM     18  C   UNL     1      -2.953  12.306  23.413  0.00  0.00    +0.000 C 
ATOM     19  C   UNL     1      -2.843  14.631  22.516  0.00  0.00    +0.000 C 
ENDBRANCH  14  16
ENDBRANCH   4  12
ENDBRANCH   1   4
BRANCH   1  20
ATOM     20  C   UNL     1      -0.004  11.182  18.865  0.00  0.00    +0.000 C 
BRANCH  20  21
ATOM     21  C   UNL     1      -1.452  10.742  18.633  0.00  0.00    +0.000 C 
ATOM     22  C   UNL     1      -1.688   9.908  17.385  0.00  0.00    +0.000 C 
ATOM     23  C   UNL     1      -3.195  10.011  17.267  0.00  0.00    +0.000 C 
ATOM     24  C   UNL     1      -3.485  11.421  17.755  0.00  0.00    +0.000 C 
ATOM     25  O   UNL     1      -2.294  11.890  18.408  0.00  0.00    +0.000 OA
ENDBRANCH  20  21
ENDBRANCH   1  20
BRANCH   2  26
ATOM     26  C   UNL     1       0.317   8.739  20.458  0.00  0.00    +0.000 C 
BRANCH  26  27
ATOM     27  N   UNL     1       1.358   7.735  20.427  0.00  0.00    +0.000 N 
ATOM     28  N   UNL     1       1.300   6.601  21.148  0.00  0.00    +0.000 NA
ATOM     29  N   UNL     1       2.191   5.791  20.588  0.00  0.00    +0.000 NA
ATOM     30  C   UNL     1       2.743   6.475  19.533  0.00  0.00    +0.000 A 
ATOM     31  N   UNL     1       2.268   7.729  19.425  0.00  0.00    +0.000 NA
BRANCH  30  32
ATOM     32  C   UNL     1       3.735   5.881  18.586  0.00  0.00    +0.000 A 
ATOM     33  C   UNL     1       4.535   4.777  18.826  0.00  0.00    +0.000 A 
ATOM     34  C   UNL     1       5.302   4.555  17.651  0.00  0.00    +0.000 A 
ATOM     35  C   UNL     1       4.942   5.540  16.765  0.00  0.00    +0.000 A 
ATOM     36  C   UNL     1       5.372   5.883  15.395  0.00  0.00    +0.000 C 
ATOM     37  O   UNL     1       3.986   6.340  17.316  0.00  0.00    +0.000 OA
ENDBRANCH  30  32
ENDBRANCH  26  27
ENDBRANCH   2  26
TORSDOF 9
ENDMDL
MODEL 6
REMARK VINA RESULT:      -7.8      4.627      8.821
REMARK  Name = 
REMARK  14 active torsions:
REMARK  status: ('A' for Active; 'I' for Inactive)
REMARK    1  A    between atoms: C_1  and  C_2
REMARK    2  A    between atoms: C_5  and  C_6
REMARK    3  A    between atoms: C_6  and  C_7
REMARK    4  A    between atoms: C_6  and  N_14
REMARK    5  A    between atoms: N_9  and  C_10
REMARK    6  A    between atoms: C_10  and  C_11
REMARK    7  A    between atoms: C_10  and  C_12
REMARK    8  A    between atoms: C_10  and  C_13
REMARK    9  A    between atoms: N_14  and  C_15
REMARK   10  A    between atoms: C_15  and  C_16
REMARK   11  A    between atoms: C_21  and  C_23
REMARK   12  A    between atoms: C_23  and  N_24
REMARK   13  A    between atoms: C_27  and  C_28
REMARK   14  A    between atoms: C_31  and  C_32
REMARK                            x       y       z     vdW  Elec       q    Type
REMARK                         _______ _______ _______ _____ _____    ______ ____
ROOT
ATOM      1  N   UNL     1      -0.643  10.880  19.943  0.00  0.00    +0.000 N 
ATOM      2  C   UNL     1       0.474  10.400  20.639  0.00  0.00    +0.000 C 
ATOM      3  O   UNL     1       1.110  11.127  21.407  0.00  0.00    +0.000 OA
ENDROOT
BRANCH   1   4
ATOM      4  C   UNL     1      -1.103  12.286  20.235  0.00  0.00    +0.000 C 
BRANCH   4   9
ATOM      5  C   UNL     1      -5.528  12.958  23.986  0.00  0.00    +0.000 C 
ATOM      6  C   UNL     1      -4.314  12.930  23.105  0.00  0.00    +0.000 A 
ATOM      7  C   UNL     1      -4.374  13.465  21.820  0.00  0.00    +0.000 A 
ATOM      8  C   UNL     1      -3.320  13.252  20.931  0.00  0.00    +0.000 A 
ATOM      9  C   UNL     1      -2.179  12.499  21.296  0.00  0.00    +0.000 A 
ATOM     10  C   UNL     1      -2.082  12.071  22.620  0.00  0.00    +0.000 A 
ATOM     11  C   UNL     1      -3.145  12.274  23.512  0.00  0.00    +0.000 A 
ENDBRANCH   4   9
BRANCH   4  12
ATOM     12  C   UNL     1       0.055  13.301  20.330  0.00  0.00    +0.000 C 
ATOM     13  O   UNL     1       0.113  14.191  21.176  0.00  0.00    +0.000 OA
ATOM     14  N   UNL     1       0.936  13.228  19.258  0.00  0.00    +0.000 N 
ATOM     15  H   UNL     1       0.770  12.489  18.584  0.00  0.00    +0.000 HD
BRANCH  14  16
ATOM     16  C   UNL     1       2.152  14.030  19.152  0.00  0.00    +0.000 C 
ATOM     17  C   UNL     1       3.050  13.476  18.035  0.00  0.00    +0.000 C 
ATOM     18  C   UNL     1       1.745  15.470  18.797  0.00  0.00    +0.000 C 
ATOM     19  C   UNL     1       2.916  14.060  20.490  0.00  0.00    +0.000 C 
ENDBRANCH  14  16
ENDBRANCH   4  12
ENDBRANCH   1   4
BRANCH   1  20
ATOM     20  C   UNL     1      -1.351  10.034  18.948  0.00  0.00    +0.000 C 
BRANCH  20  21
ATOM     21  C   UNL     1      -2.062  10.731  17.786  0.00  0.00    +0.000 C 
ATOM     22  C   UNL     1      -3.575  10.810  17.900  0.00  0.00    +0.000 C 
ATOM     23  C   UNL     1      -3.941  11.159  16.472  0.00  0.00    +0.000 C 
ATOM     24  C   UNL     1      -2.908  10.399  15.655  0.00  0.00    +0.000 C 
ATOM     25  O   UNL     1      -1.878   9.984  16.566  0.00  0.00    +0.000 OA
ENDBRANCH  20  21
ENDBRANCH   1  20
BRANCH   2  26
ATOM     26  C   UNL     1       0.870   8.943  20.525  0.00  0.00    +0.000 C 
BRANCH  26  27
ATOM     27  N   UNL     1       1.551   8.578  19.302  0.00  0.00    +0.000 N 
ATOM     28  N   UNL     1       1.908   9.480  18.370  0.00  0.00    +0.000 NA
ATOM     29  N   UNL     1       2.812   8.859  17.620  0.00  0.00    +0.000 NA
ATOM     30  C   UNL     1       2.972   7.601  18.148  0.00  0.00    +0.000 A 
ATOM     31  N   UNL     1       2.157   7.373  19.193  0.00  0.00    +0.000 NA
BRANCH  30  32
ATOM     32  C   UNL     1       3.968   6.609  17.641  0.00  0.00    +0.000 A 
ATOM     33  C   UNL     1       4.525   5.568  18.363  0.00  0.00    +0.000 A 
ATOM     34  C   UNL     1       5.398   4.871  17.484  0.00  0.00    +0.000 A 
ATOM     35  C   UNL     1       5.339   5.532  16.281  0.00  0.00    +0.000 A 
ATOM     36  C   UNL     1       6.006   5.336  14.979  0.00  0.00    +0.000 C 
ATOM     37  O   UNL     1       4.468   6.577  16.362  0.00  0.00    +0.000 OA
ENDBRANCH  30  32
ENDBRANCH  26  27
ENDBRANCH   2  26
TORSDOF 9
ENDMDL
MODEL 7
REMARK VINA RESULT:      -7.8      4.782      9.045
REMARK  Name = 
REMARK  14 active torsions:
REMARK  status: ('A' for Active; 'I' for Inactive)
REMARK    1  A    between atoms: C_1  and  C_2
REMARK    2  A    between atoms: C_5  and  C_6
REMARK    3  A    between atoms: C_6  and  C_7
REMARK    4  A    between atoms: C_6  and  N_14
REMARK    5  A    between atoms: N_9  and  C_10
REMARK    6  A    between atoms: C_10  and  C_11
REMARK    7  A    between atoms: C_10  and  C_12
REMARK    8  A    between atoms: C_10  and  C_13
REMARK    9  A    between atoms: N_14  and  C_15
REMARK   10  A    between atoms: C_15  and  C_16
REMARK   11  A    between atoms: C_21  and  C_23
REMARK   12  A    between atoms: C_23  and  N_24
REMARK   13  A    between atoms: C_27  and  C_28
REMARK   14  A    between atoms: C_31  and  C_32
REMARK                            x       y       z     vdW  Elec       q    Type
REMARK                         _______ _______ _______ _____ _____    ______ ____
ROOT
ATOM      1  N   UNL     1       0.207  11.378  19.616  0.00  0.00    +0.000 N 
ATOM      2  C   UNL     1       1.214  10.988  18.722  0.00  0.00    +0.000 C 
ATOM      3  O   UNL     1       2.249  11.648  18.596  0.00  0.00    +0.000 OA
ENDROOT
BRANCH   1   4
ATOM      4  C   UNL     1       0.471  12.577  20.491  0.00  0.00    +0.000 C 
BRANCH   4   9
ATOM      5  C   UNL     1       1.265  17.743  17.887  0.00  0.00    +0.000 C 
ATOM      6  C   UNL     1       0.949  16.505  18.671  0.00  0.00    +0.000 A 
ATOM      7  C   UNL     1       1.852  16.032  19.620  0.00  0.00    +0.000 A 
ATOM      8  C   UNL     1       1.660  14.775  20.196  0.00  0.00    +0.000 A 
ATOM      9  C   UNL     1       0.565  13.954  19.838  0.00  0.00    +0.000 A 
ATOM     10  C   UNL     1      -0.392  14.489  18.976  0.00  0.00    +0.000 A 
ATOM     11  C   UNL     1      -0.195  15.747  18.389  0.00  0.00    +0.000 A 
ENDBRANCH   4   9
BRANCH   4  12
ATOM     12  C   UNL     1      -0.355  12.577  21.794  0.00  0.00    +0.000 C 
ATOM     13  O   UNL     1      -0.165  11.791  22.721  0.00  0.00    +0.000 OA
ATOM     14  N   UNL     1      -1.450  13.431  21.749  0.00  0.00    +0.000 N 
ATOM     15  H   UNL     1      -1.546  14.001  20.916  0.00  0.00    +0.000 HD
BRANCH  14  16
ATOM     16  C   UNL     1      -2.343  13.666  22.881  0.00  0.00    +0.000 C 
ATOM     17  C   UNL     1      -2.952  12.337  23.353  0.00  0.00    +0.000 C 
ATOM     18  C   UNL     1      -1.513  14.269  24.026  0.00  0.00    +0.000 C 
ATOM     19  C   UNL     1      -3.455  14.666  22.511  0.00  0.00    +0.000 C 
ENDBRANCH  14  16
ENDBRANCH   4  12
ENDBRANCH   1   4
BRANCH   1  20
ATOM     20  C   UNL     1      -1.077  10.637  19.698  0.00  0.00    +0.000 C 
BRANCH  20  21
ATOM     21  C   UNL     1      -2.150  10.938  18.649  0.00  0.00    +0.000 C 
ATOM     22  C   UNL     1      -2.720   9.725  17.933  0.00  0.00    +0.000 C 
ATOM     23  C   UNL     1      -3.395  10.394  16.754  0.00  0.00    +0.000 C 
ATOM     24  C   UNL     1      -2.471  11.559  16.441  0.00  0.00    +0.000 C 
ATOM     25  O   UNL     1      -1.590  11.707  17.566  0.00  0.00    +0.000 OA
ENDBRANCH  20  21
ENDBRANCH   1  20
BRANCH   2  26
ATOM     26  C   UNL     1       1.083   9.690  17.952  0.00  0.00    +0.000 C 
BRANCH  26  27
ATOM     27  N   UNL     1       1.942   8.615  18.398  0.00  0.00    +0.000 N 
ATOM     28  N   UNL     1       1.873   8.091  19.635  0.00  0.00    +0.000 NA
ATOM     29  N   UNL     1       2.506   6.926  19.551  0.00  0.00    +0.000 NA
ATOM     30  C   UNL     1       2.920   6.791  18.249  0.00  0.00    +0.000 A 
ATOM     31  N   UNL     1       2.616   7.863  17.496  0.00  0.00    +0.000 NA
BRANCH  30  32
ATOM     32  C   UNL     1       3.602   5.572  17.717  0.00  0.00    +0.000 A 
ATOM     33  C   UNL     1       3.385   4.269  18.128  0.00  0.00    +0.000 A 
ATOM     34  C   UNL     1       4.227   3.437  17.342  0.00  0.00    +0.000 A 
ATOM     35  C   UNL     1       4.924   4.276  16.506  0.00  0.00    +0.000 A 
ATOM     36  C   UNL     1       5.955   4.057  15.474  0.00  0.00    +0.000 C 
ATOM     37  O   UNL     1       4.544   5.568  16.717  0.00  0.00    +0.000 OA
ENDBRANCH  30  32
ENDBRANCH  26  27
ENDBRANCH   2  26
TORSDOF 9
ENDMDL
MODEL 8
REMARK VINA RESULT:      -7.7      5.131      9.327
REMARK  Name = 
REMARK  14 active torsions:
REMARK  status: ('A' for Active; 'I' for Inactive)
REMARK    1  A    between atoms: C_1  and  C_2
REMARK    2  A    between atoms: C_5  and  C_6
REMARK    3  A    between atoms: C_6  and  C_7
REMARK    4  A    between atoms: C_6  and  N_14
REMARK    5  A    between atoms: N_9  and  C_10
REMARK    6  A    between atoms: C_10  and  C_11
REMARK    7  A    between atoms: C_10  and  C_12
REMARK    8  A    between atoms: C_10  and  C_13
REMARK    9  A    between atoms: N_14  and  C_15
REMARK   10  A    between atoms: C_15  and  C_16
REMARK   11  A    between atoms: C_21  and  C_23
REMARK   12  A    between atoms: C_23  and  N_24
REMARK   13  A    between atoms: C_27  and  C_28
REMARK   14  A    between atoms: C_31  and  C_32
REMARK                            x       y       z     vdW  Elec       q    Type
REMARK                         _______ _______ _______ _____ _____    ______ ____
ROOT
ATOM      1  N   UNL     1      -0.096  11.955  20.063  0.00  0.00    +0.000 N 
ATOM      2  C   UNL     1       0.343  10.816  20.753  0.00  0.00    +0.000 C 
ATOM      3  O   UNL     1       0.914  10.908  21.842  0.00  0.00    +0.000 OA
ENDROOT
BRANCH   1   4
ATOM      4  C   UNL     1       0.068  13.292  20.740  0.00  0.00    +0.000 C 
BRANCH   4   9
ATOM      5  C   UNL     1       0.972  18.237  17.768  0.00  0.00    +0.000 C 
ATOM      6  C   UNL     1       0.723  16.886  18.368  0.00  0.00    +0.000 A 
ATOM      7  C   UNL     1      -0.539  16.566  18.865  0.00  0.00    +0.000 A 
ATOM      8  C   UNL     1      -0.716  15.398  19.607  0.00  0.00    +0.000 A 
ATOM      9  C   UNL     1       0.358  14.518  19.879  0.00  0.00    +0.000 A 
ATOM     10  C   UNL     1       1.586  14.791  19.276  0.00  0.00    +0.000 A 
ATOM     11  C   UNL     1       1.769  15.970  18.538  0.00  0.00    +0.000 A 
ENDBRANCH   4   9
BRANCH   4  12
ATOM     12  C   UNL     1      -0.984  13.555  21.838  0.00  0.00    +0.000 C 
ATOM     13  O   UNL     1      -0.712  14.005  22.949  0.00  0.00    +0.000 OA
ATOM     14  N   UNL     1      -2.244  13.066  21.517  0.00  0.00    +0.000 N 
ATOM     15  H   UNL     1      -2.353  12.665  20.592  0.00  0.00    +0.000 HD
BRANCH  14  16
ATOM     16  C   UNL     1      -3.425  13.254  22.355  0.00  0.00    +0.000 C 
ATOM     17  C   UNL     1      -3.261  12.481  23.673  0.00  0.00    +0.000 C 
ATOM     18  C   UNL     1      -3.554  14.754  22.670  0.00  0.00    +0.000 C 
ATOM     19  C   UNL     1      -4.704  12.803  21.622  0.00  0.00    +0.000 C 
ENDBRANCH  14  16
ENDBRANCH   4  12
ENDBRANCH   1   4
BRANCH   1  20
ATOM     20  C   UNL     1      -0.698  11.850  18.710  0.00  0.00    +0.000 C 
BRANCH  20  21
ATOM     21  C   UNL     1      -2.019  11.088  18.567  0.00  0.00    +0.000 C 
ATOM     22  C   UNL     1      -2.223  10.381  17.238  0.00  0.00    +0.000 C 
ATOM     23  C   UNL     1      -3.713  10.112  17.296  0.00  0.00    +0.000 C 
ATOM     24  C   UNL     1      -4.257  11.331  18.023  0.00  0.00    +0.000 C 
ATOM     25  O   UNL     1      -3.132  12.003  18.611  0.00  0.00    +0.000 OA
ENDBRANCH  20  21
ENDBRANCH   1  20
BRANCH   2  26
ATOM     26  C   UNL     1       0.040   9.436  20.207  0.00  0.00    +0.000 C 
BRANCH  26  27
ATOM     27  N   UNL     1       1.170   8.537  20.129  0.00  0.00    +0.000 N 
ATOM     28  N   UNL     1       1.368   7.536  21.006  0.00  0.00    +0.000 NA
ATOM     29  N   UNL     1       2.239   6.727  20.415  0.00  0.00    +0.000 NA
ATOM     30  C   UNL     1       2.520   7.275  19.187  0.00  0.00    +0.000 A 
ATOM     31  N   UNL     1       1.892   8.447  18.988  0.00  0.00    +0.000 NA
BRANCH  30  32
ATOM     32  C   UNL     1       3.400   6.623  18.169  0.00  0.00    +0.000 A 
ATOM     33  C   UNL     1       4.208   7.271  17.251  0.00  0.00    +0.000 A 
ATOM     34  C   UNL     1       4.878   6.265  16.503  0.00  0.00    +0.000 A 
ATOM     35  C   UNL     1       4.434   5.062  16.993  0.00  0.00    +0.000 A 
ATOM     36  C   UNL     1       4.718   3.656  16.647  0.00  0.00    +0.000 C 
ATOM     37  O   UNL     1       3.549   5.267  18.009  0.00  0.00    +0.000 OA
ENDBRANCH  30  32
ENDBRANCH  26  27
ENDBRANCH   2  26
TORSDOF 9
ENDMDL
MODEL 9
REMARK VINA RESULT:      -7.6      4.789      8.789
REMARK  Name = 
REMARK  14 active torsions:
REMARK  status: ('A' for Active; 'I' for Inactive)
REMARK    1  A    between atoms: C_1  and  C_2
REMARK    2  A    between atoms: C_5  and  C_6
REMARK    3  A    between atoms: C_6  and  C_7
REMARK    4  A    between atoms: C_6  and  N_14
REMARK    5  A    between atoms: N_9  and  C_10
REMARK    6  A    between atoms: C_10  and  C_11
REMARK    7  A    between atoms: C_10  and  C_12
REMARK    8  A    between atoms: C_10  and  C_13
REMARK    9  A    between atoms: N_14  and  C_15
REMARK   10  A    between atoms: C_15  and  C_16
REMARK   11  A    between atoms: C_21  and  C_23
REMARK   12  A    between atoms: C_23  and  N_24
REMARK   13  A    between atoms: C_27  and  C_28
REMARK   14  A    between atoms: C_31  and  C_32
REMARK                            x       y       z     vdW  Elec       q    Type
REMARK                         _______ _______ _______ _____ _____    ______ ____
ROOT
ATOM      1  N   UNL     1       0.040  10.993  21.210  0.00  0.00    +0.000 N 
ATOM      2  C   UNL     1       0.197   9.616  21.419  0.00  0.00    +0.000 C 
ATOM      3  O   UNL     1      -0.760   8.904  21.734  0.00  0.00    +0.000 OA
ENDROOT
BRANCH   1   4
ATOM      4  C   UNL     1      -1.355  11.561  21.286  0.00  0.00    +0.000 C 
BRANCH   4   9
ATOM      5  C   UNL     1      -2.706  15.100  25.730  0.00  0.00    +0.000 C 
ATOM      6  C   UNL     1      -2.413  14.328  24.479  0.00  0.00    +0.000 A 
ATOM      7  C   UNL     1      -3.312  13.363  24.028  0.00  0.00    +0.000 A 
ATOM      8  C   UNL     1      -2.946  12.504  22.992  0.00  0.00    +0.000 A 
ATOM      9  C   UNL     1      -1.674  12.578  22.378  0.00  0.00    +0.000 A 
ATOM     10  C   UNL     1      -0.831  13.622  22.759  0.00  0.00    +0.000 A 
ATOM     11  C   UNL     1      -1.192  14.480  23.807  0.00  0.00    +0.000 A 
ENDBRANCH   4   9
BRANCH   4  12
ATOM     12  C   UNL     1      -1.935  11.945  19.909  0.00  0.00    +0.000 C 
ATOM     13  O   UNL     1      -2.109  13.106  19.542  0.00  0.00    +0.000 OA
ATOM     14  N   UNL     1      -2.411  10.855  19.191  0.00  0.00    +0.000 N 
ATOM     15  H   UNL     1      -2.265   9.941  19.606  0.00  0.00    +0.000 HD
BRANCH  14  16
ATOM     16  C   UNL     1      -2.939  10.946  17.833  0.00  0.00    +0.000 C 
ATOM     17  C   UNL     1      -1.955  11.715  16.938  0.00  0.00    +0.000 C 
ATOM     18  C   UNL     1      -3.099   9.517  17.286  0.00  0.00    +0.000 C 
ATOM     19  C   UNL     1      -4.322  11.625  17.819  0.00  0.00    +0.000 C 
ENDBRANCH  14  16
ENDBRANCH   4  12
ENDBRANCH   1   4
BRANCH   1  20
ATOM     20  C   UNL     1       1.207  11.865  20.924  0.00  0.00    +0.000 C 
BRANCH  20  21
ATOM     21  C   UNL     1       1.171  12.725  19.657  0.00  0.00    +0.000 C 
ATOM     22  C   UNL     1       2.353  12.552  18.719  0.00  0.00    +0.000 C 
ATOM     23  C   UNL     1       2.197  13.783  17.850  0.00  0.00    +0.000 C 
ATOM     24  C   UNL     1       1.668  14.827  18.821  0.00  0.00    +0.000 C 
ATOM     25  O   UNL     1       1.243  14.123  19.999  0.00  0.00    +0.000 OA
ENDBRANCH  20  21
ENDBRANCH   1  20
BRANCH   2  26
ATOM     26  C   UNL     1       1.541   8.961  21.175  0.00  0.00    +0.000 C 
BRANCH  26  27
ATOM     27  N   UNL     1       1.687   8.303  19.895  0.00  0.00    +0.000 N 
ATOM     28  N   UNL     1       1.712   8.974  18.729  0.00  0.00    +0.000 NA
ATOM     29  N   UNL     1       2.231   8.122  17.853  0.00  0.00    +0.000 NA
ATOM     30  C   UNL     1       2.513   6.966  18.540  0.00  0.00    +0.000 A 
ATOM     31  N   UNL     1       2.142   7.030  19.831  0.00  0.00    +0.000 NA
BRANCH  30  32
ATOM     32  C   UNL     1       3.190   5.781  17.930  0.00  0.00    +0.000 A 
ATOM     33  C   UNL     1       2.772   4.465  18.019  0.00  0.00    +0.000 A 
ATOM     34  C   UNL     1       3.697   3.684  17.275  0.00  0.00    +0.000 A 
ATOM     35  C   UNL     1       4.634   4.559  16.786  0.00  0.00    +0.000 A 
ATOM     36  C   UNL     1       5.851   4.394  15.967  0.00  0.00    +0.000 C 
ATOM     37  O   UNL     1       4.330   5.833  17.166  0.00  0.00    +0.000 OA
ENDBRANCH  30  32
ENDBRANCH  26  27
ENDBRANCH   2  26
TORSDOF 9
ENDMDL
