MODEL 1
REMARK VINA RESULT:      -6.3      0.000      0.000
REMARK  Name = 
REMARK  13 active torsions:
REMARK  status: ('A' for Active; 'I' for Inactive)
REMARK    1  A    between atoms: C_1  and  C_2
REMARK    2  A    between atoms: C_2  and  N_3
REMARK    3  A    between atoms: N_3  and  C_4
REMARK    4  A    between atoms: N_3  and  C_6
REMARK    5  A    between atoms: C_4  and  C_5
REMARK    6  A    between atoms: C_6  and  C_7
REMARK    7  A    between atoms: C_8  and  C_9
REMARK    8  A    between atoms: C_9  and  C_10
REMARK    9  A    between atoms: C_10  and  C_11
REMARK   10  A    between atoms: C_11  and  C_12
REMARK   11  A    between atoms: C_12  and  C_13
REMARK   12  A    between atoms: C_13  and  C_14
REMARK   13  A    between atoms: C_14  and  O_15
REMARK                            x       y       z     vdW  Elec       q    Type
REMARK                         _______ _______ _______ _____ _____    ______ ____
ROOT
ATOM      1  C   UNL     1      -1.363  12.868  20.819  0.00  0.00    +0.000 C 
ATOM      2  S   UNL     1      -3.093  13.623  20.697  0.00  0.00    +0.000 S 
ATOM      3  C   UNL     1      -3.661  13.681  22.395  0.00  0.00    +0.000 C 
ATOM      4  C   UNL     1      -2.801  14.491  23.345  0.00  0.00    +0.000 C 
ATOM      5  C   UNL     1      -1.373  13.995  23.511  0.00  0.00    +0.000 C 
ATOM      6  S   UNL     1      -0.368  13.993  21.976  0.00  0.00    +0.000 S 
ENDROOT
BRANCH   1   7
ATOM      7  C   UNL     1      -0.770  12.790  19.261  0.00  0.00    +0.000 C 
ATOM      8  C   UNL     1       0.142  14.002  18.987  0.00  0.00    +0.000 A 
ATOM      9  C   UNL     1      -0.363  15.297  18.770  0.00  0.00    +0.000 A 
ATOM     10  C   UNL     1       0.429  16.402  19.035  0.00  0.00    +0.000 A 
ATOM     11  C   UNL     1       1.773  16.244  19.369  0.00  0.00    +0.000 A 
ATOM     12  C   UNL     1       2.324  14.972  19.375  0.00  0.00    +0.000 A 
ATOM     13  C   UNL     1       1.521  13.848  19.176  0.00  0.00    +0.000 A 
ATOM     14  O   UNL     1       2.124  12.625  19.220  0.00  0.00    +0.000 OA
ATOM     15  C   UNL     1       1.381  11.552  18.790  0.00  0.00    +0.000 A 
ATOM     16  C   UNL     1       2.111  10.485  18.243  0.00  0.00    +0.000 A 
ATOM     17  C   UNL     1       1.451   9.366  17.740  0.00  0.00    +0.000 A 
ATOM     18  C   UNL     1       0.064   9.306  17.797  0.00  0.00    +0.000 A 
ATOM     19  C   UNL     1      -0.669  10.376  18.343  0.00  0.00    +0.000 A 
ATOM     20  C   UNL     1      -0.018  11.523  18.841  0.00  0.00    +0.000 A 
BRANCH   7  21
ATOM     21  O   UNL     1      -1.845  12.889  18.284  0.00  0.00    +0.000 OA
ATOM     22  H   UNL     1      -1.632  12.287  17.559  0.00  0.00    +0.000 HD
ENDBRANCH   7  21
ENDBRANCH   1   7
BRANCH   1  23
ATOM     23  C   UNL     1      -1.418  11.491  21.533  0.00  0.00    +0.000 C 
BRANCH  23  24
ATOM     24  C   UNL     1      -0.315  11.121  22.528  0.00  0.00    +0.000 C 
BRANCH  24  25
ATOM     25  C   UNL     1       0.507   9.989  21.943  0.00  0.00    +0.000 C 
BRANCH  25  26
ATOM     26  C   UNL     1      -0.283   8.690  21.768  0.00  0.00    +0.000 C 
BRANCH  26  28
ATOM     27  C   UNL     1       1.607   6.974  20.560  0.00  0.00    +0.000 C 
ATOM     28  C   UNL     1       0.734   7.766  21.118  0.00  0.00    +0.000 C 
BRANCH  27  29
ATOM     29  C   UNL     1       2.624   6.050  19.910  0.00  0.00    +0.000 C 
BRANCH  29  30
ATOM     30  N   UNL     1       2.007   4.781  19.477  0.00  0.00    +0.000 NA
BRANCH  30  32
ATOM     31  C   UNL     1       3.991   4.376  17.955  0.00  0.00    +0.000 C 
ATOM     32  C   UNL     1       3.070   3.852  19.054  0.00  0.00    +0.000 C 
ENDBRANCH  30  32
BRANCH  30  33
ATOM     33  C   UNL     1       1.079   4.213  20.464  0.00  0.00    +0.000 C 
ATOM     34  C   UNL     1       1.537   2.955  21.193  0.00  0.00    +0.000 C 
ENDBRANCH  30  33
ENDBRANCH  29  30
ENDBRANCH  27  29
ENDBRANCH  26  28
ENDBRANCH  25  26
ENDBRANCH  24  25
ENDBRANCH  23  24
ENDBRANCH   1  23
TORSDOF 11
ENDMDL
MODEL 2
REMARK VINA RESULT:      -6.2      0.601      1.196
REMARK  Name = 
REMARK  13 active torsions:
REMARK  status: ('A' for Active; 'I' for Inactive)
REMARK    1  A    between atoms: C_1  and  C_2
REMARK    2  A    between atoms: C_2  and  N_3
REMARK    3  A    between atoms: N_3  and  C_4
REMARK    4  A    between atoms: N_3  and  C_6
REMARK    5  A    between atoms: C_4  and  C_5
REMARK    6  A    between atoms: C_6  and  C_7
REMARK    7  A    between atoms: C_8  and  C_9
REMARK    8  A    between atoms: C_9  and  C_10
REMARK    9  A    between atoms: C_10  and  C_11
REMARK   10  A    between atoms: C_11  and  C_12
REMARK   11  A    between atoms: C_12  and  C_13
REMARK   12  A    between atoms: C_13  and  C_14
REMARK   13  A    between atoms: C_14  and  O_15
REMARK                            x       y       z     vdW  Elec       q    Type
REMARK                         _______ _______ _______ _____ _____    ______ ____
ROOT
ATOM      1  C   UNL     1      -1.433  12.961  20.791  0.00  0.00    +0.000 C 
ATOM      2  S   UNL     1      -3.164  13.707  20.626  0.00  0.00    +0.000 S 
ATOM      3  C   UNL     1      -3.775  13.758  22.309  0.00  0.00    +0.000 C 
ATOM      4  C   UNL     1      -2.944  14.572  23.282  0.00  0.00    +0.000 C 
ATOM      5  C   UNL     1      -1.518  14.085  23.484  0.00  0.00    +0.000 C 
ATOM      6  S   UNL     1      -0.474  14.090  21.975  0.00  0.00    +0.000 S 
ENDROOT
BRANCH   1   7
ATOM      7  C   UNL     1      -0.800  12.889  19.249  0.00  0.00    +0.000 C 
ATOM      8  C   UNL     1       0.109  14.107  18.998  0.00  0.00    +0.000 A 
ATOM      9  C   UNL     1      -0.400  15.399  18.769  0.00  0.00    +0.000 A 
ATOM     10  C   UNL     1       0.375  16.510  19.054  0.00  0.00    +0.000 A 
ATOM     11  C   UNL     1       1.712  16.363  19.422  0.00  0.00    +0.000 A 
ATOM     12  C   UNL     1       2.273  15.095  19.443  0.00  0.00    +0.000 A 
ATOM     13  C   UNL     1       1.484  13.964  19.223  0.00  0.00    +0.000 A 
ATOM     14  O   UNL     1       2.095  12.746  19.281  0.00  0.00    +0.000 OA
ATOM     15  C   UNL     1       1.372  11.667  18.832  0.00  0.00    +0.000 A 
ATOM     16  C   UNL     1       2.124  10.606  18.304  0.00  0.00    +0.000 A 
ATOM     17  C   UNL     1       1.486   9.483  17.783  0.00  0.00    +0.000 A 
ATOM     18  C   UNL     1       0.098   9.411  17.806  0.00  0.00    +0.000 A 
ATOM     19  C   UNL     1      -0.657  10.475  18.333  0.00  0.00    +0.000 A 
ATOM     20  C   UNL     1      -0.028  11.628  18.847  0.00  0.00    +0.000 A 
BRANCH   7  21
ATOM     21  O   UNL     1      -1.851  12.979  18.245  0.00  0.00    +0.000 OA
ATOM     22  H   UNL     1      -2.631  13.350  18.677  0.00  0.00    +0.000 HD
ENDBRANCH   7  21
ENDBRANCH   1   7
BRANCH   1  23
ATOM     23  C   UNL     1      -1.498  11.582  21.502  0.00  0.00    +0.000 C 
BRANCH  23  24
ATOM     24  C   UNL     1      -0.257  11.058  22.230  0.00  0.00    +0.000 C 
BRANCH  24  25
ATOM     25  C   UNL     1      -0.053   9.603  21.854  0.00  0.00    +0.000 C 
BRANCH  25  26
ATOM     26  C   UNL     1       1.270   9.024  22.359  0.00  0.00    +0.000 C 
BRANCH  26  28
ATOM     27  C   UNL     1       1.997   7.246  20.289  0.00  0.00    +0.000 C 
ATOM     28  C   UNL     1       1.662   8.067  21.245  0.00  0.00    +0.000 C 
BRANCH  27  29
ATOM     29  C   UNL     1       2.389   6.289  19.174  0.00  0.00    +0.000 C 
BRANCH  29  30
ATOM     30  N   UNL     1       2.761   4.962  19.703  0.00  0.00    +0.000 NA
BRANCH  30  32
ATOM     31  C   UNL     1       0.916   3.422  20.505  0.00  0.00    +0.000 C 
ATOM     32  C   UNL     1       1.715   3.990  19.335  0.00  0.00    +0.000 C 
ENDBRANCH  30  32
BRANCH  30  33
ATOM     33  C   UNL     1       4.120   4.543  19.334  0.00  0.00    +0.000 C 
ATOM     34  C   UNL     1       4.441   3.059  19.472  0.00  0.00    +0.000 C 
ENDBRANCH  30  33
ENDBRANCH  29  30
ENDBRANCH  27  29
ENDBRANCH  26  28
ENDBRANCH  25  26
ENDBRANCH  24  25
ENDBRANCH  23  24
ENDBRANCH   1  23
TORSDOF 11
ENDMDL
MODEL 3
REMARK VINA RESULT:      -6.1      1.587      4.880
REMARK  Name = 
REMARK  13 active torsions:
REMARK  status: ('A' for Active; 'I' for Inactive)
REMARK    1  A    between atoms: C_1  and  C_2
REMARK    2  A    between atoms: C_2  and  N_3
REMARK    3  A    between atoms: N_3  and  C_4
REMARK    4  A    between atoms: N_3  and  C_6
REMARK    5  A    between atoms: C_4  and  C_5
REMARK    6  A    between atoms: C_6  and  C_7
REMARK    7  A    between atoms: C_8  and  C_9
REMARK    8  A    between atoms: C_9  and  C_10
REMARK    9  A    between atoms: C_10  and  C_11
REMARK   10  A    between atoms: C_11  and  C_12
REMARK   11  A    between atoms: C_12  and  C_13
REMARK   12  A    between atoms: C_13  and  C_14
REMARK   13  A    between atoms: C_14  and  O_15
REMARK                            x       y       z     vdW  Elec       q    Type
REMARK                         _______ _______ _______ _____ _____    ______ ____
ROOT
ATOM      1  C   UNL     1       0.073  12.888  20.251  0.00  0.00    +0.000 C 
ATOM      2  S   UNL     1       0.453  13.923  21.788  0.00  0.00    +0.000 S 
ATOM      3  C   UNL     1       1.891  14.884  21.318  0.00  0.00    +0.000 C 
ATOM      4  C   UNL     1       1.709  15.784  20.112  0.00  0.00    +0.000 C 
ATOM      5  C   UNL     1       1.375  15.069  18.812  0.00  0.00    +0.000 C 
ATOM      6  S   UNL     1      -0.193  14.116  18.831  0.00  0.00    +0.000 S 
ENDROOT
BRANCH   1   7
ATOM      7  C   UNL     1      -1.268  11.967  20.621  0.00  0.00    +0.000 C 
ATOM      8  C   UNL     1      -0.832  10.659  21.310  0.00  0.00    +0.000 A 
ATOM      9  C   UNL     1      -0.246   9.591  20.607  0.00  0.00    +0.000 A 
ATOM     10  C   UNL     1       0.575   8.693  21.269  0.00  0.00    +0.000 A 
ATOM     11  C   UNL     1       0.707   8.746  22.656  0.00  0.00    +0.000 A 
ATOM     12  C   UNL     1      -0.039   9.670  23.372  0.00  0.00    +0.000 A 
ATOM     13  C   UNL     1      -0.817  10.622  22.710  0.00  0.00    +0.000 A 
ATOM     14  O   UNL     1      -1.506  11.517  23.475  0.00  0.00    +0.000 OA
ATOM     15  C   UNL     1      -2.446  12.287  22.834  0.00  0.00    +0.000 A 
ATOM     16  C   UNL     1      -3.534  12.702  23.618  0.00  0.00    +0.000 A 
ATOM     17  C   UNL     1      -4.563  13.452  23.053  0.00  0.00    +0.000 A 
ATOM     18  C   UNL     1      -4.498  13.802  21.710  0.00  0.00    +0.000 A 
ATOM     19  C   UNL     1      -3.409  13.384  20.921  0.00  0.00    +0.000 A 
ATOM     20  C   UNL     1      -2.368  12.609  21.473  0.00  0.00    +0.000 A 
BRANCH   7  21
ATOM     21  O   UNL     1      -1.970  11.551  19.415  0.00  0.00    +0.000 OA
ATOM     22  H   UNL     1      -2.278  10.647  19.559  0.00  0.00    +0.000 HD
ENDBRANCH   7  21
ENDBRANCH   1   7
BRANCH   1  23
ATOM     23  C   UNL     1       1.311  12.047  19.839  0.00  0.00    +0.000 C 
BRANCH  23  24
ATOM     24  C   UNL     1       1.552  11.750  18.357  0.00  0.00    +0.000 C 
BRANCH  24  25
ATOM     25  C   UNL     1       2.313  10.442  18.241  0.00  0.00    +0.000 C 
BRANCH  25  26
ATOM     26  C   UNL     1       1.502   9.322  17.586  0.00  0.00    +0.000 C 
BRANCH  26  28
ATOM     27  C   UNL     1       2.642   6.996  18.710  0.00  0.00    +0.000 C 
ATOM     28  C   UNL     1       2.116   8.070  18.191  0.00  0.00    +0.000 C 
BRANCH  27  29
ATOM     29  C   UNL     1       3.256   5.743  19.315  0.00  0.00    +0.000 C 
BRANCH  29  30
ATOM     30  N   UNL     1       2.391   4.564  19.116  0.00  0.00    +0.000 NA
BRANCH  30  32
ATOM     31  C   UNL     1       3.842   3.512  17.325  0.00  0.00    +0.000 C 
ATOM     32  C   UNL     1       3.229   3.418  18.720  0.00  0.00    +0.000 C 
ENDBRANCH  30  32
BRANCH  30  33
ATOM     33  C   UNL     1       1.504   4.287  20.254  0.00  0.00    +0.000 C 
ATOM     34  C   UNL     1       2.136   3.619  21.470  0.00  0.00    +0.000 C 
ENDBRANCH  30  33
ENDBRANCH  29  30
ENDBRANCH  27  29
ENDBRANCH  26  28
ENDBRANCH  25  26
ENDBRANCH  24  25
ENDBRANCH  23  24
ENDBRANCH   1  23
TORSDOF 11
ENDMDL
MODEL 4
REMARK VINA RESULT:      -6.0      1.737      5.100
REMARK  Name = 
REMARK  13 active torsions:
REMARK  status: ('A' for Active; 'I' for Inactive)
REMARK    1  A    between atoms: C_1  and  C_2
REMARK    2  A    between atoms: C_2  and  N_3
REMARK    3  A    between atoms: N_3  and  C_4
REMARK    4  A    between atoms: N_3  and  C_6
REMARK    5  A    between atoms: C_4  and  C_5
REMARK    6  A    between atoms: C_6  and  C_7
REMARK    7  A    between atoms: C_8  and  C_9
REMARK    8  A    between atoms: C_9  and  C_10
REMARK    9  A    between atoms: C_10  and  C_11
REMARK   10  A    between atoms: C_11  and  C_12
REMARK   11  A    between atoms: C_12  and  C_13
REMARK   12  A    between atoms: C_13  and  C_14
REMARK   13  A    between atoms: C_14  and  O_15
REMARK                            x       y       z     vdW  Elec       q    Type
REMARK                         _______ _______ _______ _____ _____    ______ ____
ROOT
ATOM      1  C   UNL     1       0.010  12.937  20.256  0.00  0.00    +0.000 C 
ATOM      2  S   UNL     1       0.365  13.964  21.805  0.00  0.00    +0.000 S 
ATOM      3  C   UNL     1       1.762  14.983  21.337  0.00  0.00    +0.000 C 
ATOM      4  C   UNL     1       1.538  15.893  20.145  0.00  0.00    +0.000 C 
ATOM      5  C   UNL     1       1.219  15.184  18.838  0.00  0.00    +0.000 C 
ATOM      6  S   UNL     1      -0.313  14.174  18.856  0.00  0.00    +0.000 S 
ENDROOT
BRANCH   1   7
ATOM      7  C   UNL     1      -1.294  11.962  20.624  0.00  0.00    +0.000 C 
ATOM      8  C   UNL     1      -0.803  10.655  21.276  0.00  0.00    +0.000 A 
ATOM      9  C   UNL     1      -0.192   9.623  20.539  0.00  0.00    +0.000 A 
ATOM     10  C   UNL     1       0.669   8.739  21.167  0.00  0.00    +0.000 A 
ATOM     11  C   UNL     1       0.820   8.765  22.553  0.00  0.00    +0.000 A 
ATOM     12  C   UNL     1       0.054   9.646  23.302  0.00  0.00    +0.000 A 
ATOM     13  C   UNL     1      -0.766  10.586  22.674  0.00  0.00    +0.000 A 
ATOM     14  O   UNL     1      -1.473  11.439  23.470  0.00  0.00    +0.000 OA
ATOM     15  C   UNL     1      -2.448  12.191  22.860  0.00  0.00    +0.000 A 
ATOM     16  C   UNL     1      -3.537  12.551  23.670  0.00  0.00    +0.000 A 
ATOM     17  C   UNL     1      -4.599  13.278  23.139  0.00  0.00    +0.000 A 
ATOM     18  C   UNL     1      -4.566  13.660  21.803  0.00  0.00    +0.000 A 
ATOM     19  C   UNL     1      -3.476  13.299  20.989  0.00  0.00    +0.000 A 
ATOM     20  C   UNL     1      -2.401  12.547  21.507  0.00  0.00    +0.000 A 
BRANCH   7  21
ATOM     21  O   UNL     1      -2.000  11.550  19.419  0.00  0.00    +0.000 OA
ATOM     22  H   UNL     1      -1.365  11.088  18.858  0.00  0.00    +0.000 HD
ENDBRANCH   7  21
ENDBRANCH   1   7
BRANCH   1  23
ATOM     23  C   UNL     1       1.274  12.148  19.823  0.00  0.00    +0.000 C 
BRANCH  23  24
ATOM     24  C   UNL     1       1.396  11.672  18.373  0.00  0.00    +0.000 C 
BRANCH  24  25
ATOM     25  C   UNL     1       2.236  10.409  18.345  0.00  0.00    +0.000 C 
BRANCH  25  26
ATOM     26  C   UNL     1       1.602   9.274  17.539  0.00  0.00    +0.000 C 
BRANCH  26  28
ATOM     27  C   UNL     1       3.181   7.046  18.259  0.00  0.00    +0.000 C 
ATOM     28  C   UNL     1       2.452   8.075  17.926  0.00  0.00    +0.000 C 
BRANCH  27  29
ATOM     29  C   UNL     1       4.031   5.847  18.647  0.00  0.00    +0.000 C 
BRANCH  29  30
ATOM     30  N   UNL     1       3.440   4.583  18.166  0.00  0.00    +0.000 NA
BRANCH  30  32
ATOM     31  C   UNL     1       1.229   3.510  18.781  0.00  0.00    +0.000 C 
ATOM     32  C   UNL     1       1.971   4.704  18.186  0.00  0.00    +0.000 C 
ENDBRANCH  30  32
BRANCH  30  33
ATOM     33  C   UNL     1       3.983   4.134  16.878  0.00  0.00    +0.000 C 
ATOM     34  C   UNL     1       5.420   4.531  16.563  0.00  0.00    +0.000 C 
ENDBRANCH  30  33
ENDBRANCH  29  30
ENDBRANCH  27  29
ENDBRANCH  26  28
ENDBRANCH  25  26
ENDBRANCH  24  25
ENDBRANCH  23  24
ENDBRANCH   1  23
TORSDOF 11
ENDMDL
MODEL 5
REMARK VINA RESULT:      -5.9      1.374      2.041
REMARK  Name = 
REMARK  13 active torsions:
REMARK  status: ('A' for Active; 'I' for Inactive)
REMARK    1  A    between atoms: C_1  and  C_2
REMARK    2  A    between atoms: C_2  and  N_3
REMARK    3  A    between atoms: N_3  and  C_4
REMARK    4  A    between atoms: N_3  and  C_6
REMARK    5  A    between atoms: C_4  and  C_5
REMARK    6  A    between atoms: C_6  and  C_7
REMARK    7  A    between atoms: C_8  and  C_9
REMARK    8  A    between atoms: C_9  and  C_10
REMARK    9  A    between atoms: C_10  and  C_11
REMARK   10  A    between atoms: C_11  and  C_12
REMARK   11  A    between atoms: C_12  and  C_13
REMARK   12  A    between atoms: C_13  and  C_14
REMARK   13  A    between atoms: C_14  and  O_15
REMARK                            x       y       z     vdW  Elec       q    Type
REMARK                         _______ _______ _______ _____ _____    ______ ____
ROOT
ATOM      1  C   UNL     1      -1.461  13.516  21.913  0.00  0.00    +0.000 C 
ATOM      2  S   UNL     1      -3.264  13.017  22.193  0.00  0.00    +0.000 S 
ATOM      3  C   UNL     1      -3.442  13.020  23.976  0.00  0.00    +0.000 C 
ATOM      4  C   UNL     1      -3.152  14.342  24.659  0.00  0.00    +0.000 C 
ATOM      5  C   UNL     1      -1.734  14.865  24.487  0.00  0.00    +0.000 C 
ATOM      6  S   UNL     1      -1.236  15.201  22.754  0.00  0.00    +0.000 S 
ENDROOT
BRANCH   1   7
ATOM      7  C   UNL     1      -1.229  13.538  20.260  0.00  0.00    +0.000 C 
ATOM      8  C   UNL     1       0.215  13.970  19.940  0.00  0.00    +0.000 A 
ATOM      9  C   UNL     1       0.651  15.303  20.056  0.00  0.00    +0.000 A 
ATOM     10  C   UNL     1       1.992  15.578  20.266  0.00  0.00    +0.000 A 
ATOM     11  C   UNL     1       2.939  14.556  20.212  0.00  0.00    +0.000 A 
ATOM     12  C   UNL     1       2.532  13.271  19.886  0.00  0.00    +0.000 A 
ATOM     13  C   UNL     1       1.176  12.971  19.739  0.00  0.00    +0.000 A 
ATOM     14  O   UNL     1       0.843  11.681  19.443  0.00  0.00    +0.000 OA
ATOM     15  C   UNL     1      -0.458  11.448  19.068  0.00  0.00    +0.000 A 
ATOM     16  C   UNL     1      -0.656  10.364  18.198  0.00  0.00    +0.000 A 
ATOM     17  C   UNL     1      -1.932  10.066  17.724  0.00  0.00    +0.000 A 
ATOM     18  C   UNL     1      -3.011  10.841  18.131  0.00  0.00    +0.000 A 
ATOM     19  C   UNL     1      -2.814  11.930  19.001  0.00  0.00    +0.000 A 
ATOM     20  C   UNL     1      -1.526  12.256  19.476  0.00  0.00    +0.000 A 
BRANCH   7  21
ATOM     21  O   UNL     1      -2.079  14.533  19.622  0.00  0.00    +0.000 OA
ATOM     22  H   UNL     1      -2.994  14.301  19.824  0.00  0.00    +0.000 HD
ENDBRANCH   7  21
ENDBRANCH   1   7
BRANCH   1  23
ATOM     23  C   UNL     1      -0.505  12.552  22.663  0.00  0.00    +0.000 C 
BRANCH  23  24
ATOM     24  C   UNL     1      -0.941  11.103  22.901  0.00  0.00    +0.000 C 
BRANCH  24  25
ATOM     25  C   UNL     1       0.098  10.178  22.296  0.00  0.00    +0.000 C 
BRANCH  25  26
ATOM     26  C   UNL     1      -0.398   8.742  22.115  0.00  0.00    +0.000 C 
BRANCH  26  28
ATOM     27  C   UNL     1       1.535   7.634  20.380  0.00  0.00    +0.000 C 
ATOM     28  C   UNL     1       0.642   8.146  21.180  0.00  0.00    +0.000 C 
BRANCH  27  29
ATOM     29  C   UNL     1       2.575   7.037  19.446  0.00  0.00    +0.000 C 
BRANCH  29  30
ATOM     30  N   UNL     1       2.455   5.568  19.364  0.00  0.00    +0.000 NA
BRANCH  30  32
ATOM     31  C   UNL     1       2.269   4.091  21.414  0.00  0.00    +0.000 C 
ATOM     32  C   UNL     1       1.608   5.095  20.474  0.00  0.00    +0.000 C 
ENDBRANCH  30  32
BRANCH  30  33
ATOM     33  C   UNL     1       2.030   5.086  18.043  0.00  0.00    +0.000 C 
ATOM     34  C   UNL     1       2.806   3.912  17.458  0.00  0.00    +0.000 C 
ENDBRANCH  30  33
ENDBRANCH  29  30
ENDBRANCH  27  29
ENDBRANCH  26  28
ENDBRANCH  25  26
ENDBRANCH  24  25
ENDBRANCH  23  24
ENDBRANCH   1  23
TORSDOF 11
ENDMDL
MODEL 6
REMARK VINA RESULT:      -5.9      1.372      1.740
REMARK  Name = 
REMARK  13 active torsions:
REMARK  status: ('A' for Active; 'I' for Inactive)
REMARK    1  A    between atoms: C_1  and  C_2
REMARK    2  A    between atoms: C_2  and  N_3
REMARK    3  A    between atoms: N_3  and  C_4
REMARK    4  A    between atoms: N_3  and  C_6
REMARK    5  A    between atoms: C_4  and  C_5
REMARK    6  A    between atoms: C_6  and  C_7
REMARK    7  A    between atoms: C_8  and  C_9
REMARK    8  A    between atoms: C_9  and  C_10
REMARK    9  A    between atoms: C_10  and  C_11
REMARK   10  A    between atoms: C_11  and  C_12
REMARK   11  A    between atoms: C_12  and  C_13
REMARK   12  A    between atoms: C_13  and  C_14
REMARK   13  A    between atoms: C_14  and  O_15
REMARK                            x       y       z     vdW  Elec       q    Type
REMARK                         _______ _______ _______ _____ _____    ______ ____
ROOT
ATOM      1  C   UNL     1      -1.386  13.695  22.025  0.00  0.00    +0.000 C 
ATOM      2  S   UNL     1      -3.277  13.629  22.003  0.00  0.00    +0.000 S 
ATOM      3  C   UNL     1      -3.731  13.654  23.736  0.00  0.00    +0.000 C 
ATOM      4  C   UNL     1      -3.258  14.864  24.518  0.00  0.00    +0.000 C 
ATOM      5  C   UNL     1      -1.749  15.043  24.589  0.00  0.00    +0.000 C 
ATOM      6  S   UNL     1      -0.917  15.271  22.970  0.00  0.00    +0.000 S 
ENDROOT
BRANCH   1   7
ATOM      7  C   UNL     1      -0.895  13.680  20.430  0.00  0.00    +0.000 C 
ATOM      8  C   UNL     1       0.572  14.139  20.330  0.00  0.00    +0.000 A 
ATOM      9  C   UNL     1       0.957  15.485  20.474  0.00  0.00    +0.000 A 
ATOM     10  C   UNL     1       2.242  15.799  20.885  0.00  0.00    +0.000 A 
ATOM     11  C   UNL     1       3.206  14.800  21.011  0.00  0.00    +0.000 A 
ATOM     12  C   UNL     1       2.882  13.497  20.664  0.00  0.00    +0.000 A 
ATOM     13  C   UNL     1       1.573  13.160  20.313  0.00  0.00    +0.000 A 
ATOM     14  O   UNL     1       1.318  11.855  20.007  0.00  0.00    +0.000 OA
ATOM     15  C   UNL     1       0.098  11.579  19.437  0.00  0.00    +0.000 A 
ATOM     16  C   UNL     1       0.062  10.468  18.580  0.00  0.00    +0.000 A 
ATOM     17  C   UNL     1      -1.115  10.127  17.919  0.00  0.00    +0.000 A 
ATOM     18  C   UNL     1      -2.262  10.885  18.127  0.00  0.00    +0.000 A 
ATOM     19  C   UNL     1      -2.227  12.000  18.985  0.00  0.00    +0.000 A 
ATOM     20  C   UNL     1      -1.038  12.371  19.648  0.00  0.00    +0.000 A 
BRANCH   7  21
ATOM     21  O   UNL     1      -1.653  14.636  19.637  0.00  0.00    +0.000 OA
ATOM     22  H   UNL     1      -2.217  14.130  19.038  0.00  0.00    +0.000 HD
ENDBRANCH   7  21
ENDBRANCH   1   7
BRANCH   1  23
ATOM     23  C   UNL     1      -0.809  12.526  22.866  0.00  0.00    +0.000 C 
BRANCH  23  24
ATOM     24  C   UNL     1      -1.320  11.104  22.617  0.00  0.00    +0.000 C 
BRANCH  24  25
ATOM     25  C   UNL     1      -0.178  10.131  22.843  0.00  0.00    +0.000 C 
BRANCH  25  26
ATOM     26  C   UNL     1      -0.552   8.676  22.555  0.00  0.00    +0.000 C 
BRANCH  26  28
ATOM     27  C   UNL     1       1.380   7.906  20.644  0.00  0.00    +0.000 C 
ATOM     28  C   UNL     1       0.488   8.262  21.526  0.00  0.00    +0.000 C 
BRANCH  27  29
ATOM     29  C   UNL     1       2.420   7.492  19.616  0.00  0.00    +0.000 C 
BRANCH  29  30
ATOM     30  N   UNL     1       2.207   6.106  19.154  0.00  0.00    +0.000 NA
BRANCH  30  32
ATOM     31  C   UNL     1       3.796   4.625  17.851  0.00  0.00    +0.000 C 
ATOM     32  C   UNL     1       2.956   5.898  17.902  0.00  0.00    +0.000 C 
ENDBRANCH  30  32
BRANCH  30  33
ATOM     33  C   UNL     1       2.480   5.096  20.185  0.00  0.00    +0.000 C 
ATOM     34  C   UNL     1       1.306   4.226  20.621  0.00  0.00    +0.000 C 
ENDBRANCH  30  33
ENDBRANCH  29  30
ENDBRANCH  27  29
ENDBRANCH  26  28
ENDBRANCH  25  26
ENDBRANCH  24  25
ENDBRANCH  23  24
ENDBRANCH   1  23
TORSDOF 11
ENDMDL
MODEL 7
REMARK VINA RESULT:      -5.8      1.498      2.240
REMARK  Name = 
REMARK  13 active torsions:
REMARK  status: ('A' for Active; 'I' for Inactive)
REMARK    1  A    between atoms: C_1  and  C_2
REMARK    2  A    between atoms: C_2  and  N_3
REMARK    3  A    between atoms: N_3  and  C_4
REMARK    4  A    between atoms: N_3  and  C_6
REMARK    5  A    between atoms: C_4  and  C_5
REMARK    6  A    between atoms: C_6  and  C_7
REMARK    7  A    between atoms: C_8  and  C_9
REMARK    8  A    between atoms: C_9  and  C_10
REMARK    9  A    between atoms: C_10  and  C_11
REMARK   10  A    between atoms: C_11  and  C_12
REMARK   11  A    between atoms: C_12  and  C_13
REMARK   12  A    between atoms: C_13  and  C_14
REMARK   13  A    between atoms: C_14  and  O_15
REMARK                            x       y       z     vdW  Elec       q    Type
REMARK                         _______ _______ _______ _____ _____    ______ ____
ROOT
ATOM      1  C   UNL     1      -1.463  13.117  21.479  0.00  0.00    +0.000 C 
ATOM      2  S   UNL     1      -3.229  12.633  21.956  0.00  0.00    +0.000 S 
ATOM      3  C   UNL     1      -3.200  12.599  23.747  0.00  0.00    +0.000 C 
ATOM      4  C   UNL     1      -2.814  13.902  24.419  0.00  0.00    +0.000 C 
ATOM      5  C   UNL     1      -1.418  14.412  24.095  0.00  0.00    +0.000 C 
ATOM      6  S   UNL     1      -1.117  14.779  22.323  0.00  0.00    +0.000 S 
ENDROOT
BRANCH   1   7
ATOM      7  C   UNL     1      -1.422  13.172  19.812  0.00  0.00    +0.000 C 
ATOM      8  C   UNL     1       0.014  13.457  19.332  0.00  0.00    +0.000 A 
ATOM      9  C   UNL     1       0.607  14.729  19.426  0.00  0.00    +0.000 A 
ATOM     10  C   UNL     1       1.985  14.850  19.481  0.00  0.00    +0.000 A 
ATOM     11  C   UNL     1       2.800  13.734  19.291  0.00  0.00    +0.000 A 
ATOM     12  C   UNL     1       2.217  12.514  18.987  0.00  0.00    +0.000 A 
ATOM     13  C   UNL     1       0.828  12.367  18.996  0.00  0.00    +0.000 A 
ATOM     14  O   UNL     1       0.321  11.133  18.713  0.00  0.00    +0.000 OA
ATOM     15  C   UNL     1      -1.032  11.054  18.489  0.00  0.00    +0.000 A 
ATOM     16  C   UNL     1      -1.450  10.030  17.625  0.00  0.00    +0.000 A 
ATOM     17  C   UNL     1      -2.797   9.889  17.299  0.00  0.00    +0.000 A 
ATOM     18  C   UNL     1      -3.729  10.762  17.850  0.00  0.00    +0.000 A 
ATOM     19  C   UNL     1      -3.312  11.791  18.714  0.00  0.00    +0.000 A 
ATOM     20  C   UNL     1      -1.950  11.958  19.040  0.00  0.00    +0.000 A 
BRANCH   7  21
ATOM     21  O   UNL     1      -2.224  14.275  19.302  0.00  0.00    +0.000 OA
ATOM     22  H   UNL     1      -2.406  14.093  18.372  0.00  0.00    +0.000 HD
ENDBRANCH   7  21
ENDBRANCH   1   7
BRANCH   1  23
ATOM     23  C   UNL     1      -0.440  12.124  22.094  0.00  0.00    +0.000 C 
BRANCH  23  24
ATOM     24  C   UNL     1      -0.929  10.762  22.593  0.00  0.00    +0.000 C 
BRANCH  24  25
ATOM     25  C   UNL     1      -0.391   9.685  21.670  0.00  0.00    +0.000 C 
BRANCH  25  26
ATOM     26  C   UNL     1       1.137   9.617  21.640  0.00  0.00    +0.000 C 
BRANCH  26  28
ATOM     27  C   UNL     1       1.622   6.957  20.825  0.00  0.00    +0.000 C 
ATOM     28  C   UNL     1       1.398   8.185  21.201  0.00  0.00    +0.000 C 
BRANCH  27  29
ATOM     29  C   UNL     1       1.884   5.526  20.387  0.00  0.00    +0.000 C 
BRANCH  29  30
ATOM     30  N   UNL     1       2.726   5.473  19.175  0.00  0.00    +0.000 NA
BRANCH  30  32
ATOM     31  C   UNL     1       3.611   7.292  17.650  0.00  0.00    +0.000 C 
ATOM     32  C   UNL     1       2.409   6.632  18.322  0.00  0.00    +0.000 C 
ENDBRANCH  30  32
BRANCH  30  33
ATOM     33  C   UNL     1       4.158   5.318  19.462  0.00  0.00    +0.000 C 
ATOM     34  C   UNL     1       4.833   4.062  18.924  0.00  0.00    +0.000 C 
ENDBRANCH  30  33
ENDBRANCH  29  30
ENDBRANCH  27  29
ENDBRANCH  26  28
ENDBRANCH  25  26
ENDBRANCH  24  25
ENDBRANCH  23  24
ENDBRANCH   1  23
TORSDOF 11
ENDMDL
MODEL 8
REMARK VINA RESULT:      -5.8      2.262      5.479
REMARK  Name = 
REMARK  13 active torsions:
REMARK  status: ('A' for Active; 'I' for Inactive)
REMARK    1  A    between atoms: C_1  and  C_2
REMARK    2  A    between atoms: C_2  and  N_3
REMARK    3  A    between atoms: N_3  and  C_4
REMARK    4  A    between atoms: N_3  and  C_6
REMARK    5  A    between atoms: C_4  and  C_5
REMARK    6  A    between atoms: C_6  and  C_7
REMARK    7  A    between atoms: C_8  and  C_9
REMARK    8  A    between atoms: C_9  and  C_10
REMARK    9  A    between atoms: C_10  and  C_11
REMARK   10  A    between atoms: C_11  and  C_12
REMARK   11  A    between atoms: C_12  and  C_13
REMARK   12  A    between atoms: C_13  and  C_14
REMARK   13  A    between atoms: C_14  and  O_15
REMARK                            x       y       z     vdW  Elec       q    Type
REMARK                         _______ _______ _______ _____ _____    ______ ____
ROOT
ATOM      1  C   UNL     1       0.443  13.129  20.121  0.00  0.00    +0.000 C 
ATOM      2  S   UNL     1       1.056  14.136  21.601  0.00  0.00    +0.000 S 
ATOM      3  C   UNL     1       2.646  14.765  21.068  0.00  0.00    +0.000 C 
ATOM      4  C   UNL     1       2.623  15.627  19.821  0.00  0.00    +0.000 C 
ATOM      5  C   UNL     1       2.125  14.935  18.562  0.00  0.00    +0.000 C 
ATOM      6  S   UNL     1       0.398  14.319  18.646  0.00  0.00    +0.000 S 
ENDROOT
BRANCH   1   7
ATOM      7  C   UNL     1      -1.048  12.514  20.553  0.00  0.00    +0.000 C 
ATOM      8  C   UNL     1      -0.876  11.122  21.190  0.00  0.00    +0.000 A 
ATOM      9  C   UNL     1      -0.579   9.973  20.434  0.00  0.00    +0.000 A 
ATOM     10  C   UNL     1       0.056   8.896  21.029  0.00  0.00    +0.000 A 
ATOM     11  C   UNL     1       0.270   8.876  22.406  0.00  0.00    +0.000 A 
ATOM     12  C   UNL     1      -0.214   9.918  23.183  0.00  0.00    +0.000 A 
ATOM     13  C   UNL     1      -0.795  11.039  22.586  0.00  0.00    +0.000 A 
ATOM     14  O   UNL     1      -1.227  12.039  23.407  0.00  0.00    +0.000 OA
ATOM     15  C   UNL     1      -2.006  13.017  22.836  0.00  0.00    +0.000 A 
ATOM     16  C   UNL     1      -2.931  13.636  23.690  0.00  0.00    +0.000 A 
ATOM     17  C   UNL     1      -3.797  14.612  23.202  0.00  0.00    +0.000 A 
ATOM     18  C   UNL     1      -3.728  14.980  21.863  0.00  0.00    +0.000 A 
ATOM     19  C   UNL     1      -2.802  14.358  21.005  0.00  0.00    +0.000 A 
ATOM     20  C   UNL     1      -1.930  13.356  21.479  0.00  0.00    +0.000 A 
BRANCH   7  21
ATOM     21  O   UNL     1      -1.887  12.301  19.382  0.00  0.00    +0.000 OA
ATOM     22  H   UNL     1      -1.340  11.875  18.710  0.00  0.00    +0.000 HD
ENDBRANCH   7  21
ENDBRANCH   1   7
BRANCH   1  23
ATOM     23  C   UNL     1       1.478  12.038  19.737  0.00  0.00    +0.000 C 
BRANCH  23  24
ATOM     24  C   UNL     1       1.493  11.494  18.306  0.00  0.00    +0.000 C 
BRANCH  24  25
ATOM     25  C   UNL     1       2.350  10.243  18.270  0.00  0.00    +0.000 C 
BRANCH  25  26
ATOM     26  C   UNL     1       1.642   9.037  17.650  0.00  0.00    +0.000 C 
BRANCH  26  28
ATOM     27  C   UNL     1       3.578   6.995  17.883  0.00  0.00    +0.000 C 
ATOM     28  C   UNL     1       2.685   7.938  17.776  0.00  0.00    +0.000 C 
BRANCH  27  29
ATOM     29  C   UNL     1       4.621   5.896  18.008  0.00  0.00    +0.000 C 
BRANCH  29  30
ATOM     30  N   UNL     1       5.742   6.100  17.071  0.00  0.00    +0.000 NA
BRANCH  30  32
ATOM     31  C   UNL     1       5.519   4.659  14.999  0.00  0.00    +0.000 C 
ATOM     32  C   UNL     1       5.238   5.991  15.690  0.00  0.00    +0.000 C 
ENDBRANCH  30  32
BRANCH  30  33
ATOM     33  C   UNL     1       6.508   7.326  17.330  0.00  0.00    +0.000 C 
ATOM     34  C   UNL     1       7.808   7.172  18.111  0.00  0.00    +0.000 C 
ENDBRANCH  30  33
ENDBRANCH  29  30
ENDBRANCH  27  29
ENDBRANCH  26  28
ENDBRANCH  25  26
ENDBRANCH  24  25
ENDBRANCH  23  24
ENDBRANCH   1  23
TORSDOF 11
ENDMDL
MODEL 9
REMARK VINA RESULT:      -5.7      1.850      4.210
REMARK  Name = 
REMARK  13 active torsions:
REMARK  status: ('A' for Active; 'I' for Inactive)
REMARK    1  A    between atoms: C_1  and  C_2
REMARK    2  A    between atoms: C_2  and  N_3
REMARK    3  A    between atoms: N_3  and  C_4
REMARK    4  A    between atoms: N_3  and  C_6
REMARK    5  A    between atoms: C_4  and  C_5
REMARK    6  A    between atoms: C_6  and  C_7
REMARK    7  A    between atoms: C_8  and  C_9
REMARK    8  A    between atoms: C_9  and  C_10
REMARK    9  A    between atoms: C_10  and  C_11
REMARK   10  A    between atoms: C_11  and  C_12
REMARK   11  A    between atoms: C_12  and  C_13
REMARK   12  A    between atoms: C_13  and  C_14
REMARK   13  A    between atoms: C_14  and  O_15
REMARK                            x       y       z     vdW  Elec       q    Type
REMARK                         _______ _______ _______ _____ _____    ______ ____
ROOT
ATOM      1  C   UNL     1       0.212  12.683  19.604  0.00  0.00    +0.000 C 
ATOM      2  S   UNL     1       1.503  12.718  20.986  0.00  0.00    +0.000 S 
ATOM      3  C   UNL     1       2.830  13.717  20.314  0.00  0.00    +0.000 C 
ATOM      4  C   UNL     1       2.448  15.130  19.917  0.00  0.00    +0.000 C 
ATOM      5  C   UNL     1       1.394  15.236  18.825  0.00  0.00    +0.000 C 
ATOM      6  S   UNL     1      -0.230  14.490  19.239  0.00  0.00    +0.000 S 
ENDROOT
BRANCH   1   7
ATOM      7  C   UNL     1      -1.063  11.766  20.172  0.00  0.00    +0.000 C 
ATOM      8  C   UNL     1      -1.712  12.465  21.381  0.00  0.00    +0.000 A 
ATOM      9  C   UNL     1      -1.114  12.489  22.655  0.00  0.00    +0.000 A 
ATOM     10  C   UNL     1      -1.423  13.503  23.547  0.00  0.00    +0.000 A 
ATOM     11  C   UNL     1      -2.436  14.415  23.255  0.00  0.00    +0.000 A 
ATOM     12  C   UNL     1      -3.171  14.262  22.089  0.00  0.00    +0.000 A 
ATOM     13  C   UNL     1      -2.824  13.286  21.153  0.00  0.00    +0.000 A 
ATOM     14  O   UNL     1      -3.574  13.206  20.016  0.00  0.00    +0.000 OA
ATOM     15  C   UNL     1      -3.379  12.102  19.221  0.00  0.00    +0.000 A 
ATOM     16  C   UNL     1      -4.490  11.688  18.469  0.00  0.00    +0.000 A 
ATOM     17  C   UNL     1      -4.411  10.556  17.662  0.00  0.00    +0.000 A 
ATOM     18  C   UNL     1      -3.218   9.846  17.594  0.00  0.00    +0.000 A 
ATOM     19  C   UNL     1      -2.105  10.258  18.349  0.00  0.00    +0.000 A 
ATOM     20  C   UNL     1      -2.173  11.392  19.185  0.00  0.00    +0.000 A 
BRANCH   7  21
ATOM     21  O   UNL     1      -0.602  10.479  20.672  0.00  0.00    +0.000 OA
ATOM     22  H   UNL     1      -0.391   9.931  19.905  0.00  0.00    +0.000 HD
ENDBRANCH   7  21
ENDBRANCH   1   7
BRANCH   1  23
ATOM     23  C   UNL     1       0.833  12.139  18.290  0.00  0.00    +0.000 C 
BRANCH  23  24
ATOM     24  C   UNL     1       2.038  11.197  18.369  0.00  0.00    +0.000 C 
BRANCH  24  25
ATOM     25  C   UNL     1       1.532   9.773  18.501  0.00  0.00    +0.000 C 
BRANCH  25  26
ATOM     26  C   UNL     1       2.200   8.797  17.530  0.00  0.00    +0.000 C 
BRANCH  26  28
ATOM     27  C   UNL     1       2.540   6.483  19.113  0.00  0.00    +0.000 C 
ATOM     28  C   UNL     1       2.383   7.552  18.382  0.00  0.00    +0.000 C 
BRANCH  27  29
ATOM     29  C   UNL     1       2.723   5.238  19.965  0.00  0.00    +0.000 C 
BRANCH  29  30
ATOM     30  N   UNL     1       2.084   4.058  19.350  0.00  0.00    +0.000 NA
BRANCH  30  32
ATOM     31  C   UNL     1       2.691   2.149  17.799  0.00  0.00    +0.000 C 
ATOM     32  C   UNL     1       3.133   3.139  18.874  0.00  0.00    +0.000 C 
ENDBRANCH  30  32
BRANCH  30  33
ATOM     33  C   UNL     1       1.078   3.420  20.210  0.00  0.00    +0.000 C 
ATOM     34  C   UNL     1       1.558   2.909  21.563  0.00  0.00    +0.000 C 
ENDBRANCH  30  33
ENDBRANCH  29  30
ENDBRANCH  27  29
ENDBRANCH  26  28
ENDBRANCH  25  26
ENDBRANCH  24  25
ENDBRANCH  23  24
ENDBRANCH   1  23
TORSDOF 11
ENDMDL
