MODEL 1
REMARK VINA RESULT:      -7.5      0.000      0.000
REMARK  Name = 
REMARK  14 active torsions:
REMARK  status: ('A' for Active; 'I' for Inactive)
REMARK    1  A    between atoms: C_1  and  C_2
REMARK    2  A    between atoms: C_2  and  C_3
REMARK    3  A    between atoms: C_2  and  N_4
REMARK    4  A    between atoms: N_4  and  C_5
REMARK    5  A    between atoms: N_4  and  C_29
REMARK    6  A    between atoms: C_5  and  C_6
REMARK    7  A    between atoms: C_6  and  O_7
REMARK    8  A    between atoms: O_7  and  C_8
REMARK    9  A    between atoms: C_11  and  N_12
REMARK   10  A    between atoms: C_15  and  O_16
REMARK   11  A    between atoms: O_16  and  C_17
REMARK   12  A    between atoms: C_17  and  C_18
REMARK   13  A    between atoms: C_29  and  C_30
REMARK   14  A    between atoms: C_29  and  C_31
REMARK                            x       y       z     vdW  Elec       q    Type
REMARK                         _______ _______ _______ _____ _____    ______ ____
ROOT
ATOM      1  C   UNL     1       2.411   6.895  19.043  0.00  0.00    +0.000 A 
ATOM      2  C   UNL     1       2.391   7.650  17.868  0.00  0.00    +0.000 A 
ATOM      3  C   UNL     1       1.901   8.962  17.875  0.00  0.00    +0.000 A 
ATOM      4  C   UNL     1       1.372   9.507  19.050  0.00  0.00    +0.000 A 
ATOM      5  C   UNL     1       1.379   8.742  20.220  0.00  0.00    +0.000 A 
ATOM      6  C   UNL     1       1.897   7.446  20.218  0.00  0.00    +0.000 A 
ENDROOT
BRANCH   4   7
ATOM      7  N   UNL     1       0.835  10.823  19.070  0.00  0.00    +0.000 N 
ATOM      8  C   UNL     1       1.650  11.906  19.372  0.00  0.00    +0.000 A 
ATOM      9  C   UNL     1       1.161  13.144  19.488  0.00  0.00    +0.000 A 
ATOM     10  C   UNL     1      -0.237  13.401  19.215  0.00  0.00    +0.000 A 
ATOM     11  C   UNL     1      -1.055  12.384  18.927  0.00  0.00    +0.000 A 
ATOM     12  C   UNL     1      -0.548  10.986  18.847  0.00  0.00    +0.000 A 
ATOM     13  O   UNL     1      -1.345  10.101  18.570  0.00  0.00    +0.000 OA
BRANCH  10  14
ATOM     14  O   UNL     1      -0.734  14.685  19.264  0.00  0.00    +0.000 OA
BRANCH  14  15
ATOM     15  C   UNL     1       0.164  15.711  19.682  0.00  0.00    +0.000 C 
BRANCH  15  16
ATOM     16  C   UNL     1       0.377  16.686  18.559  0.00  0.00    +0.000 A 
ATOM     17  C   UNL     1      -0.699  17.375  17.987  0.00  0.00    +0.000 A 
ATOM     18  C   UNL     1      -0.480  18.288  16.955  0.00  0.00    +0.000 A 
ATOM     19  C   UNL     1       0.814  18.513  16.485  0.00  0.00    +0.000 A 
ATOM     20  C   UNL     1       1.890  17.824  17.043  0.00  0.00    +0.000 A 
ATOM     21  C   UNL     1       1.673  16.911  18.072  0.00  0.00    +0.000 A 
ENDBRANCH  15  16
ENDBRANCH  14  15
ENDBRANCH  10  14
ENDBRANCH   4   7
BRANCH   1  22
ATOM     22  O   UNL     1       2.948   5.635  18.936  0.00  0.00    +0.000 OA
BRANCH  22  23
ATOM     23  C   UNL     1       4.352   5.565  19.220  0.00  0.00    +0.000 C 
BRANCH  23  24
ATOM     24  C   UNL     1       5.044   4.561  18.273  0.00  0.00    +0.000 C 
BRANCH  24  25
ATOM     25  N   UNL     1       6.359   4.999  17.700  0.00  0.00    +0.000 NA
BRANCH  25  27
ATOM     26  C   UNL     1       7.997   5.699  19.501  0.00  0.00    +0.000 C 
ATOM     27  C   UNL     1       6.925   6.152  18.478  0.00  0.00    +0.000 C 
ATOM     28  C   UNL     1       7.597   7.257  17.649  0.00  0.00    +0.000 C 
ENDBRANCH  25  27
BRANCH  25  29
ATOM     29  C   UNL     1       6.265   5.172  16.210  0.00  0.00    +0.000 C 
ATOM     30  C   UNL     1       6.061   3.889  15.385  0.00  0.00    +0.000 C 
ATOM     31  C   UNL     1       5.093   6.094  15.791  0.00  0.00    +0.000 C 
ENDBRANCH  25  29
ENDBRANCH  24  25
ENDBRANCH  23  24
ENDBRANCH  22  23
ENDBRANCH   1  22
TORSDOF 10
ENDMDL
MODEL 2
REMARK VINA RESULT:      -7.2      1.051      2.298
REMARK  Name = 
REMARK  14 active torsions:
REMARK  status: ('A' for Active; 'I' for Inactive)
REMARK    1  A    between atoms: C_1  and  C_2
REMARK    2  A    between atoms: C_2  and  C_3
REMARK    3  A    between atoms: C_2  and  N_4
REMARK    4  A    between atoms: N_4  and  C_5
REMARK    5  A    between atoms: N_4  and  C_29
REMARK    6  A    between atoms: C_5  and  C_6
REMARK    7  A    between atoms: C_6  and  O_7
REMARK    8  A    between atoms: O_7  and  C_8
REMARK    9  A    between atoms: C_11  and  N_12
REMARK   10  A    between atoms: C_15  and  O_16
REMARK   11  A    between atoms: O_16  and  C_17
REMARK   12  A    between atoms: C_17  and  C_18
REMARK   13  A    between atoms: C_29  and  C_30
REMARK   14  A    between atoms: C_29  and  C_31
REMARK                            x       y       z     vdW  Elec       q    Type
REMARK                         _______ _______ _______ _____ _____    ______ ____
ROOT
ATOM      1  C   UNL     1       2.369   7.244  19.046  0.00  0.00    +0.000 A 
ATOM      2  C   UNL     1       2.421   8.130  17.967  0.00  0.00    +0.000 A 
ATOM      3  C   UNL     1       1.858   9.408  18.070  0.00  0.00    +0.000 A 
ATOM      4  C   UNL     1       1.185   9.787  19.236  0.00  0.00    +0.000 A 
ATOM      5  C   UNL     1       1.121   8.891  20.308  0.00  0.00    +0.000 A 
ATOM      6  C   UNL     1       1.710   7.629  20.215  0.00  0.00    +0.000 A 
ENDROOT
BRANCH   4   7
ATOM      7  N   UNL     1       0.574  11.066  19.347  0.00  0.00    +0.000 N 
ATOM      8  C   UNL     1      -0.376  11.469  18.419  0.00  0.00    +0.000 A 
ATOM      9  C   UNL     1      -0.904  12.696  18.440  0.00  0.00    +0.000 A 
ATOM     10  C   UNL     1      -0.552  13.620  19.498  0.00  0.00    +0.000 A 
ATOM     11  C   UNL     1       0.364  13.271  20.407  0.00  0.00    +0.000 A 
ATOM     12  C   UNL     1       1.009  11.930  20.373  0.00  0.00    +0.000 A 
ATOM     13  O   UNL     1       1.833  11.667  21.239  0.00  0.00    +0.000 OA
BRANCH  10  14
ATOM     14  O   UNL     1      -1.145  14.862  19.566  0.00  0.00    +0.000 OA
BRANCH  14  15
ATOM     15  C   UNL     1      -0.331  15.943  20.016  0.00  0.00    +0.000 C 
BRANCH  15  16
ATOM     16  C   UNL     1       0.043  16.815  18.851  0.00  0.00    +0.000 A 
ATOM     17  C   UNL     1       1.366  16.886  18.396  0.00  0.00    +0.000 A 
ATOM     18  C   UNL     1       1.690  17.689  17.303  0.00  0.00    +0.000 A 
ATOM     19  C   UNL     1       0.698  18.432  16.663  0.00  0.00    +0.000 A 
ATOM     20  C   UNL     1      -0.619  18.375  17.115  0.00  0.00    +0.000 A 
ATOM     21  C   UNL     1      -0.945  17.574  18.207  0.00  0.00    +0.000 A 
ENDBRANCH  15  16
ENDBRANCH  14  15
ENDBRANCH  10  14
ENDBRANCH   4   7
BRANCH   1  22
ATOM     22  O   UNL     1       2.985   6.031  18.856  0.00  0.00    +0.000 OA
BRANCH  22  23
ATOM     23  C   UNL     1       4.234   5.888  19.546  0.00  0.00    +0.000 C 
BRANCH  23  24
ATOM     24  C   UNL     1       5.266   5.170  18.652  0.00  0.00    +0.000 C 
BRANCH  24  25
ATOM     25  N   UNL     1       5.804   5.967  17.501  0.00  0.00    +0.000 NA
BRANCH  25  27
ATOM     26  C   UNL     1       6.647   5.022  15.307  0.00  0.00    +0.000 C 
ATOM     27  C   UNL     1       5.416   5.344  16.191  0.00  0.00    +0.000 C 
ATOM     28  C   UNL     1       4.627   4.028  16.280  0.00  0.00    +0.000 C 
ENDBRANCH  25  27
BRANCH  25  29
ATOM     29  C   UNL     1       7.261   6.277  17.696  0.00  0.00    +0.000 C 
ATOM     30  C   UNL     1       7.659   7.762  17.631  0.00  0.00    +0.000 C 
ATOM     31  C   UNL     1       7.793   5.792  19.068  0.00  0.00    +0.000 C 
ENDBRANCH  25  29
ENDBRANCH  24  25
ENDBRANCH  23  24
ENDBRANCH  22  23
ENDBRANCH   1  22
TORSDOF 10
ENDMDL
MODEL 3
REMARK VINA RESULT:      -7.1      1.394      2.419
REMARK  Name = 
REMARK  14 active torsions:
REMARK  status: ('A' for Active; 'I' for Inactive)
REMARK    1  A    between atoms: C_1  and  C_2
REMARK    2  A    between atoms: C_2  and  C_3
REMARK    3  A    between atoms: C_2  and  N_4
REMARK    4  A    between atoms: N_4  and  C_5
REMARK    5  A    between atoms: N_4  and  C_29
REMARK    6  A    between atoms: C_5  and  C_6
REMARK    7  A    between atoms: C_6  and  O_7
REMARK    8  A    between atoms: O_7  and  C_8
REMARK    9  A    between atoms: C_11  and  N_12
REMARK   10  A    between atoms: C_15  and  O_16
REMARK   11  A    between atoms: O_16  and  C_17
REMARK   12  A    between atoms: C_17  and  C_18
REMARK   13  A    between atoms: C_29  and  C_30
REMARK   14  A    between atoms: C_29  and  C_31
REMARK                            x       y       z     vdW  Elec       q    Type
REMARK                         _______ _______ _______ _____ _____    ______ ____
ROOT
ATOM      1  C   UNL     1       2.219   7.679  18.681  0.00  0.00    +0.000 A 
ATOM      2  C   UNL     1       1.605   7.975  19.901  0.00  0.00    +0.000 A 
ATOM      3  C   UNL     1       1.024   9.230  20.117  0.00  0.00    +0.000 A 
ATOM      4  C   UNL     1       1.107  10.221  19.132  0.00  0.00    +0.000 A 
ATOM      5  C   UNL     1       1.737   9.926  17.919  0.00  0.00    +0.000 A 
ATOM      6  C   UNL     1       2.288   8.664  17.694  0.00  0.00    +0.000 A 
ENDROOT
BRANCH   4   7
ATOM      7  N   UNL     1       0.557  11.514  19.346  0.00  0.00    +0.000 N 
ATOM      8  C   UNL     1      -0.307  12.069  18.413  0.00  0.00    +0.000 A 
ATOM      9  C   UNL     1      -0.772  13.316  18.537  0.00  0.00    +0.000 A 
ATOM     10  C   UNL     1      -0.444  14.099  19.710  0.00  0.00    +0.000 A 
ATOM     11  C   UNL     1       0.390  13.601  20.629  0.00  0.00    +0.000 A 
ATOM     12  C   UNL     1       0.967  12.236  20.486  0.00  0.00    +0.000 A 
ATOM     13  O   UNL     1       1.716  11.835  21.366  0.00  0.00    +0.000 OA
BRANCH  10  14
ATOM     14  O   UNL     1      -0.975  15.359  19.879  0.00  0.00    +0.000 OA
BRANCH  14  15
ATOM     15  C   UNL     1      -0.052  16.428  20.079  0.00  0.00    +0.000 C 
BRANCH  15  16
ATOM     16  C   UNL     1       0.158  17.164  18.787  0.00  0.00    +0.000 A 
ATOM     17  C   UNL     1      -0.893  17.849  18.166  0.00  0.00    +0.000 A 
ATOM     18  C   UNL     1      -0.675  18.539  16.974  0.00  0.00    +0.000 A 
ATOM     19  C   UNL     1       0.593  18.543  16.391  0.00  0.00    +0.000 A 
ATOM     20  C   UNL     1       1.643  17.856  16.997  0.00  0.00    +0.000 A 
ATOM     21  C   UNL     1       1.427  17.165  18.187  0.00  0.00    +0.000 A 
ENDBRANCH  15  16
ENDBRANCH  14  15
ENDBRANCH  10  14
ENDBRANCH   4   7
BRANCH   1  22
ATOM     22  O   UNL     1       2.723   6.407  18.557  0.00  0.00    +0.000 OA
BRANCH  22  23
ATOM     23  C   UNL     1       3.498   5.966  19.680  0.00  0.00    +0.000 C 
BRANCH  23  24
ATOM     24  C   UNL     1       4.666   5.072  19.211  0.00  0.00    +0.000 C 
BRANCH  24  25
ATOM     25  N   UNL     1       4.546   4.507  17.827  0.00  0.00    +0.000 NA
BRANCH  25  27
ATOM     26  C   UNL     1       4.228   2.456  19.278  0.00  0.00    +0.000 C 
ATOM     27  C   UNL     1       4.076   3.082  17.870  0.00  0.00    +0.000 C 
ATOM     28  C   UNL     1       2.610   2.845  17.477  0.00  0.00    +0.000 C 
ENDBRANCH  25  27
BRANCH  25  29
ATOM     29  C   UNL     1       5.784   4.787  17.022  0.00  0.00    +0.000 C 
ATOM     30  C   UNL     1       7.126   4.635  17.758  0.00  0.00    +0.000 C 
ATOM     31  C   UNL     1       5.911   3.863  15.786  0.00  0.00    +0.000 C 
ENDBRANCH  25  29
ENDBRANCH  24  25
ENDBRANCH  23  24
ENDBRANCH  22  23
ENDBRANCH   1  22
TORSDOF 10
ENDMDL
MODEL 4
REMARK VINA RESULT:      -7.0      3.894      5.337
REMARK  Name = 
REMARK  14 active torsions:
REMARK  status: ('A' for Active; 'I' for Inactive)
REMARK    1  A    between atoms: C_1  and  C_2
REMARK    2  A    between atoms: C_2  and  C_3
REMARK    3  A    between atoms: C_2  and  N_4
REMARK    4  A    between atoms: N_4  and  C_5
REMARK    5  A    between atoms: N_4  and  C_29
REMARK    6  A    between atoms: C_5  and  C_6
REMARK    7  A    between atoms: C_6  and  O_7
REMARK    8  A    between atoms: O_7  and  C_8
REMARK    9  A    between atoms: C_11  and  N_12
REMARK   10  A    between atoms: C_15  and  O_16
REMARK   11  A    between atoms: O_16  and  C_17
REMARK   12  A    between atoms: C_17  and  C_18
REMARK   13  A    between atoms: C_29  and  C_30
REMARK   14  A    between atoms: C_29  and  C_31
REMARK                            x       y       z     vdW  Elec       q    Type
REMARK                         _______ _______ _______ _____ _____    ______ ____
ROOT
ATOM      1  C   UNL     1       2.298   7.497  19.321  0.00  0.00    +0.000 A 
ATOM      2  C   UNL     1       1.954   8.648  18.608  0.00  0.00    +0.000 A 
ATOM      3  C   UNL     1       1.110   9.610  19.177  0.00  0.00    +0.000 A 
ATOM      4  C   UNL     1       0.555   9.396  20.443  0.00  0.00    +0.000 A 
ATOM      5  C   UNL     1       0.889   8.235  21.147  0.00  0.00    +0.000 A 
ATOM      6  C   UNL     1       1.755   7.292  20.591  0.00  0.00    +0.000 A 
ENDROOT
BRANCH   4   7
ATOM      7  N   UNL     1      -0.333  10.342  21.023  0.00  0.00    +0.000 N 
ATOM      8  C   UNL     1      -1.169  11.102  20.216  0.00  0.00    +0.000 A 
ATOM      9  C   UNL     1      -1.951  12.062  20.718  0.00  0.00    +0.000 A 
ATOM     10  C   UNL     1      -2.006  12.279  22.148  0.00  0.00    +0.000 A 
ATOM     11  C   UNL     1      -1.212  11.571  22.958  0.00  0.00    +0.000 A 
ATOM     12  C   UNL     1      -0.290  10.535  22.419  0.00  0.00    +0.000 A 
ATOM     13  O   UNL     1       0.404   9.914  23.214  0.00  0.00    +0.000 OA
BRANCH  10  14
ATOM     14  O   UNL     1      -2.862  13.219  22.679  0.00  0.00    +0.000 OA
BRANCH  14  15
ATOM     15  C   UNL     1      -3.523  12.879  23.896  0.00  0.00    +0.000 C 
BRANCH  15  16
ATOM     16  C   UNL     1      -4.896  13.488  23.915  0.00  0.00    +0.000 A 
ATOM     17  C   UNL     1      -5.079  14.864  23.727  0.00  0.00    +0.000 A 
ATOM     18  C   UNL     1      -6.363  15.408  23.733  0.00  0.00    +0.000 A 
ATOM     19  C   UNL     1      -7.470  14.584  23.933  0.00  0.00    +0.000 A 
ATOM     20  C   UNL     1      -7.297  13.215  24.130  0.00  0.00    +0.000 A 
ATOM     21  C   UNL     1      -6.015  12.670  24.126  0.00  0.00    +0.000 A 
ENDBRANCH  15  16
ENDBRANCH  14  15
ENDBRANCH  10  14
ENDBRANCH   4   7
BRANCH   1  22
ATOM     22  O   UNL     1       3.162   6.636  18.689  0.00  0.00    +0.000 OA
BRANCH  22  23
ATOM     23  C   UNL     1       3.886   5.770  19.575  0.00  0.00    +0.000 C 
BRANCH  23  24
ATOM     24  C   UNL     1       5.095   5.144  18.848  0.00  0.00    +0.000 C 
BRANCH  24  25
ATOM     25  N   UNL     1       5.574   5.870  17.626  0.00  0.00    +0.000 NA
BRANCH  25  27
ATOM     26  C   UNL     1       5.488   5.967  15.097  0.00  0.00    +0.000 C 
ATOM     27  C   UNL     1       5.088   5.193  16.377  0.00  0.00    +0.000 C 
ATOM     28  C   UNL     1       5.587   3.756  16.155  0.00  0.00    +0.000 C 
ENDBRANCH  25  27
BRANCH  25  29
ATOM     29  C   UNL     1       7.047   6.153  17.712  0.00  0.00    +0.000 C 
ATOM     30  C   UNL     1       7.472   7.623  17.553  0.00  0.00    +0.000 C 
ATOM     31  C   UNL     1       7.658   5.717  19.067  0.00  0.00    +0.000 C 
ENDBRANCH  25  29
ENDBRANCH  24  25
ENDBRANCH  23  24
ENDBRANCH  22  23
ENDBRANCH   1  22
TORSDOF 10
ENDMDL
MODEL 5
REMARK VINA RESULT:      -7.0      3.189      4.855
REMARK  Name = 
REMARK  14 active torsions:
REMARK  status: ('A' for Active; 'I' for Inactive)
REMARK    1  A    between atoms: C_1  and  C_2
REMARK    2  A    between atoms: C_2  and  C_3
REMARK    3  A    between atoms: C_2  and  N_4
REMARK    4  A    between atoms: N_4  and  C_5
REMARK    5  A    between atoms: N_4  and  C_29
REMARK    6  A    between atoms: C_5  and  C_6
REMARK    7  A    between atoms: C_6  and  O_7
REMARK    8  A    between atoms: O_7  and  C_8
REMARK    9  A    between atoms: C_11  and  N_12
REMARK   10  A    between atoms: C_15  and  O_16
REMARK   11  A    between atoms: O_16  and  C_17
REMARK   12  A    between atoms: C_17  and  C_18
REMARK   13  A    between atoms: C_29  and  C_30
REMARK   14  A    between atoms: C_29  and  C_31
REMARK                            x       y       z     vdW  Elec       q    Type
REMARK                         _______ _______ _______ _____ _____    ______ ____
ROOT
ATOM      1  C   UNL     1       2.722   7.636  18.479  0.00  0.00    +0.000 A 
ATOM      2  C   UNL     1       2.198   7.518  19.768  0.00  0.00    +0.000 A 
ATOM      3  C   UNL     1       1.306   8.478  20.262  0.00  0.00    +0.000 A 
ATOM      4  C   UNL     1       0.978   9.596  19.488  0.00  0.00    +0.000 A 
ATOM      5  C   UNL     1       1.518   9.718  18.204  0.00  0.00    +0.000 A 
ATOM      6  C   UNL     1       2.382   8.744  17.701  0.00  0.00    +0.000 A 
ENDROOT
BRANCH   4   7
ATOM      7  N   UNL     1       0.105  10.601  19.986  0.00  0.00    +0.000 N 
ATOM      8  C   UNL     1       0.464  11.352  21.096  0.00  0.00    +0.000 A 
ATOM      9  C   UNL     1      -0.370  12.241  21.645  0.00  0.00    +0.000 A 
ATOM     10  C   UNL     1      -1.655  12.504  21.033  0.00  0.00    +0.000 A 
ATOM     11  C   UNL     1      -2.039  11.797  19.965  0.00  0.00    +0.000 A 
ATOM     12  C   UNL     1      -1.153  10.761  19.369  0.00  0.00    +0.000 A 
ATOM     13  O   UNL     1      -1.559  10.155  18.386  0.00  0.00    +0.000 OA
BRANCH  10  14
ATOM     14  O   UNL     1      -2.491  13.469  21.551  0.00  0.00    +0.000 OA
BRANCH  14  15
ATOM     15  C   UNL     1      -3.637  13.816  20.778  0.00  0.00    +0.000 C 
BRANCH  15  16
ATOM     16  C   UNL     1      -4.879  13.324  21.464  0.00  0.00    +0.000 A 
ATOM     17  C   UNL     1      -5.143  13.648  22.801  0.00  0.00    +0.000 A 
ATOM     18  C   UNL     1      -6.310  13.195  23.416  0.00  0.00    +0.000 A 
ATOM     19  C   UNL     1      -7.215  12.409  22.704  0.00  0.00    +0.000 A 
ATOM     20  C   UNL     1      -6.956  12.073  21.376  0.00  0.00    +0.000 A 
ATOM     21  C   UNL     1      -5.792  12.524  20.760  0.00  0.00    +0.000 A 
ENDBRANCH  15  16
ENDBRANCH  14  15
ENDBRANCH  10  14
ENDBRANCH   4   7
BRANCH   1  22
ATOM     22  O   UNL     1       3.556   6.621  18.075  0.00  0.00    +0.000 OA
BRANCH  22  23
ATOM     23  C   UNL     1       3.932   5.715  19.121  0.00  0.00    +0.000 C 
BRANCH  23  24
ATOM     24  C   UNL     1       5.306   5.081  18.818  0.00  0.00    +0.000 C 
BRANCH  24  25
ATOM     25  N   UNL     1       5.954   5.504  17.533  0.00  0.00    +0.000 NA
BRANCH  25  27
ATOM     26  C   UNL     1       4.581   3.537  16.720  0.00  0.00    +0.000 C 
ATOM     27  C   UNL     1       5.825   4.431  16.490  0.00  0.00    +0.000 C 
ATOM     28  C   UNL     1       5.710   4.918  15.037  0.00  0.00    +0.000 C 
ENDBRANCH  25  27
BRANCH  25  29
ATOM     29  C   UNL     1       7.335   6.044  17.779  0.00  0.00    +0.000 C 
ATOM     30  C   UNL     1       7.528   7.554  17.560  0.00  0.00    +0.000 C 
ATOM     31  C   UNL     1       7.820   5.796  19.229  0.00  0.00    +0.000 C 
ENDBRANCH  25  29
ENDBRANCH  24  25
ENDBRANCH  23  24
ENDBRANCH  22  23
ENDBRANCH   1  22
TORSDOF 10
ENDMDL
MODEL 6
REMARK VINA RESULT:      -6.9      3.916     11.573
REMARK  Name = 
REMARK  14 active torsions:
REMARK  status: ('A' for Active; 'I' for Inactive)
REMARK    1  A    between atoms: C_1  and  C_2
REMARK    2  A    between atoms: C_2  and  C_3
REMARK    3  A    between atoms: C_2  and  N_4
REMARK    4  A    between atoms: N_4  and  C_5
REMARK    5  A    between atoms: N_4  and  C_29
REMARK    6  A    between atoms: C_5  and  C_6
REMARK    7  A    between atoms: C_6  and  O_7
REMARK    8  A    between atoms: O_7  and  C_8
REMARK    9  A    between atoms: C_11  and  N_12
REMARK   10  A    between atoms: C_15  and  O_16
REMARK   11  A    between atoms: O_16  and  C_17
REMARK   12  A    between atoms: C_17  and  C_18
REMARK   13  A    between atoms: C_29  and  C_30
REMARK   14  A    between atoms: C_29  and  C_31
REMARK                            x       y       z     vdW  Elec       q    Type
REMARK                         _______ _______ _______ _____ _____    ______ ____
ROOT
ATOM      1  C   UNL     1      -1.891  12.504  20.039  0.00  0.00    +0.000 A 
ATOM      2  C   UNL     1      -0.673  12.522  20.723  0.00  0.00    +0.000 A 
ATOM      3  C   UNL     1       0.287  11.529  20.489  0.00  0.00    +0.000 A 
ATOM      4  C   UNL     1       0.009  10.477  19.610  0.00  0.00    +0.000 A 
ATOM      5  C   UNL     1      -1.218  10.454  18.940  0.00  0.00    +0.000 A 
ATOM      6  C   UNL     1      -2.161  11.461  19.151  0.00  0.00    +0.000 A 
ENDROOT
BRANCH   4   7
ATOM      7  N   UNL     1       0.955   9.439  19.387  0.00  0.00    +0.000 N 
ATOM      8  C   UNL     1       1.625   9.354  18.175  0.00  0.00    +0.000 A 
ATOM      9  C   UNL     1       2.453   8.342  17.898  0.00  0.00    +0.000 A 
ATOM     10  C   UNL     1       2.736   7.340  18.904  0.00  0.00    +0.000 A 
ATOM     11  C   UNL     1       2.105   7.384  20.082  0.00  0.00    +0.000 A 
ATOM     12  C   UNL     1       1.135   8.469  20.395  0.00  0.00    +0.000 A 
ATOM     13  O   UNL     1       0.598   8.460  21.494  0.00  0.00    +0.000 OA
BRANCH  10  14
ATOM     14  O   UNL     1       3.641   6.332  18.651  0.00  0.00    +0.000 OA
BRANCH  14  15
ATOM     15  C   UNL     1       3.393   5.511  17.512  0.00  0.00    +0.000 C 
BRANCH  15  16
ATOM     16  C   UNL     1       2.878   4.172  17.955  0.00  0.00    +0.000 A 
ATOM     17  C   UNL     1       3.738   3.075  18.091  0.00  0.00    +0.000 A 
ATOM     18  C   UNL     1       3.244   1.843  18.519  0.00  0.00    +0.000 A 
ATOM     19  C   UNL     1       1.886   1.697  18.806  0.00  0.00    +0.000 A 
ATOM     20  C   UNL     1       1.021   2.780  18.665  0.00  0.00    +0.000 A 
ATOM     21  C   UNL     1       1.513   4.011  18.236  0.00  0.00    +0.000 A 
ENDBRANCH  15  16
ENDBRANCH  14  15
ENDBRANCH  10  14
ENDBRANCH   4   7
BRANCH   1  22
ATOM     22  O   UNL     1      -2.746  13.544  20.312  0.00  0.00    +0.000 OA
BRANCH  22  23
ATOM     23  C   UNL     1      -2.866  13.861  21.705  0.00  0.00    +0.000 C 
BRANCH  23  24
ATOM     24  C   UNL     1      -4.019  13.061  22.344  0.00  0.00    +0.000 C 
BRANCH  24  25
ATOM     25  N   UNL     1      -4.659  13.681  23.551  0.00  0.00    +0.000 NA
BRANCH  25  27
ATOM     26  C   UNL     1      -6.544  13.824  21.865  0.00  0.00    +0.000 C 
ATOM     27  C   UNL     1      -6.142  13.814  23.361  0.00  0.00    +0.000 C 
ATOM     28  C   UNL     1      -7.003  12.716  24.005  0.00  0.00    +0.000 C 
ENDBRANCH  25  27
BRANCH  25  29
ATOM     29  C   UNL     1      -3.919  14.917  23.977  0.00  0.00    +0.000 C 
ATOM     30  C   UNL     1      -4.779  16.145  24.322  0.00  0.00    +0.000 C 
ATOM     31  C   UNL     1      -3.049  14.685  25.237  0.00  0.00    +0.000 C 
ENDBRANCH  25  29
ENDBRANCH  24  25
ENDBRANCH  23  24
ENDBRANCH  22  23
ENDBRANCH   1  22
TORSDOF 10
ENDMDL
MODEL 7
REMARK VINA RESULT:      -6.9      3.966      5.829
REMARK  Name = 
REMARK  14 active torsions:
REMARK  status: ('A' for Active; 'I' for Inactive)
REMARK    1  A    between atoms: C_1  and  C_2
REMARK    2  A    between atoms: C_2  and  C_3
REMARK    3  A    between atoms: C_2  and  N_4
REMARK    4  A    between atoms: N_4  and  C_5
REMARK    5  A    between atoms: N_4  and  C_29
REMARK    6  A    between atoms: C_5  and  C_6
REMARK    7  A    between atoms: C_6  and  O_7
REMARK    8  A    between atoms: O_7  and  C_8
REMARK    9  A    between atoms: C_11  and  N_12
REMARK   10  A    between atoms: C_15  and  O_16
REMARK   11  A    between atoms: O_16  and  C_17
REMARK   12  A    between atoms: C_17  and  C_18
REMARK   13  A    between atoms: C_29  and  C_30
REMARK   14  A    between atoms: C_29  and  C_31
REMARK                            x       y       z     vdW  Elec       q    Type
REMARK                         _______ _______ _______ _____ _____    ______ ____
ROOT
ATOM      1  C   UNL     1       2.134   8.179  18.911  0.00  0.00    +0.000 A 
ATOM      2  C   UNL     1       1.683   9.278  18.177  0.00  0.00    +0.000 A 
ATOM      3  C   UNL     1       0.823  10.216  18.760  0.00  0.00    +0.000 A 
ATOM      4  C   UNL     1       0.359  10.027  20.066  0.00  0.00    +0.000 A 
ATOM      5  C   UNL     1       0.800   8.917  20.792  0.00  0.00    +0.000 A 
ATOM      6  C   UNL     1       1.683   8.000  20.220  0.00  0.00    +0.000 A 
ENDROOT
BRANCH   4   7
ATOM      7  N   UNL     1      -0.545  10.948  20.663  0.00  0.00    +0.000 N 
ATOM      8  C   UNL     1      -1.421  11.679  19.873  0.00  0.00    +0.000 A 
ATOM      9  C   UNL     1      -2.221  12.616  20.391  0.00  0.00    +0.000 A 
ATOM     10  C   UNL     1      -2.250  12.836  21.821  0.00  0.00    +0.000 A 
ATOM     11  C   UNL     1      -1.416  12.157  22.615  0.00  0.00    +0.000 A 
ATOM     12  C   UNL     1      -0.475  11.146  22.058  0.00  0.00    +0.000 A 
ATOM     13  O   UNL     1       0.255  10.551  22.838  0.00  0.00    +0.000 OA
BRANCH  10  14
ATOM     14  O   UNL     1      -3.121  13.752  22.369  0.00  0.00    +0.000 OA
BRANCH  14  15
ATOM     15  C   UNL     1      -3.857  13.338  23.518  0.00  0.00    +0.000 C 
BRANCH  15  16
ATOM     16  C   UNL     1      -5.273  13.025  23.127  0.00  0.00    +0.000 A 
ATOM     17  C   UNL     1      -5.675  13.050  21.786  0.00  0.00    +0.000 A 
ATOM     18  C   UNL     1      -6.991  12.742  21.442  0.00  0.00    +0.000 A 
ATOM     19  C   UNL     1      -7.915  12.414  22.435  0.00  0.00    +0.000 A 
ATOM     20  C   UNL     1      -7.526  12.397  23.773  0.00  0.00    +0.000 A 
ATOM     21  C   UNL     1      -6.212  12.705  24.119  0.00  0.00    +0.000 A 
ENDBRANCH  15  16
ENDBRANCH  14  15
ENDBRANCH  10  14
ENDBRANCH   4   7
BRANCH   1  22
ATOM     22  O   UNL     1       3.006   7.340  18.261  0.00  0.00    +0.000 OA
BRANCH  22  23
ATOM     23  C   UNL     1       2.631   5.956  18.293  0.00  0.00    +0.000 C 
BRANCH  23  24
ATOM     24  C   UNL     1       3.696   5.125  19.037  0.00  0.00    +0.000 C 
BRANCH  24  25
ATOM     25  N   UNL     1       3.298   3.727  19.406  0.00  0.00    +0.000 NA
BRANCH  25  27
ATOM     26  C   UNL     1       4.216   3.333  17.078  0.00  0.00    +0.000 C 
ATOM     27  C   UNL     1       3.256   2.844  18.192  0.00  0.00    +0.000 C 
ATOM     28  C   UNL     1       3.619   1.369  18.421  0.00  0.00    +0.000 C 
ENDBRANCH  25  27
BRANCH  25  29
ATOM     29  C   UNL     1       2.077   3.728  20.282  0.00  0.00    +0.000 C 
ATOM     30  C   UNL     1       0.797   3.132  19.672  0.00  0.00    +0.000 C 
ATOM     31  C   UNL     1       2.287   2.936  21.596  0.00  0.00    +0.000 C 
ENDBRANCH  25  29
ENDBRANCH  24  25
ENDBRANCH  23  24
ENDBRANCH  22  23
ENDBRANCH   1  22
TORSDOF 10
ENDMDL
MODEL 8
REMARK VINA RESULT:      -6.9      3.147     10.632
REMARK  Name = 
REMARK  14 active torsions:
REMARK  status: ('A' for Active; 'I' for Inactive)
REMARK    1  A    between atoms: C_1  and  C_2
REMARK    2  A    between atoms: C_2  and  C_3
REMARK    3  A    between atoms: C_2  and  N_4
REMARK    4  A    between atoms: N_4  and  C_5
REMARK    5  A    between atoms: N_4  and  C_29
REMARK    6  A    between atoms: C_5  and  C_6
REMARK    7  A    between atoms: C_6  and  O_7
REMARK    8  A    between atoms: O_7  and  C_8
REMARK    9  A    between atoms: C_11  and  N_12
REMARK   10  A    between atoms: C_15  and  O_16
REMARK   11  A    between atoms: O_16  and  C_17
REMARK   12  A    between atoms: C_17  and  C_18
REMARK   13  A    between atoms: C_29  and  C_30
REMARK   14  A    between atoms: C_29  and  C_31
REMARK                            x       y       z     vdW  Elec       q    Type
REMARK                         _______ _______ _______ _____ _____    ______ ____
ROOT
ATOM      1  C   UNL     1      -0.937  12.610  19.681  0.00  0.00    +0.000 A 
ATOM      2  C   UNL     1       0.263  12.454  20.379  0.00  0.00    +0.000 A 
ATOM      3  C   UNL     1       1.033  11.296  20.217  0.00  0.00    +0.000 A 
ATOM      4  C   UNL     1       0.576  10.257  19.398  0.00  0.00    +0.000 A 
ATOM      5  C   UNL     1      -0.634  10.411  18.714  0.00  0.00    +0.000 A 
ATOM      6  C   UNL     1      -1.385  11.579  18.853  0.00  0.00    +0.000 A 
ENDROOT
BRANCH   4   7
ATOM      7  N   UNL     1       1.324   9.058  19.249  0.00  0.00    +0.000 N 
ATOM      8  C   UNL     1       1.854   8.714  18.014  0.00  0.00    +0.000 A 
ATOM      9  C   UNL     1       2.486   7.552  17.817  0.00  0.00    +0.000 A 
ATOM     10  C   UNL     1       2.706   6.650  18.926  0.00  0.00    +0.000 A 
ATOM     11  C   UNL     1       2.205   6.943  20.131  0.00  0.00    +0.000 A 
ATOM     12  C   UNL     1       1.450   8.204  20.364  0.00  0.00    +0.000 A 
ATOM     13  O   UNL     1       1.025   8.419  21.492  0.00  0.00    +0.000 OA
BRANCH  10  14
ATOM     14  O   UNL     1       3.416   5.482  18.747  0.00  0.00    +0.000 OA
BRANCH  14  15
ATOM     15  C   UNL     1       4.258   5.408  17.598  0.00  0.00    +0.000 C 
BRANCH  15  16
ATOM     16  C   UNL     1       5.631   5.913  17.943  0.00  0.00    +0.000 A 
ATOM     17  C   UNL     1       6.375   5.334  18.979  0.00  0.00    +0.000 A 
ATOM     18  C   UNL     1       7.653   5.807  19.274  0.00  0.00    +0.000 A 
ATOM     19  C   UNL     1       8.193   6.864  18.542  0.00  0.00    +0.000 A 
ATOM     20  C   UNL     1       7.456   7.452  17.515  0.00  0.00    +0.000 A 
ATOM     21  C   UNL     1       6.179   6.982  17.220  0.00  0.00    +0.000 A 
ENDBRANCH  15  16
ENDBRANCH  14  15
ENDBRANCH  10  14
ENDBRANCH   4   7
BRANCH   1  22
ATOM     22  O   UNL     1      -1.596  13.798  19.881  0.00  0.00    +0.000 OA
BRANCH  22  23
ATOM     23  C   UNL     1      -2.000  14.030  21.237  0.00  0.00    +0.000 C 
BRANCH  23  24
ATOM     24  C   UNL     1      -3.219  13.154  21.594  0.00  0.00    +0.000 C 
BRANCH  24  25
ATOM     25  N   UNL     1      -4.520  13.879  21.770  0.00  0.00    +0.000 NA
BRANCH  25  27
ATOM     26  C   UNL     1      -6.262  12.933  23.348  0.00  0.00    +0.000 C 
ATOM     27  C   UNL     1      -4.988  13.801  23.195  0.00  0.00    +0.000 C 
ATOM     28  C   UNL     1      -3.981  13.223  24.202  0.00  0.00    +0.000 C 
ENDBRANCH  25  27
BRANCH  25  29
ATOM     29  C   UNL     1      -5.508  13.476  20.712  0.00  0.00    +0.000 C 
ATOM     30  C   UNL     1      -6.176  14.620  19.930  0.00  0.00    +0.000 C 
ATOM     31  C   UNL     1      -4.876  12.576  19.621  0.00  0.00    +0.000 C 
ENDBRANCH  25  29
ENDBRANCH  24  25
ENDBRANCH  23  24
ENDBRANCH  22  23
ENDBRANCH   1  22
TORSDOF 10
ENDMDL
MODEL 9
REMARK VINA RESULT:      -6.9      3.678      5.207
REMARK  Name = 
REMARK  14 active torsions:
REMARK  status: ('A' for Active; 'I' for Inactive)
REMARK    1  A    between atoms: C_1  and  C_2
REMARK    2  A    between atoms: C_2  and  C_3
REMARK    3  A    between atoms: C_2  and  N_4
REMARK    4  A    between atoms: N_4  and  C_5
REMARK    5  A    between atoms: N_4  and  C_29
REMARK    6  A    between atoms: C_5  and  C_6
REMARK    7  A    between atoms: C_6  and  O_7
REMARK    8  A    between atoms: O_7  and  C_8
REMARK    9  A    between atoms: C_11  and  N_12
REMARK   10  A    between atoms: C_15  and  O_16
REMARK   11  A    between atoms: O_16  and  C_17
REMARK   12  A    between atoms: C_17  and  C_18
REMARK   13  A    between atoms: C_29  and  C_30
REMARK   14  A    between atoms: C_29  and  C_31
REMARK                            x       y       z     vdW  Elec       q    Type
REMARK                         _______ _______ _______ _____ _____    ______ ____
ROOT
ATOM      1  C   UNL     1       2.427   7.316  18.733  0.00  0.00    +0.000 A 
ATOM      2  C   UNL     1       1.928   8.488  18.160  0.00  0.00    +0.000 A 
ATOM      3  C   UNL     1       1.186   9.393  18.927  0.00  0.00    +0.000 A 
ATOM      4  C   UNL     1       0.885   9.101  20.262  0.00  0.00    +0.000 A 
ATOM      5  C   UNL     1       1.371   7.918  20.828  0.00  0.00    +0.000 A 
ATOM      6  C   UNL     1       2.139   7.032  20.070  0.00  0.00    +0.000 A 
ENDROOT
BRANCH   4   7
ATOM      7  N   UNL     1       0.100   9.988  21.048  0.00  0.00    +0.000 N 
ATOM      8  C   UNL     1      -0.030   9.784  22.414  0.00  0.00    +0.000 A 
ATOM      9  C   UNL     1      -0.830  10.544  23.168  0.00  0.00    +0.000 A 
ATOM     10  C   UNL     1      -1.527  11.668  22.579  0.00  0.00    +0.000 A 
ATOM     11  C   UNL     1      -1.433  11.894  21.265  0.00  0.00    +0.000 A 
ATOM     12  C   UNL     1      -0.593  11.028  20.393  0.00  0.00    +0.000 A 
ATOM     13  O   UNL     1      -0.540  11.293  19.200  0.00  0.00    +0.000 OA
BRANCH  10  14
ATOM     14  O   UNL     1      -2.300  12.498  23.362  0.00  0.00    +0.000 OA
BRANCH  14  15
ATOM     15  C   UNL     1      -3.073  13.488  22.688  0.00  0.00    +0.000 C 
BRANCH  15  16
ATOM     16  C   UNL     1      -4.529  13.127  22.755  0.00  0.00    +0.000 A 
ATOM     17  C   UNL     1      -5.215  13.111  23.976  0.00  0.00    +0.000 A 
ATOM     18  C   UNL     1      -6.570  12.787  24.016  0.00  0.00    +0.000 A 
ATOM     19  C   UNL     1      -7.248  12.470  22.839  0.00  0.00    +0.000 A 
ATOM     20  C   UNL     1      -6.572  12.474  21.620  0.00  0.00    +0.000 A 
ATOM     21  C   UNL     1      -5.217  12.796  21.578  0.00  0.00    +0.000 A 
ENDBRANCH  15  16
ENDBRANCH  14  15
ENDBRANCH  10  14
ENDBRANCH   4   7
BRANCH   1  22
ATOM     22  O   UNL     1       3.176   6.515  17.906  0.00  0.00    +0.000 OA
BRANCH  22  23
ATOM     23  C   UNL     1       2.583   5.241  17.620  0.00  0.00    +0.000 C 
BRANCH  23  24
ATOM     24  C   UNL     1       3.663   4.140  17.575  0.00  0.00    +0.000 C 
BRANCH  24  25
ATOM     25  N   UNL     1       4.470   3.961  18.827  0.00  0.00    +0.000 NA
BRANCH  25  27
ATOM     26  C   UNL     1       6.218   4.509  17.078  0.00  0.00    +0.000 C 
ATOM     27  C   UNL     1       5.918   4.265  18.578  0.00  0.00    +0.000 C 
ATOM     28  C   UNL     1       6.482   5.494  19.308  0.00  0.00    +0.000 C 
ENDBRANCH  25  27
BRANCH  25  29
ATOM     29  C   UNL     1       4.158   2.645  19.483  0.00  0.00    +0.000 C 
ATOM     30  C   UNL     1       3.163   2.685  20.656  0.00  0.00    +0.000 C 
ATOM     31  C   UNL     1       3.553   1.617  18.495  0.00  0.00    +0.000 C 
ENDBRANCH  25  29
ENDBRANCH  24  25
ENDBRANCH  23  24
ENDBRANCH  22  23
ENDBRANCH   1  22
TORSDOF 10
ENDMDL
