MODEL 1
REMARK VINA RESULT:      -7.0      0.000      0.000
REMARK  Name = 
REMARK  4 active torsions:
REMARK  status: ('A' for Active; 'I' for Inactive)
REMARK    1  A    between atoms: C_1  and  C_2
REMARK    2  A    between atoms: N_7  and  C_8
REMARK    3  A    between atoms: C_8  and  C_9
REMARK    4  A    between atoms: C_9  and  C_11
REMARK                            x       y       z     vdW  Elec       q    Type
REMARK                         _______ _______ _______ _____ _____    ______ ____
ROOT
ATOM      1  C   UNL     1       4.257   5.754  17.079  0.00  0.00    +0.000 C 
ENDROOT
BRANCH   1   8
ATOM      2  C   UNL     1       5.529   4.089  19.184  0.00  0.00    +0.000 C 
ATOM      3  C   UNL     1       6.197   5.306  18.603  0.00  0.00    +0.000 A 
ATOM      4  C   UNL     1       7.450   5.690  19.114  0.00  0.00    +0.000 A 
ATOM      5  C   UNL     1       8.103   6.810  18.624  0.00  0.00    +0.000 A 
ATOM      6  C   UNL     1       7.508   7.538  17.611  0.00  0.00    +0.000 A 
ATOM      7  C   UNL     1       6.272   7.140  17.116  0.00  0.00    +0.000 A 
ATOM      8  N   UNL     1       5.625   6.046  17.604  0.00  0.00    +0.000 N 
ENDBRANCH   1   8
BRANCH   1   9
ATOM      9  C   UNL     1       3.122   6.189  17.974  0.00  0.00    +0.000 C 
ATOM     10  O   UNL     1       2.850   7.375  18.149  0.00  0.00    +0.000 OA
BRANCH   9  11
ATOM     11  C   UNL     1       2.332   5.130  18.681  0.00  0.00    +0.000 A 
ATOM     12  C   UNL     1       2.020   5.212  20.047  0.00  0.00    +0.000 A 
ATOM     13  C   UNL     1       1.255   4.211  20.654  0.00  0.00    +0.000 A 
ATOM     14  C   UNL     1       0.800   3.125  19.908  0.00  0.00    +0.000 A 
ATOM     15  C   UNL     1       1.111   3.032  18.553  0.00  0.00    +0.000 A 
ATOM     16  C   UNL     1       1.874   4.029  17.941  0.00  0.00    +0.000 A 
ENDBRANCH   9  11
ENDBRANCH   1   9
TORSDOF 3
ENDMDL
MODEL 2
REMARK VINA RESULT:      -6.8      2.229      5.499
REMARK  Name = 
REMARK  4 active torsions:
REMARK  status: ('A' for Active; 'I' for Inactive)
REMARK    1  A    between atoms: C_1  and  C_2
REMARK    2  A    between atoms: N_7  and  C_8
REMARK    3  A    between atoms: C_8  and  C_9
REMARK    4  A    between atoms: C_9  and  C_11
REMARK                            x       y       z     vdW  Elec       q    Type
REMARK                         _______ _______ _______ _____ _____    ______ ____
ROOT
ATOM      1  C   UNL     1       4.604   5.252  19.657  0.00  0.00    +0.000 C 
ENDROOT
BRANCH   1   8
ATOM      2  C   UNL     1       2.115   5.984  18.211  0.00  0.00    +0.000 C 
ATOM      3  C   UNL     1       2.531   4.555  18.431  0.00  0.00    +0.000 A 
ATOM      4  C   UNL     1       1.682   3.532  17.972  0.00  0.00    +0.000 A 
ATOM      5  C   UNL     1       2.011   2.199  18.159  0.00  0.00    +0.000 A 
ATOM      6  C   UNL     1       3.199   1.889  18.793  0.00  0.00    +0.000 A 
ATOM      7  C   UNL     1       4.027   2.913  19.235  0.00  0.00    +0.000 A 
ATOM      8  N   UNL     1       3.700   4.223  19.061  0.00  0.00    +0.000 N 
ENDBRANCH   1   8
BRANCH   1   9
ATOM      9  C   UNL     1       5.987   5.315  19.055  0.00  0.00    +0.000 C 
ATOM     10  O   UNL     1       6.995   5.421  19.751  0.00  0.00    +0.000 OA
BRANCH   9  11
ATOM     11  C   UNL     1       6.112   5.271  17.562  0.00  0.00    +0.000 A 
ATOM     12  C   UNL     1       6.949   4.356  16.906  0.00  0.00    +0.000 A 
ATOM     13  C   UNL     1       7.009   4.336  15.509  0.00  0.00    +0.000 A 
ATOM     14  C   UNL     1       6.241   5.227  14.760  0.00  0.00    +0.000 A 
ATOM     15  C   UNL     1       5.413   6.143  15.404  0.00  0.00    +0.000 A 
ATOM     16  C   UNL     1       5.348   6.168  16.799  0.00  0.00    +0.000 A 
ENDBRANCH   9  11
ENDBRANCH   1   9
TORSDOF 3
ENDMDL
MODEL 3
REMARK VINA RESULT:      -6.7      1.378      2.128
REMARK  Name = 
REMARK  4 active torsions:
REMARK  status: ('A' for Active; 'I' for Inactive)
REMARK    1  A    between atoms: C_1  and  C_2
REMARK    2  A    between atoms: N_7  and  C_8
REMARK    3  A    between atoms: C_8  and  C_9
REMARK    4  A    between atoms: C_9  and  C_11
REMARK                            x       y       z     vdW  Elec       q    Type
REMARK                         _______ _______ _______ _____ _____    ______ ____
ROOT
ATOM      1  C   UNL     1       4.569   4.361  17.605  0.00  0.00    +0.000 C 
ENDROOT
BRANCH   1   8
ATOM      2  C   UNL     1       5.300   6.535  15.719  0.00  0.00    +0.000 C 
ATOM      3  C   UNL     1       6.071   6.270  16.983  0.00  0.00    +0.000 A 
ATOM      4  C   UNL     1       7.207   7.055  17.251  0.00  0.00    +0.000 A 
ATOM      5  C   UNL     1       7.961   6.844  18.396  0.00  0.00    +0.000 A 
ATOM      6  C   UNL     1       7.569   5.856  19.279  0.00  0.00    +0.000 A 
ATOM      7  C   UNL     1       6.442   5.094  18.999  0.00  0.00    +0.000 A 
ATOM      8  N   UNL     1       5.706   5.294  17.871  0.00  0.00    +0.000 N 
ENDBRANCH   1   8
BRANCH   1   9
ATOM      9  C   UNL     1       3.244   4.786  18.189  0.00  0.00    +0.000 C 
ATOM     10  O   UNL     1       2.635   5.769  17.771  0.00  0.00    +0.000 OA
BRANCH   9  11
ATOM     11  C   UNL     1       2.683   3.989  19.327  0.00  0.00    +0.000 A 
ATOM     12  C   UNL     1       3.499   3.263  20.209  0.00  0.00    +0.000 A 
ATOM     13  C   UNL     1       2.929   2.557  21.273  0.00  0.00    +0.000 A 
ATOM     14  C   UNL     1       1.547   2.566  21.462  0.00  0.00    +0.000 A 
ATOM     15  C   UNL     1       0.730   3.278  20.587  0.00  0.00    +0.000 A 
ATOM     16  C   UNL     1       1.293   3.986  19.523  0.00  0.00    +0.000 A 
ENDBRANCH   9  11
ENDBRANCH   1   9
TORSDOF 3
ENDMDL
MODEL 4
REMARK VINA RESULT:      -6.7      1.595      2.726
REMARK  Name = 
REMARK  4 active torsions:
REMARK  status: ('A' for Active; 'I' for Inactive)
REMARK    1  A    between atoms: C_1  and  C_2
REMARK    2  A    between atoms: N_7  and  C_8
REMARK    3  A    between atoms: C_8  and  C_9
REMARK    4  A    between atoms: C_9  and  C_11
REMARK                            x       y       z     vdW  Elec       q    Type
REMARK                         _______ _______ _______ _____ _____    ______ ____
ROOT
ATOM      1  C   UNL     1       5.156   5.225  18.575  0.00  0.00    +0.000 C 
ENDROOT
BRANCH   1   8
ATOM      2  C   UNL     1       7.322   6.974  17.543  0.00  0.00    +0.000 C 
ATOM      3  C   UNL     1       6.759   5.829  16.745  0.00  0.00    +0.000 A 
ATOM      4  C   UNL     1       7.250   5.615  15.444  0.00  0.00    +0.000 A 
ATOM      5  C   UNL     1       6.757   4.582  14.662  0.00  0.00    +0.000 A 
ATOM      6  C   UNL     1       5.782   3.755  15.186  0.00  0.00    +0.000 A 
ATOM      7  C   UNL     1       5.313   3.980  16.474  0.00  0.00    +0.000 A 
ATOM      8  N   UNL     1       5.790   5.000  17.241  0.00  0.00    +0.000 N 
ENDBRANCH   1   8
BRANCH   1   9
ATOM      9  C   UNL     1       3.723   5.698  18.530  0.00  0.00    +0.000 C 
ATOM     10  O   UNL     1       3.423   6.830  18.158  0.00  0.00    +0.000 OA
BRANCH   9  11
ATOM     11  C   UNL     1       2.651   4.752  18.981  0.00  0.00    +0.000 A 
ATOM     12  C   UNL     1       2.012   3.867  18.099  0.00  0.00    +0.000 A 
ATOM     13  C   UNL     1       1.038   2.983  18.574  0.00  0.00    +0.000 A 
ATOM     14  C   UNL     1       0.691   2.980  19.924  0.00  0.00    +0.000 A 
ATOM     15  C   UNL     1       1.315   3.860  20.805  0.00  0.00    +0.000 A 
ATOM     16  C   UNL     1       2.290   4.744  20.337  0.00  0.00    +0.000 A 
ENDBRANCH   9  11
ENDBRANCH   1   9
TORSDOF 3
ENDMDL
MODEL 5
REMARK VINA RESULT:      -6.7      1.538      2.398
REMARK  Name = 
REMARK  4 active torsions:
REMARK  status: ('A' for Active; 'I' for Inactive)
REMARK    1  A    between atoms: C_1  and  C_2
REMARK    2  A    between atoms: N_7  and  C_8
REMARK    3  A    between atoms: C_8  and  C_9
REMARK    4  A    between atoms: C_9  and  C_11
REMARK                            x       y       z     vdW  Elec       q    Type
REMARK                         _______ _______ _______ _____ _____    ______ ____
ROOT
ATOM      1  C   UNL     1       5.117   5.506  18.725  0.00  0.00    +0.000 C 
ENDROOT
BRANCH   1   8
ATOM      2  C   UNL     1       7.337   7.098  17.561  0.00  0.00    +0.000 C 
ATOM      3  C   UNL     1       6.757   5.895  16.870  0.00  0.00    +0.000 A 
ATOM      4  C   UNL     1       7.260   5.543  15.604  0.00  0.00    +0.000 A 
ATOM      5  C   UNL     1       6.752   4.451  14.917  0.00  0.00    +0.000 A 
ATOM      6  C   UNL     1       5.752   3.700  15.505  0.00  0.00    +0.000 A 
ATOM      7  C   UNL     1       5.272   4.060  16.758  0.00  0.00    +0.000 A 
ATOM      8  N   UNL     1       5.762   5.139  17.429  0.00  0.00    +0.000 N 
ENDBRANCH   1   8
BRANCH   1   9
ATOM      9  C   UNL     1       3.651   5.856  18.634  0.00  0.00    +0.000 C 
ATOM     10  O   UNL     1       3.267   6.929  18.173  0.00  0.00    +0.000 OA
BRANCH   9  11
ATOM     11  C   UNL     1       2.653   4.864  19.146  0.00  0.00    +0.000 A 
ATOM     12  C   UNL     1       2.378   4.714  20.515  0.00  0.00    +0.000 A 
ATOM     13  C   UNL     1       1.416   3.793  20.941  0.00  0.00    +0.000 A 
ATOM     14  C   UNL     1       0.728   3.015  20.011  0.00  0.00    +0.000 A 
ATOM     15  C   UNL     1       1.000   3.152  18.652  0.00  0.00    +0.000 A 
ATOM     16  C   UNL     1       1.959   4.071  18.220  0.00  0.00    +0.000 A 
ENDBRANCH   9  11
ENDBRANCH   1   9
TORSDOF 3
ENDMDL
MODEL 6
REMARK VINA RESULT:      -6.7      2.152      3.113
REMARK  Name = 
REMARK  4 active torsions:
REMARK  status: ('A' for Active; 'I' for Inactive)
REMARK    1  A    between atoms: C_1  and  C_2
REMARK    2  A    between atoms: N_7  and  C_8
REMARK    3  A    between atoms: C_8  and  C_9
REMARK    4  A    between atoms: C_9  and  C_11
REMARK                            x       y       z     vdW  Elec       q    Type
REMARK                         _______ _______ _______ _____ _____    ______ ____
ROOT
ATOM      1  C   UNL     1       5.251   4.849  19.328  0.00  0.00    +0.000 C 
ENDROOT
BRANCH   1   8
ATOM      2  C   UNL     1       3.641   6.711  17.667  0.00  0.00    +0.000 C 
ATOM      3  C   UNL     1       4.813   5.946  17.116  0.00  0.00    +0.000 A 
ATOM      4  C   UNL     1       5.123   6.086  15.751  0.00  0.00    +0.000 A 
ATOM      5  C   UNL     1       6.184   5.393  15.190  0.00  0.00    +0.000 A 
ATOM      6  C   UNL     1       6.945   4.570  15.999  0.00  0.00    +0.000 A 
ATOM      7  C   UNL     1       6.626   4.448  17.345  0.00  0.00    +0.000 A 
ATOM      8  N   UNL     1       5.578   5.120  17.896  0.00  0.00    +0.000 N 
ENDBRANCH   1   8
BRANCH   1   9
ATOM      9  C   UNL     1       4.614   3.507  19.596  0.00  0.00    +0.000 C 
ATOM     10  O   UNL     1       5.285   2.503  19.826  0.00  0.00    +0.000 OA
BRANCH   9  11
ATOM     11  C   UNL     1       3.119   3.412  19.553  0.00  0.00    +0.000 A 
ATOM     12  C   UNL     1       2.448   2.516  18.706  0.00  0.00    +0.000 A 
ATOM     13  C   UNL     1       1.052   2.445  18.723  0.00  0.00    +0.000 A 
ATOM     14  C   UNL     1       0.317   3.266  19.577  0.00  0.00    +0.000 A 
ATOM     15  C   UNL     1       0.975   4.163  20.416  0.00  0.00    +0.000 A 
ATOM     16  C   UNL     1       2.369   4.238  20.404  0.00  0.00    +0.000 A 
ENDBRANCH   9  11
ENDBRANCH   1   9
TORSDOF 3
ENDMDL
MODEL 7
REMARK VINA RESULT:      -6.7      2.258      5.460
REMARK  Name = 
REMARK  4 active torsions:
REMARK  status: ('A' for Active; 'I' for Inactive)
REMARK    1  A    between atoms: C_1  and  C_2
REMARK    2  A    between atoms: N_7  and  C_8
REMARK    3  A    between atoms: C_8  and  C_9
REMARK    4  A    between atoms: C_9  and  C_11
REMARK                            x       y       z     vdW  Elec       q    Type
REMARK                         _______ _______ _______ _____ _____    ______ ____
ROOT
ATOM      1  C   UNL     1       4.691   5.159  19.632  0.00  0.00    +0.000 C 
ENDROOT
BRANCH   1   8
ATOM      2  C   UNL     1       2.174   5.989  18.292  0.00  0.00    +0.000 C 
ATOM      3  C   UNL     1       2.564   4.545  18.454  0.00  0.00    +0.000 A 
ATOM      4  C   UNL     1       1.677   3.556  17.992  0.00  0.00    +0.000 A 
ATOM      5  C   UNL     1       1.982   2.210  18.129  0.00  0.00    +0.000 A 
ATOM      6  C   UNL     1       3.182   1.855  18.713  0.00  0.00    +0.000 A 
ATOM      7  C   UNL     1       4.047   2.846  19.159  0.00  0.00    +0.000 A 
ATOM      8  N   UNL     1       3.745   4.168  19.035  0.00  0.00    +0.000 N 
ENDBRANCH   1   8
BRANCH   1   9
ATOM      9  C   UNL     1       6.021   5.278  18.928  0.00  0.00    +0.000 C 
ATOM     10  O   UNL     1       7.076   5.401  19.547  0.00  0.00    +0.000 OA
BRANCH   9  11
ATOM     11  C   UNL     1       6.032   5.269  17.430  0.00  0.00    +0.000 A 
ATOM     12  C   UNL     1       5.318   6.207  16.668  0.00  0.00    +0.000 A 
ATOM     13  C   UNL     1       5.384   6.174  15.272  0.00  0.00    +0.000 A 
ATOM     14  C   UNL     1       6.155   5.208  14.627  0.00  0.00    +0.000 A 
ATOM     15  C   UNL     1       6.860   4.269  15.376  0.00  0.00    +0.000 A 
ATOM     16  C   UNL     1       6.800   4.297  16.771  0.00  0.00    +0.000 A 
ENDBRANCH   9  11
ENDBRANCH   1   9
TORSDOF 3
ENDMDL
MODEL 8
REMARK VINA RESULT:      -6.7      2.364      5.717
REMARK  Name = 
REMARK  4 active torsions:
REMARK  status: ('A' for Active; 'I' for Inactive)
REMARK    1  A    between atoms: C_1  and  C_2
REMARK    2  A    between atoms: N_7  and  C_8
REMARK    3  A    between atoms: C_8  and  C_9
REMARK    4  A    between atoms: C_9  and  C_11
REMARK                            x       y       z     vdW  Elec       q    Type
REMARK                         _______ _______ _______ _____ _____    ______ ____
ROOT
ATOM      1  C   UNL     1       4.303   2.767  18.556  0.00  0.00    +0.000 C 
ENDROOT
BRANCH   1   8
ATOM      2  C   UNL     1       1.743   3.992  17.682  0.00  0.00    +0.000 C 
ATOM      3  C   UNL     1       1.966   3.503  19.087  0.00  0.00    +0.000 A 
ATOM      4  C   UNL     1       0.935   3.678  20.028  0.00  0.00    +0.000 A 
ATOM      5  C   UNL     1       1.094   3.257  21.340  0.00  0.00    +0.000 A 
ATOM      6  C   UNL     1       2.279   2.647  21.705  0.00  0.00    +0.000 A 
ATOM      7  C   UNL     1       3.283   2.479  20.760  0.00  0.00    +0.000 A 
ATOM      8  N   UNL     1       3.132   2.901  19.475  0.00  0.00    +0.000 N 
ENDBRANCH   1   8
BRANCH   1   9
ATOM      9  C   UNL     1       5.254   3.939  18.557  0.00  0.00    +0.000 C 
ATOM     10  O   UNL     1       5.993   4.176  19.511  0.00  0.00    +0.000 OA
BRANCH   9  11
ATOM     11  C   UNL     1       5.266   4.843  17.362  0.00  0.00    +0.000 A 
ATOM     12  C   UNL     1       5.688   4.408  16.096  0.00  0.00    +0.000 A 
ATOM     13  C   UNL     1       5.653   5.282  15.005  0.00  0.00    +0.000 A 
ATOM     14  C   UNL     1       5.204   6.591  15.169  0.00  0.00    +0.000 A 
ATOM     15  C   UNL     1       4.790   7.033  16.423  0.00  0.00    +0.000 A 
ATOM     16  C   UNL     1       4.821   6.165  17.516  0.00  0.00    +0.000 A 
ENDBRANCH   9  11
ENDBRANCH   1   9
TORSDOF 3
ENDMDL
MODEL 9
REMARK VINA RESULT:      -6.7      1.938      2.471
REMARK  Name = 
REMARK  4 active torsions:
REMARK  status: ('A' for Active; 'I' for Inactive)
REMARK    1  A    between atoms: C_1  and  C_2
REMARK    2  A    between atoms: N_7  and  C_8
REMARK    3  A    between atoms: C_8  and  C_9
REMARK    4  A    between atoms: C_9  and  C_11
REMARK                            x       y       z     vdW  Elec       q    Type
REMARK                         _______ _______ _______ _____ _____    ______ ____
ROOT
ATOM      1  C   UNL     1       3.560   5.254  17.411  0.00  0.00    +0.000 C 
ENDROOT
BRANCH   1   8
ATOM      2  C   UNL     1       5.417   4.322  15.289  0.00  0.00    +0.000 C 
ATOM      3  C   UNL     1       5.893   4.727  16.657  0.00  0.00    +0.000 A 
ATOM      4  C   UNL     1       7.264   4.613  16.950  0.00  0.00    +0.000 A 
ATOM      5  C   UNL     1       7.753   4.961  18.199  0.00  0.00    +0.000 A 
ATOM      6  C   UNL     1       6.873   5.437  19.152  0.00  0.00    +0.000 A 
ATOM      7  C   UNL     1       5.523   5.546  18.842  0.00  0.00    +0.000 A 
ATOM      8  N   UNL     1       5.039   5.196  17.619  0.00  0.00    +0.000 N 
ENDBRANCH   1   8
BRANCH   1   9
ATOM      9  C   UNL     1       2.830   3.955  17.647  0.00  0.00    +0.000 C 
ATOM     10  O   UNL     1       2.477   3.229  16.720  0.00  0.00    +0.000 OA
BRANCH   9  11
ATOM     11  C   UNL     1       2.512   3.568  19.059  0.00  0.00    +0.000 A 
ATOM     12  C   UNL     1       1.295   3.903  19.674  0.00  0.00    +0.000 A 
ATOM     13  C   UNL     1       1.035   3.493  20.986  0.00  0.00    +0.000 A 
ATOM     14  C   UNL     1       1.983   2.755  21.692  0.00  0.00    +0.000 A 
ATOM     15  C   UNL     1       3.196   2.425  21.092  0.00  0.00    +0.000 A 
ATOM     16  C   UNL     1       3.461   2.830  19.782  0.00  0.00    +0.000 A 
ENDBRANCH   9  11
ENDBRANCH   1   9
TORSDOF 3
ENDMDL
