MODEL 1
REMARK VINA RESULT:      -8.5      0.000      0.000
REMARK  Name = 
REMARK  4 active torsions:
REMARK  status: ('A' for Active; 'I' for Inactive)
REMARK    1  A    between atoms: C_5  and  C_6
REMARK    2  A    between atoms: C_12  and  C_13
REMARK    3  A    between atoms: C_17  and  N_18
REMARK    4  A    between atoms: N_18  and  C_19
REMARK                            x       y       z     vdW  Elec       q    Type
REMARK                         _______ _______ _______ _____ _____    ______ ____
ROOT
ATOM      1  C   UNL     1       2.099   6.543  19.955  0.00  0.00    +0.000 A 
ATOM      2  C   UNL     1       1.479   5.721  20.908  0.00  0.00    +0.000 A 
ATOM      3  C   UNL     1       1.865   4.381  21.082  0.00  0.00    +0.000 A 
ATOM      4  C   UNL     1       2.909   3.907  20.281  0.00  0.00    +0.000 A 
ATOM      5  N   UNL     1       3.486   2.658  20.224  0.00  0.00    +0.000 N 
ATOM      6  C   UNL     1       4.493   2.645  19.295  0.00  0.00    +0.000 A 
ATOM      7  C   UNL     1       4.585   3.906  18.744  0.00  0.00    +0.000 A 
ATOM      8  C   UNL     1       3.560   4.699  19.346  0.00  0.00    +0.000 A 
ATOM      9  C   UNL     1       3.130   6.032  19.167  0.00  0.00    +0.000 A 
ATOM     10  H   UNL     1       3.198   1.867  20.783  0.00  0.00    +0.000 HD
ENDROOT
BRANCH   1  15
ATOM     11  N   UNL     1       1.439  10.632  17.794  0.00  0.00    +0.000 N 
ATOM     12  C   UNL     1       1.377   9.770  18.813  0.00  0.00    +0.000 A 
ATOM     13  N   UNL     1       0.895   9.934  20.020  0.00  0.00    +0.000 NA
ATOM     14  N   UNL     1       1.081   8.725  20.672  0.00  0.00    +0.000 NA
ATOM     15  C   UNL     1       1.664   7.928  19.810  0.00  0.00    +0.000 A 
ATOM     16  O   UNL     1       1.882   8.528  18.593  0.00  0.00    +0.000 OA
ATOM     17  H   UNL     1       0.925  11.499  17.872  0.00  0.00    +0.000 HD
ATOM     18  H   UNL     1       1.608  10.291  16.857  0.00  0.00    +0.000 HD
ENDBRANCH   1  15
BRANCH   7  19
ATOM     19  C   UNL     1       5.566   4.287  17.746  0.00  0.00    +0.000 A 
ATOM     20  C   UNL     1       6.839   4.712  18.096  0.00  0.00    +0.000 A 
ATOM     21  N   UNL     1       7.755   5.088  17.179  0.00  0.00    +0.000 NA
ATOM     22  C   UNL     1       7.321   5.014  15.887  0.00  0.00    +0.000 A 
ATOM     23  C   UNL     1       6.035   4.608  15.505  0.00  0.00    +0.000 A 
ATOM     24  N   UNL     1       5.154   4.228  16.444  0.00  0.00    +0.000 NA
BRANCH  23  25
ATOM     25  N   UNL     1       5.661   4.692  14.147  0.00  0.00    +0.000 N 
ATOM     26  H   UNL     1       5.870   5.588  13.730  0.00  0.00    +0.000 HD
BRANCH  25  27
ATOM     27  C   UNL     1       5.871   3.515  13.305  0.00  0.00    +0.000 C 
ATOM     28  C   UNL     1       4.711   3.254  12.328  0.00  0.00    +0.000 C 
ATOM     29  C   UNL     1       5.328   2.371  11.244  0.00  0.00    +0.000 C 
ATOM     30  C   UNL     1       6.822   2.683  11.233  0.00  0.00    +0.000 C 
ATOM     31  C   UNL     1       7.103   3.597  12.421  0.00  0.00    +0.000 C 
ENDBRANCH  25  27
ENDBRANCH  23  25
ENDBRANCH   7  19
TORSDOF 4
ENDMDL
MODEL 2
REMARK VINA RESULT:      -8.4      4.606      7.539
REMARK  Name = 
REMARK  4 active torsions:
REMARK  status: ('A' for Active; 'I' for Inactive)
REMARK    1  A    between atoms: C_5  and  C_6
REMARK    2  A    between atoms: C_12  and  C_13
REMARK    3  A    between atoms: C_17  and  N_18
REMARK    4  A    between atoms: N_18  and  C_19
REMARK                            x       y       z     vdW  Elec       q    Type
REMARK                         _______ _______ _______ _____ _____    ______ ____
ROOT
ATOM      1  C   UNL     1      -2.340  11.035  17.938  0.00  0.00    +0.000 A 
ATOM      2  C   UNL     1      -2.785  11.971  18.884  0.00  0.00    +0.000 A 
ATOM      3  C   UNL     1      -2.124  12.142  20.112  0.00  0.00    +0.000 A 
ATOM      4  C   UNL     1      -0.991  11.357  20.344  0.00  0.00    +0.000 A 
ATOM      5  N   UNL     1      -0.159  11.301  21.440  0.00  0.00    +0.000 N 
ATOM      6  C   UNL     1       0.841  10.389  21.228  0.00  0.00    +0.000 A 
ATOM      7  C   UNL     1       0.670   9.849  19.970  0.00  0.00    +0.000 A 
ATOM      8  C   UNL     1      -0.510  10.439  19.421  0.00  0.00    +0.000 A 
ATOM      9  C   UNL     1      -1.212  10.262  18.208  0.00  0.00    +0.000 A 
ATOM     10  H   UNL     1      -0.281  11.849  22.280  0.00  0.00    +0.000 HD
ENDROOT
BRANCH   1  15
ATOM     11  N   UNL     1      -2.939   9.921  13.441  0.00  0.00    +0.000 N 
ATOM     12  C   UNL     1      -3.306  10.383  14.640  0.00  0.00    +0.000 A 
ATOM     13  N   UNL     1      -4.460  10.864  15.034  0.00  0.00    +0.000 NA
ATOM     14  N   UNL     1      -4.296  11.195  16.370  0.00  0.00    +0.000 NA
ATOM     15  C   UNL     1      -3.058  10.893  16.676  0.00  0.00    +0.000 A 
ATOM     16  O   UNL     1      -2.362  10.363  15.616  0.00  0.00    +0.000 OA
ATOM     17  H   UNL     1      -3.660   9.769  12.748  0.00  0.00    +0.000 HD
ATOM     18  H   UNL     1      -2.104   9.358  13.354  0.00  0.00    +0.000 HD
ENDBRANCH   1  15
BRANCH   7  19
ATOM     19  C   UNL     1       1.562   8.871  19.378  0.00  0.00    +0.000 A 
ATOM     20  C   UNL     1       2.029   8.998  18.078  0.00  0.00    +0.000 A 
ATOM     21  N   UNL     1       2.844   8.086  17.508  0.00  0.00    +0.000 NA
ATOM     22  C   UNL     1       3.165   7.035  18.318  0.00  0.00    +0.000 A 
ATOM     23  C   UNL     1       2.693   6.870  19.626  0.00  0.00    +0.000 A 
ATOM     24  N   UNL     1       1.895   7.805  20.166  0.00  0.00    +0.000 NA
BRANCH  23  25
ATOM     25  N   UNL     1       2.993   5.679  20.322  0.00  0.00    +0.000 N 
ATOM     26  H   UNL     1       3.645   5.814  21.083  0.00  0.00    +0.000 HD
BRANCH  25  27
ATOM     27  C   UNL     1       1.906   4.730  20.555  0.00  0.00    +0.000 C 
ATOM     28  C   UNL     1       1.477   3.976  19.284  0.00  0.00    +0.000 C 
ATOM     29  C   UNL     1       0.761   2.733  19.812  0.00  0.00    +0.000 C 
ATOM     30  C   UNL     1       1.337   2.459  21.197  0.00  0.00    +0.000 C 
ATOM     31  C   UNL     1       2.242   3.635  21.552  0.00  0.00    +0.000 C 
ENDBRANCH  25  27
ENDBRANCH  23  25
ENDBRANCH   7  19
TORSDOF 4
ENDMDL
MODEL 3
REMARK VINA RESULT:      -8.4      2.685      8.804
REMARK  Name = 
REMARK  4 active torsions:
REMARK  status: ('A' for Active; 'I' for Inactive)
REMARK    1  A    between atoms: C_5  and  C_6
REMARK    2  A    between atoms: C_12  and  C_13
REMARK    3  A    between atoms: C_17  and  N_18
REMARK    4  A    between atoms: N_18  and  C_19
REMARK                            x       y       z     vdW  Elec       q    Type
REMARK                         _______ _______ _______ _____ _____    ______ ____
ROOT
ATOM      1  C   UNL     1       4.820   4.874  17.436  0.00  0.00    +0.000 A 
ATOM      2  C   UNL     1       4.817   3.694  18.195  0.00  0.00    +0.000 A 
ATOM      3  C   UNL     1       4.061   3.582  19.374  0.00  0.00    +0.000 A 
ATOM      4  C   UNL     1       3.294   4.690  19.749  0.00  0.00    +0.000 A 
ATOM      5  N   UNL     1       2.475   4.872  20.840  0.00  0.00    +0.000 N 
ATOM      6  C   UNL     1       1.907   6.119  20.801  0.00  0.00    +0.000 A 
ATOM      7  C   UNL     1       2.351   6.757  19.662  0.00  0.00    +0.000 A 
ATOM      8  C   UNL     1       3.256   5.864  19.010  0.00  0.00    +0.000 A 
ATOM      9  C   UNL     1       4.051   5.961  17.847  0.00  0.00    +0.000 A 
ATOM     10  H   UNL     1       2.325   4.186  21.567  0.00  0.00    +0.000 HD
ENDROOT
BRANCH   1  15
ATOM     11  N   UNL     1       6.367   3.539  13.235  0.00  0.00    +0.000 N 
ATOM     12  C   UNL     1       6.307   4.319  14.319  0.00  0.00    +0.000 A 
ATOM     13  N   UNL     1       6.982   5.404  14.608  0.00  0.00    +0.000 NA
ATOM     14  N   UNL     1       6.529   5.813  15.852  0.00  0.00    +0.000 NA
ATOM     15  C   UNL     1       5.621   4.942  16.219  0.00  0.00    +0.000 A 
ATOM     16  O   UNL     1       5.421   3.956  15.283  0.00  0.00    +0.000 OA
ATOM     17  H   UNL     1       6.890   3.874  12.437  0.00  0.00    +0.000 HD
ATOM     18  H   UNL     1       5.619   2.887  13.044  0.00  0.00    +0.000 HD
ENDBRANCH   1  15
BRANCH   7  19
ATOM     19  C   UNL     1       1.933   8.086  19.261  0.00  0.00    +0.000 A 
ATOM     20  C   UNL     1       2.036   8.521  17.948  0.00  0.00    +0.000 A 
ATOM     21  N   UNL     1       1.669   9.762  17.564  0.00  0.00    +0.000 NA
ATOM     22  C   UNL     1       1.193  10.545  18.575  0.00  0.00    +0.000 A 
ATOM     23  C   UNL     1       1.097  10.141  19.913  0.00  0.00    +0.000 A 
ATOM     24  N   UNL     1       1.458   8.894  20.256  0.00  0.00    +0.000 NA
BRANCH  23  25
ATOM     25  N   UNL     1       0.707  11.081  20.891  0.00  0.00    +0.000 N 
ATOM     26  H   UNL     1       1.205  11.957  20.824  0.00  0.00    +0.000 HD
BRANCH  25  27
ATOM     27  C   UNL     1      -0.712  11.162  21.235  0.00  0.00    +0.000 C 
ATOM     28  C   UNL     1      -0.959  11.484  22.719  0.00  0.00    +0.000 C 
ATOM     29  C   UNL     1      -2.387  12.027  22.751  0.00  0.00    +0.000 C 
ATOM     30  C   UNL     1      -2.659  12.606  21.366  0.00  0.00    +0.000 C 
ATOM     31  C   UNL     1      -1.473  12.238  20.480  0.00  0.00    +0.000 C 
ENDBRANCH  25  27
ENDBRANCH  23  25
ENDBRANCH   7  19
TORSDOF 4
ENDMDL
MODEL 4
REMARK VINA RESULT:      -8.3      0.830      1.002
REMARK  Name = 
REMARK  4 active torsions:
REMARK  status: ('A' for Active; 'I' for Inactive)
REMARK    1  A    between atoms: C_5  and  C_6
REMARK    2  A    between atoms: C_12  and  C_13
REMARK    3  A    between atoms: C_17  and  N_18
REMARK    4  A    between atoms: N_18  and  C_19
REMARK                            x       y       z     vdW  Elec       q    Type
REMARK                         _______ _______ _______ _____ _____    ______ ____
ROOT
ATOM      1  C   UNL     1       2.130   7.095  19.573  0.00  0.00    +0.000 A 
ATOM      2  C   UNL     1       1.440   6.438  20.603  0.00  0.00    +0.000 A 
ATOM      3  C   UNL     1       1.741   5.113  20.957  0.00  0.00    +0.000 A 
ATOM      4  C   UNL     1       2.772   4.481  20.255  0.00  0.00    +0.000 A 
ATOM      5  N   UNL     1       3.274   3.204  20.375  0.00  0.00    +0.000 N 
ATOM      6  C   UNL     1       4.299   3.015  19.485  0.00  0.00    +0.000 A 
ATOM      7  C   UNL     1       4.480   4.188  18.782  0.00  0.00    +0.000 A 
ATOM      8  C   UNL     1       3.490   5.109  19.247  0.00  0.00    +0.000 A 
ATOM      9  C   UNL     1       3.145   6.430  18.888  0.00  0.00    +0.000 A 
ATOM     10  H   UNL     1       2.926   2.509  21.020  0.00  0.00    +0.000 HD
ENDROOT
BRANCH   1  15
ATOM     11  N   UNL     1       0.275  11.332  20.230  0.00  0.00    +0.000 N 
ATOM     12  C   UNL     1       0.934  10.382  19.559  0.00  0.00    +0.000 A 
ATOM     13  N   UNL     1       1.469  10.420  18.364  0.00  0.00    +0.000 NA
ATOM     14  N   UNL     1       2.027   9.168  18.158  0.00  0.00    +0.000 NA
ATOM     15  C   UNL     1       1.782   8.472  19.241  0.00  0.00    +0.000 A 
ATOM     16  O   UNL     1       1.087   9.188  20.187  0.00  0.00    +0.000 OA
ATOM     17  H   UNL     1       0.291  12.273  19.861  0.00  0.00    +0.000 HD
ATOM     18  H   UNL     1       0.140  11.240  21.227  0.00  0.00    +0.000 HD
ENDBRANCH   1  15
BRANCH   7  19
ATOM     19  C   UNL     1       5.503   4.381  17.774  0.00  0.00    +0.000 A 
ATOM     20  C   UNL     1       6.830   4.606  18.111  0.00  0.00    +0.000 A 
ATOM     21  N   UNL     1       7.789   4.807  17.184  0.00  0.00    +0.000 NA
ATOM     22  C   UNL     1       7.343   4.770  15.895  0.00  0.00    +0.000 A 
ATOM     23  C   UNL     1       6.007   4.566  15.525  0.00  0.00    +0.000 A 
ATOM     24  N   UNL     1       5.081   4.356  16.474  0.00  0.00    +0.000 NA
BRANCH  23  25
ATOM     25  N   UNL     1       5.645   4.674  14.165  0.00  0.00    +0.000 N 
ATOM     26  H   UNL     1       5.855   5.578  13.766  0.00  0.00    +0.000 HD
BRANCH  25  27
ATOM     27  C   UNL     1       5.865   3.513  13.304  0.00  0.00    +0.000 C 
ATOM     28  C   UNL     1       4.710   3.261  12.318  0.00  0.00    +0.000 C 
ATOM     29  C   UNL     1       5.336   2.401  11.221  0.00  0.00    +0.000 C 
ATOM     30  C   UNL     1       6.828   2.723  11.220  0.00  0.00    +0.000 C 
ATOM     31  C   UNL     1       7.099   3.619  12.425  0.00  0.00    +0.000 C 
ENDBRANCH  25  27
ENDBRANCH  23  25
ENDBRANCH   7  19
TORSDOF 4
ENDMDL
MODEL 5
REMARK VINA RESULT:      -8.2      2.548      8.685
REMARK  Name = 
REMARK  4 active torsions:
REMARK  status: ('A' for Active; 'I' for Inactive)
REMARK    1  A    between atoms: C_5  and  C_6
REMARK    2  A    between atoms: C_12  and  C_13
REMARK    3  A    between atoms: C_17  and  N_18
REMARK    4  A    between atoms: N_18  and  C_19
REMARK                            x       y       z     vdW  Elec       q    Type
REMARK                         _______ _______ _______ _____ _____    ______ ____
ROOT
ATOM      1  C   UNL     1       4.942   4.601  18.434  0.00  0.00    +0.000 A 
ATOM      2  C   UNL     1       4.665   3.425  19.146  0.00  0.00    +0.000 A 
ATOM      3  C   UNL     1       3.600   3.356  20.060  0.00  0.00    +0.000 A 
ATOM      4  C   UNL     1       2.813   4.502  20.214  0.00  0.00    +0.000 A 
ATOM      5  N   UNL     1       1.727   4.730  21.028  0.00  0.00    +0.000 N 
ATOM      6  C   UNL     1       1.257   6.003  20.843  0.00  0.00    +0.000 A 
ATOM      7  C   UNL     1       2.038   6.615  19.885  0.00  0.00    +0.000 A 
ATOM      8  C   UNL     1       3.046   5.674  19.508  0.00  0.00    +0.000 A 
ATOM      9  C   UNL     1       4.144   5.727  18.621  0.00  0.00    +0.000 A 
ATOM     10  H   UNL     1       1.343   4.054  21.674  0.00  0.00    +0.000 HD
ENDROOT
BRANCH   1  15
ATOM     11  N   UNL     1       7.080   5.154  14.317  0.00  0.00    +0.000 N 
ATOM     12  C   UNL     1       7.006   4.879  15.622  0.00  0.00    +0.000 A 
ATOM     13  N   UNL     1       7.952   4.533  16.460  0.00  0.00    +0.000 NA
ATOM     14  N   UNL     1       7.330   4.369  17.688  0.00  0.00    +0.000 NA
ATOM     15  C   UNL     1       6.059   4.625  17.496  0.00  0.00    +0.000 A 
ATOM     16  O   UNL     1       5.776   4.963  16.194  0.00  0.00    +0.000 OA
ATOM     17  H   UNL     1       7.997   5.262  13.905  0.00  0.00    +0.000 HD
ATOM     18  H   UNL     1       6.320   5.643  13.862  0.00  0.00    +0.000 HD
ENDBRANCH   1  15
BRANCH   7  19
ATOM     19  C   UNL     1       1.819   7.962  19.397  0.00  0.00    +0.000 A 
ATOM     20  C   UNL     1       2.121   8.327  18.093  0.00  0.00    +0.000 A 
ATOM     21  N   UNL     1       1.940   9.582  17.631  0.00  0.00    +0.000 NA
ATOM     22  C   UNL     1       1.438  10.454  18.553  0.00  0.00    +0.000 A 
ATOM     23  C   UNL     1       1.143  10.120  19.882  0.00  0.00    +0.000 A 
ATOM     24  N   UNL     1       1.322   8.858  20.303  0.00  0.00    +0.000 NA
BRANCH  23  25
ATOM     25  N   UNL     1       0.747  11.136  20.777  0.00  0.00    +0.000 N 
ATOM     26  H   UNL     1       1.187  12.027  20.589  0.00  0.00    +0.000 HD
BRANCH  25  27
ATOM     27  C   UNL     1      -0.654  11.175  21.193  0.00  0.00    +0.000 C 
ATOM     28  C   UNL     1      -0.836  11.548  22.674  0.00  0.00    +0.000 C 
ATOM     29  C   UNL     1      -2.283  12.034  22.761  0.00  0.00    +0.000 C 
ATOM     30  C   UNL     1      -2.650  12.544  21.371  0.00  0.00    +0.000 C 
ATOM     31  C   UNL     1      -1.497  12.188  20.438  0.00  0.00    +0.000 C 
ENDBRANCH  25  27
ENDBRANCH  23  25
ENDBRANCH   7  19
TORSDOF 4
ENDMDL
MODEL 6
REMARK VINA RESULT:      -8.2      1.539      1.964
REMARK  Name = 
REMARK  4 active torsions:
REMARK  status: ('A' for Active; 'I' for Inactive)
REMARK    1  A    between atoms: C_5  and  C_6
REMARK    2  A    between atoms: C_12  and  C_13
REMARK    3  A    between atoms: C_17  and  N_18
REMARK    4  A    between atoms: N_18  and  C_19
REMARK                            x       y       z     vdW  Elec       q    Type
REMARK                         _______ _______ _______ _____ _____    ______ ____
ROOT
ATOM      1  C   UNL     1       1.613   6.168  20.411  0.00  0.00    +0.000 A 
ATOM      2  C   UNL     1       0.788   5.073  20.707  0.00  0.00    +0.000 A 
ATOM      3  C   UNL     1       1.169   3.760  20.383  0.00  0.00    +0.000 A 
ATOM      4  C   UNL     1       2.416   3.587  19.774  0.00  0.00    +0.000 A 
ATOM      5  N   UNL     1       3.041   2.439  19.342  0.00  0.00    +0.000 N 
ATOM      6  C   UNL     1       4.268   2.740  18.812  0.00  0.00    +0.000 A 
ATOM      7  C   UNL     1       4.454   4.103  18.907  0.00  0.00    +0.000 A 
ATOM      8  C   UNL     1       3.267   4.646  19.489  0.00  0.00    +0.000 A 
ATOM      9  C   UNL     1       2.845   5.959  19.794  0.00  0.00    +0.000 A 
ATOM     10  H   UNL     1       2.643   1.512  19.403  0.00  0.00    +0.000 HD
ENDROOT
BRANCH   1  15
ATOM     11  N   UNL     1      -0.636   9.440  22.872  0.00  0.00    +0.000 N 
ATOM     12  C   UNL     1       0.147   8.977  21.894  0.00  0.00    +0.000 A 
ATOM     13  N   UNL     1       0.761   9.626  20.936  0.00  0.00    +0.000 NA
ATOM     14  N   UNL     1       1.437   8.665  20.199  0.00  0.00    +0.000 NA
ATOM     15  C   UNL     1       1.175   7.513  20.767  0.00  0.00    +0.000 A 
ATOM     16  O   UNL     1       0.356   7.635  21.864  0.00  0.00    +0.000 OA
ATOM     17  H   UNL     1      -0.674  10.440  23.019  0.00  0.00    +0.000 HD
ATOM     18  H   UNL     1      -0.834   8.859  23.675  0.00  0.00    +0.000 HD
ENDBRANCH   1  15
BRANCH   7  19
ATOM     19  C   UNL     1       5.658   4.790  18.481  0.00  0.00    +0.000 A 
ATOM     20  C   UNL     1       6.551   5.336  19.391  0.00  0.00    +0.000 A 
ATOM     21  N   UNL     1       7.664   5.995  19.007  0.00  0.00    +0.000 NA
ATOM     22  C   UNL     1       7.832   6.077  17.655  0.00  0.00    +0.000 A 
ATOM     23  C   UNL     1       6.937   5.554  16.713  0.00  0.00    +0.000 A 
ATOM     24  N   UNL     1       5.846   4.892  17.131  0.00  0.00    +0.000 NA
BRANCH  23  25
ATOM     25  N   UNL     1       7.152   5.810  15.342  0.00  0.00    +0.000 N 
ATOM     26  H   UNL     1       7.884   6.486  15.171  0.00  0.00    +0.000 HD
BRANCH  25  27
ATOM     27  C   UNL     1       7.077   4.682  14.415  0.00  0.00    +0.000 C 
ATOM     28  C   UNL     1       5.635   4.228  14.127  0.00  0.00    +0.000 C 
ATOM     29  C   UNL     1       5.741   3.457  12.812  0.00  0.00    +0.000 C 
ATOM     30  C   UNL     1       6.961   4.013  12.084  0.00  0.00    +0.000 C 
ATOM     31  C   UNL     1       7.667   4.965  13.044  0.00  0.00    +0.000 C 
ENDBRANCH  25  27
ENDBRANCH  23  25
ENDBRANCH   7  19
TORSDOF 4
ENDMDL
MODEL 7
REMARK VINA RESULT:      -8.1      2.631      8.329
REMARK  Name = 
REMARK  4 active torsions:
REMARK  status: ('A' for Active; 'I' for Inactive)
REMARK    1  A    between atoms: C_5  and  C_6
REMARK    2  A    between atoms: C_12  and  C_13
REMARK    3  A    between atoms: C_17  and  N_18
REMARK    4  A    between atoms: N_18  and  C_19
REMARK                            x       y       z     vdW  Elec       q    Type
REMARK                         _______ _______ _______ _____ _____    ______ ____
ROOT
ATOM      1  C   UNL     1       5.014   4.923  17.573  0.00  0.00    +0.000 A 
ATOM      2  C   UNL     1       4.974   3.800  18.413  0.00  0.00    +0.000 A 
ATOM      3  C   UNL     1       4.150   3.764  19.550  0.00  0.00    +0.000 A 
ATOM      4  C   UNL     1       3.354   4.886  19.799  0.00  0.00    +0.000 A 
ATOM      5  N   UNL     1       2.469   5.137  20.824  0.00  0.00    +0.000 N 
ATOM      6  C   UNL     1       1.896   6.370  20.661  0.00  0.00    +0.000 A 
ATOM      7  C   UNL     1       2.402   6.932  19.508  0.00  0.00    +0.000 A 
ATOM      8  C   UNL     1       3.351   6.004  18.976  0.00  0.00    +0.000 A 
ATOM      9  C   UNL     1       4.214   6.028  17.859  0.00  0.00    +0.000 A 
ATOM     10  H   UNL     1       2.282   4.502  21.587  0.00  0.00    +0.000 HD
ENDROOT
BRANCH   1  15
ATOM     11  N   UNL     1       6.519   3.607  13.351  0.00  0.00    +0.000 N 
ATOM     12  C   UNL     1       6.549   4.302  14.492  0.00  0.00    +0.000 A 
ATOM     13  N   UNL     1       7.409   5.202  14.901  0.00  0.00    +0.000 NA
ATOM     14  N   UNL     1       6.971   5.604  16.153  0.00  0.00    +0.000 NA
ATOM     15  C   UNL     1       5.886   4.914  16.404  0.00  0.00    +0.000 A 
ATOM     16  O   UNL     1       5.551   4.060  15.380  0.00  0.00    +0.000 OA
ATOM     17  H   UNL     1       7.145   3.885  12.608  0.00  0.00    +0.000 HD
ATOM     18  H   UNL     1       5.668   3.138  13.071  0.00  0.00    +0.000 HD
ENDBRANCH   1  15
BRANCH   7  19
ATOM     19  C   UNL     1       2.000   8.224  18.988  0.00  0.00    +0.000 A 
ATOM     20  C   UNL     1       2.702   8.856  17.973  0.00  0.00    +0.000 A 
ATOM     21  N   UNL     1       2.350  10.067  17.494  0.00  0.00    +0.000 NA
ATOM     22  C   UNL     1       1.251  10.611  18.092  0.00  0.00    +0.000 A 
ATOM     23  C   UNL     1       0.535  10.007  19.133  0.00  0.00    +0.000 A 
ATOM     24  N   UNL     1       0.905   8.794  19.576  0.00  0.00    +0.000 NA
BRANCH  23  25
ATOM     25  N   UNL     1      -0.509  10.722  19.758  0.00  0.00    +0.000 N 
ATOM     26  H   UNL     1      -0.192  11.313  20.514  0.00  0.00    +0.000 HD
BRANCH  25  27
ATOM     27  C   UNL     1      -1.573  11.259  18.911  0.00  0.00    +0.000 C 
ATOM     28  C   UNL     1      -2.331  10.173  18.128  0.00  0.00    +0.000 C 
ATOM     29  C   UNL     1      -3.657  10.836  17.756  0.00  0.00    +0.000 C 
ATOM     30  C   UNL     1      -3.909  11.913  18.808  0.00  0.00    +0.000 C 
ATOM     31  C   UNL     1      -2.656  12.003  19.674  0.00  0.00    +0.000 C 
ENDBRANCH  25  27
ENDBRANCH  23  25
ENDBRANCH   7  19
TORSDOF 4
ENDMDL
MODEL 8
REMARK VINA RESULT:      -8.1      4.355      7.230
REMARK  Name = 
REMARK  4 active torsions:
REMARK  status: ('A' for Active; 'I' for Inactive)
REMARK    1  A    between atoms: C_5  and  C_6
REMARK    2  A    between atoms: C_12  and  C_13
REMARK    3  A    between atoms: C_17  and  N_18
REMARK    4  A    between atoms: N_18  and  C_19
REMARK                            x       y       z     vdW  Elec       q    Type
REMARK                         _______ _______ _______ _____ _____    ______ ____
ROOT
ATOM      1  C   UNL     1      -2.285  10.809  17.424  0.00  0.00    +0.000 A 
ATOM      2  C   UNL     1      -2.787  11.769  18.316  0.00  0.00    +0.000 A 
ATOM      3  C   UNL     1      -2.173  12.009  19.556  0.00  0.00    +0.000 A 
ATOM      4  C   UNL     1      -1.026  11.266  19.857  0.00  0.00    +0.000 A 
ATOM      5  N   UNL     1      -0.231  11.278  20.981  0.00  0.00    +0.000 N 
ATOM      6  C   UNL     1       0.801  10.388  20.838  0.00  0.00    +0.000 A 
ATOM      7  C   UNL     1       0.687   9.793  19.599  0.00  0.00    +0.000 A 
ATOM      8  C   UNL     1      -0.490  10.326  18.988  0.00  0.00    +0.000 A 
ATOM      9  C   UNL     1      -1.147  10.080  17.762  0.00  0.00    +0.000 A 
ATOM     10  H   UNL     1      -0.395  11.856  21.793  0.00  0.00    +0.000 HD
ENDROOT
BRANCH   1  15
ATOM     11  N   UNL     1      -2.666   9.653  12.914  0.00  0.00    +0.000 N 
ATOM     12  C   UNL     1      -3.106  10.069  14.105  0.00  0.00    +0.000 A 
ATOM     13  N   UNL     1      -4.312  10.423  14.475  0.00  0.00    +0.000 NA
ATOM     14  N   UNL     1      -4.213  10.765  15.815  0.00  0.00    +0.000 NA
ATOM     15  C   UNL     1      -2.957  10.596  16.147  0.00  0.00    +0.000 A 
ATOM     16  O   UNL     1      -2.186  10.147  15.102  0.00  0.00    +0.000 OA
ATOM     17  H   UNL     1      -3.351   9.427  12.206  0.00  0.00    +0.000 HD
ATOM     18  H   UNL     1      -1.773   9.183  12.844  0.00  0.00    +0.000 HD
ENDBRANCH   1  15
BRANCH   7  19
ATOM     19  C   UNL     1       1.625   8.818  19.077  0.00  0.00    +0.000 A 
ATOM     20  C   UNL     1       2.224   8.970  17.835  0.00  0.00    +0.000 A 
ATOM     21  N   UNL     1       3.083   8.062  17.329  0.00  0.00    +0.000 NA
ATOM     22  C   UNL     1       3.308   6.987  18.140  0.00  0.00    +0.000 A 
ATOM     23  C   UNL     1       2.702   6.796  19.388  0.00  0.00    +0.000 A 
ATOM     24  N   UNL     1       1.863   7.728  19.867  0.00  0.00    +0.000 NA
BRANCH  23  25
ATOM     25  N   UNL     1       2.917   5.586  20.081  0.00  0.00    +0.000 N 
ATOM     26  H   UNL     1       2.574   5.602  21.031  0.00  0.00    +0.000 HD
BRANCH  25  27
ATOM     27  C   UNL     1       2.738   4.335  19.345  0.00  0.00    +0.000 C 
ATOM     28  C   UNL     1       3.849   3.306  19.619  0.00  0.00    +0.000 C 
ATOM     29  C   UNL     1       3.230   1.970  19.212  0.00  0.00    +0.000 C 
ATOM     30  C   UNL     1       1.720   2.131  19.364  0.00  0.00    +0.000 C 
ATOM     31  C   UNL     1       1.450   3.601  19.674  0.00  0.00    +0.000 C 
ENDBRANCH  25  27
ENDBRANCH  23  25
ENDBRANCH   7  19
TORSDOF 4
ENDMDL
MODEL 9
REMARK VINA RESULT:      -8.1      2.571      8.651
REMARK  Name = 
REMARK  4 active torsions:
REMARK  status: ('A' for Active; 'I' for Inactive)
REMARK    1  A    between atoms: C_5  and  C_6
REMARK    2  A    between atoms: C_12  and  C_13
REMARK    3  A    between atoms: C_17  and  N_18
REMARK    4  A    between atoms: N_18  and  C_19
REMARK                            x       y       z     vdW  Elec       q    Type
REMARK                         _______ _______ _______ _____ _____    ______ ____
ROOT
ATOM      1  C   UNL     1       5.071   4.819  17.470  0.00  0.00    +0.000 A 
ATOM      2  C   UNL     1       5.068   3.647  18.240  0.00  0.00    +0.000 A 
ATOM      3  C   UNL     1       4.271   3.529  19.391  0.00  0.00    +0.000 A 
ATOM      4  C   UNL     1       3.464   4.621  19.726  0.00  0.00    +0.000 A 
ATOM      5  N   UNL     1       2.600   4.795  20.784  0.00  0.00    +0.000 N 
ATOM      6  C   UNL     1       2.004   6.026  20.709  0.00  0.00    +0.000 A 
ATOM      7  C   UNL     1       2.475   6.664  19.581  0.00  0.00    +0.000 A 
ATOM      8  C   UNL     1       3.425   5.786  18.973  0.00  0.00    +0.000 A 
ATOM      9  C   UNL     1       4.262   5.892  17.839  0.00  0.00    +0.000 A 
ATOM     10  H   UNL     1       2.440   4.112  21.511  0.00  0.00    +0.000 HD
ENDROOT
BRANCH   1  15
ATOM     11  N   UNL     1       6.545   3.726  13.173  0.00  0.00    +0.000 N 
ATOM     12  C   UNL     1       6.566   4.383  14.337  0.00  0.00    +0.000 A 
ATOM     13  N   UNL     1       7.387   5.313  14.758  0.00  0.00    +0.000 NA
ATOM     14  N   UNL     1       6.957   5.649  16.033  0.00  0.00    +0.000 NA
ATOM     15  C   UNL     1       5.915   4.895  16.282  0.00  0.00    +0.000 A 
ATOM     16  O   UNL     1       5.602   4.059  15.237  0.00  0.00    +0.000 OA
ATOM     17  H   UNL     1       7.139   4.061  12.427  0.00  0.00    +0.000 HD
ATOM     18  H   UNL     1       5.713   3.222  12.896  0.00  0.00    +0.000 HD
ENDBRANCH   1  15
BRANCH   7  19
ATOM     19  C   UNL     1       2.042   7.979  19.150  0.00  0.00    +0.000 A 
ATOM     20  C   UNL     1       2.389   8.495  17.910  0.00  0.00    +0.000 A 
ATOM     21  N   UNL     1       2.009   9.724  17.504  0.00  0.00    +0.000 NA
ATOM     22  C   UNL     1       1.258  10.410  18.415  0.00  0.00    +0.000 A 
ATOM     23  C   UNL     1       0.909   9.923  19.681  0.00  0.00    +0.000 A 
ATOM     24  N   UNL     1       1.293   8.690  20.046  0.00  0.00    +0.000 NA
BRANCH  23  25
ATOM     25  N   UNL     1       0.235  10.773  20.585  0.00  0.00    +0.000 N 
ATOM     26  H   UNL     1       0.515  10.636  21.546  0.00  0.00    +0.000 HD
BRANCH  25  27
ATOM     27  C   UNL     1      -0.019  12.151  20.168  0.00  0.00    +0.000 C 
ATOM     28  C   UNL     1      -1.493  12.568  20.320  0.00  0.00    +0.000 C 
ATOM     29  C   UNL     1      -1.448  14.095  20.349  0.00  0.00    +0.000 C 
ATOM     30  C   UNL     1      -0.064  14.475  20.867  0.00  0.00    +0.000 C 
ATOM     31  C   UNL     1       0.754  13.191  20.961  0.00  0.00    +0.000 C 
ENDBRANCH  25  27
ENDBRANCH  23  25
ENDBRANCH   7  19
TORSDOF 4
ENDMDL
