MODEL 1
REMARK VINA RESULT:      -6.0      0.000      0.000
REMARK  Name = 
REMARK  3 active torsions:
REMARK  status: ('A' for Active; 'I' for Inactive)
REMARK    1  A    between atoms: C_1  and  C_2
REMARK    2  A    between atoms: C_3  and  C_4
REMARK    3  A    between atoms: C_10  and  C_11
REMARK                            x       y       z     vdW  Elec       q    Type
REMARK                         _______ _______ _______ _____ _____    ______ ____
ROOT
ATOM      1  C   UNL     1       2.491   7.211  19.194  0.00  0.00    +0.000 C 
ATOM      2  C   UNL     1       2.924   5.761  19.098  0.00  0.00    +0.000 C 
ATOM      3  C   UNL     1       4.043   5.303  18.503  0.00  0.00    +0.000 C 
ATOM      4  C   UNL     1       4.336   3.820  18.415  0.00  0.00    +0.000 C 
ATOM      5  C   UNL     1       3.512   2.881  19.300  0.00  0.00    +0.000 C 
ATOM      6 CL   UNL     1       3.623   1.216  18.595  0.00  0.00    +0.000 Cl
ATOM      7  C   UNL     1       2.064   3.316  19.611  0.00  0.00    +0.000 C 
ATOM      8  C   UNL     1       1.003   2.844  18.601  0.00  0.00    +0.000 C 
ATOM      9 CL   UNL     1       1.585   2.529  21.197  0.00  0.00    +0.000 Cl
ATOM     10  C   UNL     1       1.938   4.846  19.809  0.00  0.00    +0.000 C 
ENDROOT
BRANCH   3  11
ATOM     11  C   UNL     1       5.053   6.193  17.912  0.00  0.00    +0.000 C 
ATOM     12  C   UNL     1       6.384   6.071  17.998  0.00  0.00    +0.000 C 
ATOM     13 CL   UNL     1       7.465   7.215  17.318  0.00  0.00    +0.000 Cl
ENDBRANCH   3  11
TORSDOF 1
ENDMDL
MODEL 2
REMARK VINA RESULT:      -6.0      2.189      3.538
REMARK  Name = 
REMARK  3 active torsions:
REMARK  status: ('A' for Active; 'I' for Inactive)
REMARK    1  A    between atoms: C_1  and  C_2
REMARK    2  A    between atoms: C_3  and  C_4
REMARK    3  A    between atoms: C_10  and  C_11
REMARK                            x       y       z     vdW  Elec       q    Type
REMARK                         _______ _______ _______ _____ _____    ______ ____
ROOT
ATOM      1  C   UNL     1       5.124   6.223  16.386  0.00  0.00    +0.000 C 
ATOM      2  C   UNL     1       4.055   5.692  17.322  0.00  0.00    +0.000 C 
ATOM      3  C   UNL     1       3.147   6.428  17.992  0.00  0.00    +0.000 C 
ATOM      4  C   UNL     1       2.168   5.787  18.952  0.00  0.00    +0.000 C 
ATOM      5  C   UNL     1       2.011   4.265  18.893  0.00  0.00    +0.000 C 
ATOM      6 CL   UNL     1       1.289   3.722  20.463  0.00  0.00    +0.000 Cl
ATOM      7  C   UNL     1       3.261   3.456  18.484  0.00  0.00    +0.000 C 
ATOM      8  C   UNL     1       4.183   3.038  19.644  0.00  0.00    +0.000 C 
ATOM      9 CL   UNL     1       2.676   1.877  17.758  0.00  0.00    +0.000 Cl
ATOM     10  C   UNL     1       4.098   4.172  17.397  0.00  0.00    +0.000 C 
ENDROOT
BRANCH   3  11
ATOM     11  C   UNL     1       3.033   7.886  17.836  0.00  0.00    +0.000 C 
ATOM     12  C   UNL     1       1.997   8.655  18.194  0.00  0.00    +0.000 C 
ATOM     13 CL   UNL     1       1.952  10.344  17.899  0.00  0.00    +0.000 Cl
ENDBRANCH   3  11
TORSDOF 1
ENDMDL
MODEL 3
REMARK VINA RESULT:      -6.0      2.089      5.269
REMARK  Name = 
REMARK  3 active torsions:
REMARK  status: ('A' for Active; 'I' for Inactive)
REMARK    1  A    between atoms: C_1  and  C_2
REMARK    2  A    between atoms: C_3  and  C_4
REMARK    3  A    between atoms: C_10  and  C_11
REMARK                            x       y       z     vdW  Elec       q    Type
REMARK                         _______ _______ _______ _____ _____    ______ ____
ROOT
ATOM      1  C   UNL     1       2.598   2.981  17.082  0.00  0.00    +0.000 C 
ATOM      2  C   UNL     1       3.884   3.659  17.514  0.00  0.00    +0.000 C 
ATOM      3  C   UNL     1       4.329   3.787  18.780  0.00  0.00    +0.000 C 
ATOM      4  C   UNL     1       5.602   4.545  19.093  0.00  0.00    +0.000 C 
ATOM      5  C   UNL     1       6.538   4.872  17.926  0.00  0.00    +0.000 C 
ATOM      6 CL   UNL     1       7.612   6.235  18.443  0.00  0.00    +0.000 Cl
ATOM      7  C   UNL     1       5.874   5.105  16.551  0.00  0.00    +0.000 C 
ATOM      8  C   UNL     1       5.457   6.558  16.260  0.00  0.00    +0.000 C 
ATOM      9 CL   UNL     1       7.123   4.710  15.267  0.00  0.00    +0.000 Cl
ATOM     10  C   UNL     1       4.667   4.167  16.312  0.00  0.00    +0.000 C 
ENDROOT
BRANCH   3  11
ATOM     11  C   UNL     1       3.630   3.201  19.932  0.00  0.00    +0.000 C 
ATOM     12  C   UNL     1       2.569   3.708  20.573  0.00  0.00    +0.000 C 
ATOM     13 CL   UNL     1       1.878   2.963  21.954  0.00  0.00    +0.000 Cl
ENDBRANCH   3  11
TORSDOF 1
ENDMDL
MODEL 4
REMARK VINA RESULT:      -6.0      1.548      2.758
REMARK  Name = 
REMARK  3 active torsions:
REMARK  status: ('A' for Active; 'I' for Inactive)
REMARK    1  A    between atoms: C_1  and  C_2
REMARK    2  A    between atoms: C_3  and  C_4
REMARK    3  A    between atoms: C_10  and  C_11
REMARK                            x       y       z     vdW  Elec       q    Type
REMARK                         _______ _______ _______ _____ _____    ______ ____
ROOT
ATOM      1  C   UNL     1       5.446   4.040  15.881  0.00  0.00    +0.000 C 
ATOM      2  C   UNL     1       4.616   4.382  17.103  0.00  0.00    +0.000 C 
ATOM      3  C   UNL     1       4.715   5.504  17.844  0.00  0.00    +0.000 C 
ATOM      4  C   UNL     1       3.873   5.703  19.086  0.00  0.00    +0.000 C 
ATOM      5  C   UNL     1       2.681   4.765  19.292  0.00  0.00    +0.000 C 
ATOM      6 CL   UNL     1       2.237   4.810  21.047  0.00  0.00    +0.000 Cl
ATOM      7  C   UNL     1       2.824   3.332  18.735  0.00  0.00    +0.000 C 
ATOM      8  C   UNL     1       3.441   2.308  19.704  0.00  0.00    +0.000 C 
ATOM      9 CL   UNL     1       1.133   2.703  18.404  0.00  0.00    +0.000 Cl
ATOM     10  C   UNL     1       3.591   3.295  17.392  0.00  0.00    +0.000 C 
ENDROOT
BRANCH   3  11
ATOM     11  C   UNL     1       5.628   6.605  17.503  0.00  0.00    +0.000 C 
ATOM     12  C   UNL     1       6.924   6.706  17.825  0.00  0.00    +0.000 C 
ATOM     13 CL   UNL     1       7.873   8.077  17.425  0.00  0.00    +0.000 Cl
ENDBRANCH   3  11
TORSDOF 1
ENDMDL
MODEL 5
REMARK VINA RESULT:      -5.9      2.090      2.625
REMARK  Name = 
REMARK  3 active torsions:
REMARK  status: ('A' for Active; 'I' for Inactive)
REMARK    1  A    between atoms: C_1  and  C_2
REMARK    2  A    between atoms: C_3  and  C_4
REMARK    3  A    between atoms: C_10  and  C_11
REMARK                            x       y       z     vdW  Elec       q    Type
REMARK                         _______ _______ _______ _____ _____    ______ ____
ROOT
ATOM      1  C   UNL     1       5.791   5.551  18.725  0.00  0.00    +0.000 C 
ATOM      2  C   UNL     1       4.582   4.642  18.614  0.00  0.00    +0.000 C 
ATOM      3  C   UNL     1       4.088   4.112  17.478  0.00  0.00    +0.000 C 
ATOM      4  C   UNL     1       2.831   3.268  17.487  0.00  0.00    +0.000 C 
ATOM      5  C   UNL     1       2.329   2.757  18.840  0.00  0.00    +0.000 C 
ATOM      6 CL   UNL     1       0.581   2.322  18.654  0.00  0.00    +0.000 Cl
ATOM      7  C   UNL     1       2.608   3.655  20.065  0.00  0.00    +0.000 C 
ATOM      8  C   UNL     1       1.524   4.704  20.372  0.00  0.00    +0.000 C 
ATOM      9 CL   UNL     1       2.641   2.569  21.543  0.00  0.00    +0.000 Cl
ATOM     10  C   UNL     1       3.988   4.352  19.984  0.00  0.00    +0.000 C 
ENDROOT
BRANCH   3  11
ATOM     11  C   UNL     1       4.725   4.301  16.167  0.00  0.00    +0.000 C 
ATOM     12  C   UNL     1       5.755   3.608  15.664  0.00  0.00    +0.000 C 
ATOM     13 CL   UNL     1       6.458   3.967  14.142  0.00  0.00    +0.000 Cl
ENDBRANCH   3  11
TORSDOF 1
ENDMDL
MODEL 6
REMARK VINA RESULT:      -5.9      2.785      3.647
REMARK  Name = 
REMARK  3 active torsions:
REMARK  status: ('A' for Active; 'I' for Inactive)
REMARK    1  A    between atoms: C_1  and  C_2
REMARK    2  A    between atoms: C_3  and  C_4
REMARK    3  A    between atoms: C_10  and  C_11
REMARK                            x       y       z     vdW  Elec       q    Type
REMARK                         _______ _______ _______ _____ _____    ______ ____
ROOT
ATOM      1  C   UNL     1       7.422   4.843  17.991  0.00  0.00    +0.000 C 
ATOM      2  C   UNL     1       5.941   4.566  17.819  0.00  0.00    +0.000 C 
ATOM      3  C   UNL     1       5.330   4.187  16.679  0.00  0.00    +0.000 C 
ATOM      4  C   UNL     1       3.829   4.003  16.615  0.00  0.00    +0.000 C 
ATOM      5  C   UNL     1       3.067   3.930  17.941  0.00  0.00    +0.000 C 
ATOM      6 CL   UNL     1       1.328   4.306  17.601  0.00  0.00    +0.000 Cl
ATOM      7  C   UNL     1       3.648   4.741  19.118  0.00  0.00    +0.000 C 
ATOM      8  C   UNL     1       3.146   6.192  19.230  0.00  0.00    +0.000 C 
ATOM      9 CL   UNL     1       3.090   3.933  20.667  0.00  0.00    +0.000 Cl
ATOM     10  C   UNL     1       5.195   4.732  19.135  0.00  0.00    +0.000 C 
ENDROOT
BRANCH   3  11
ATOM     11  C   UNL     1       6.063   3.920  15.433  0.00  0.00    +0.000 C 
ATOM     12  C   UNL     1       5.653   4.181  14.185  0.00  0.00    +0.000 C 
ATOM     13 CL   UNL     1       6.574   3.761  12.801  0.00  0.00    +0.000 Cl
ENDBRANCH   3  11
TORSDOF 1
ENDMDL
MODEL 7
REMARK VINA RESULT:      -5.9      2.455      3.879
REMARK  Name = 
REMARK  3 active torsions:
REMARK  status: ('A' for Active; 'I' for Inactive)
REMARK    1  A    between atoms: C_1  and  C_2
REMARK    2  A    between atoms: C_3  and  C_4
REMARK    3  A    between atoms: C_10  and  C_11
REMARK                            x       y       z     vdW  Elec       q    Type
REMARK                         _______ _______ _______ _____ _____    ______ ____
ROOT
ATOM      1  C   UNL     1       3.664   7.095  17.682  0.00  0.00    +0.000 C 
ATOM      2  C   UNL     1       2.992   6.089  18.598  0.00  0.00    +0.000 C 
ATOM      3  C   UNL     1       2.257   6.376  19.690  0.00  0.00    +0.000 C 
ATOM      4  C   UNL     1       1.689   5.279  20.566  0.00  0.00    +0.000 C 
ATOM      5  C   UNL     1       1.684   3.855  20.004  0.00  0.00    +0.000 C 
ATOM      6 CL   UNL     1       1.534   2.710  21.399  0.00  0.00    +0.000 Cl
ATOM      7  C   UNL     1       2.829   3.490  19.035  0.00  0.00    +0.000 C 
ATOM      8  C   UNL     1       4.099   2.926  19.699  0.00  0.00    +0.000 C 
ATOM      9 CL   UNL     1       2.223   2.135  17.958  0.00  0.00    +0.000 Cl
ATOM     10  C   UNL     1       3.216   4.666  18.107  0.00  0.00    +0.000 C 
ENDROOT
BRANCH   3  11
ATOM     11  C   UNL     1       1.947   7.752  20.103  0.00  0.00    +0.000 C 
ATOM     12  C   UNL     1       1.212   8.131  21.157  0.00  0.00    +0.000 C 
ATOM     13 CL   UNL     1       0.863   9.775  21.500  0.00  0.00    +0.000 Cl
ENDBRANCH   3  11
TORSDOF 1
ENDMDL
MODEL 8
REMARK VINA RESULT:      -5.8      1.903      2.022
REMARK  Name = 
REMARK  3 active torsions:
REMARK  status: ('A' for Active; 'I' for Inactive)
REMARK    1  A    between atoms: C_1  and  C_2
REMARK    2  A    between atoms: C_3  and  C_4
REMARK    3  A    between atoms: C_10  and  C_11
REMARK                            x       y       z     vdW  Elec       q    Type
REMARK                         _______ _______ _______ _____ _____    ______ ____
ROOT
ATOM      1  C   UNL     1       3.810   7.365  17.376  0.00  0.00    +0.000 C 
ATOM      2  C   UNL     1       3.840   5.875  17.658  0.00  0.00    +0.000 C 
ATOM      3  C   UNL     1       4.581   4.957  17.006  0.00  0.00    +0.000 C 
ATOM      4  C   UNL     1       4.476   3.483  17.336  0.00  0.00    +0.000 C 
ATOM      5  C   UNL     1       3.769   3.097  18.638  0.00  0.00    +0.000 C 
ATOM      6 CL   UNL     1       3.264   1.363  18.502  0.00  0.00    +0.000 Cl
ATOM      7  C   UNL     1       2.632   4.029  19.110  0.00  0.00    +0.000 C 
ATOM      8  C   UNL     1       1.232   3.682  18.572  0.00  0.00    +0.000 C 
ATOM      9 CL   UNL     1       2.493   3.845  20.930  0.00  0.00    +0.000 Cl
ATOM     10  C   UNL     1       2.935   5.520  18.828  0.00  0.00    +0.000 C 
ENDROOT
BRANCH   3  11
ATOM     11  C   UNL     1       5.539   5.312  15.949  0.00  0.00    +0.000 C 
ATOM     12  C   UNL     1       5.998   4.513  14.977  0.00  0.00    +0.000 C 
ATOM     13 CL   UNL     1       7.170   5.023  13.834  0.00  0.00    +0.000 Cl
ENDBRANCH   3  11
TORSDOF 1
ENDMDL
MODEL 9
REMARK VINA RESULT:      -5.8      2.392      3.417
REMARK  Name = 
REMARK  3 active torsions:
REMARK  status: ('A' for Active; 'I' for Inactive)
REMARK    1  A    between atoms: C_1  and  C_2
REMARK    2  A    between atoms: C_3  and  C_4
REMARK    3  A    between atoms: C_10  and  C_11
REMARK                            x       y       z     vdW  Elec       q    Type
REMARK                         _______ _______ _______ _____ _____    ______ ____
ROOT
ATOM      1  C   UNL     1       7.628   5.997  18.349  0.00  0.00    +0.000 C 
ATOM      2  C   UNL     1       6.417   5.181  17.937  0.00  0.00    +0.000 C 
ATOM      3  C   UNL     1       6.088   4.826  16.680  0.00  0.00    +0.000 C 
ATOM      4  C   UNL     1       4.813   4.063  16.387  0.00  0.00    +0.000 C 
ATOM      5  C   UNL     1       4.085   3.419  17.570  0.00  0.00    +0.000 C 
ATOM      6 CL   UNL     1       2.373   3.114  17.066  0.00  0.00    +0.000 Cl
ATOM      7  C   UNL     1       4.202   4.140  18.930  0.00  0.00    +0.000 C 
ATOM      8  C   UNL     1       3.125   5.205  19.205  0.00  0.00    +0.000 C 
ATOM      9 CL   UNL     1       3.960   2.879  20.240  0.00  0.00    +0.000 Cl
ATOM     10  C   UNL     1       5.603   4.759  19.152  0.00  0.00    +0.000 C 
ENDROOT
BRANCH   3  11
ATOM     11  C   UNL     1       6.931   5.139  15.517  0.00  0.00    +0.000 C 
ATOM     12  C   UNL     1       6.704   4.796  14.242  0.00  0.00    +0.000 C 
ATOM     13 CL   UNL     1       7.799   5.163  12.975  0.00  0.00    +0.000 Cl
ENDBRANCH   3  11
TORSDOF 1
ENDMDL
