MODEL 1
REMARK VINA RESULT:      -8.8      0.000      0.000
REMARK  Name = 
REMARK  5 active torsions:
REMARK  status: ('A' for Active; 'I' for Inactive)
REMARK    1  A    between atoms: C_1  and  N_2
REMARK    2  A    between atoms: C_6  and  C_7
REMARK    3  A    between atoms: C_10  and  C_11
REMARK    4  A    between atoms: N_13  and  C_14
REMARK    5  A    between atoms: C_19  and  C_20
REMARK                            x       y       z     vdW  Elec       q    Type
REMARK                         _______ _______ _______ _____ _____    ______ ____
ROOT
ATOM      1  C   UNL     1       3.538   6.893  18.627  0.00  0.00    +0.000 C 
ATOM      2  O   UNL     1       4.002   6.250  19.560  0.00  0.00    +0.000 OA
ATOM      3  N   UNL     1       3.958   6.761  17.322  0.00  0.00    +0.000 N 
ATOM      4  H   UNL     1       3.496   7.299  16.602  0.00  0.00    +0.000 HD
ENDROOT
BRANCH   3   5
ATOM      5  C   UNL     1       4.985   5.829  16.853  0.00  0.00    +0.000 C 
ATOM      6  C   UNL     1       5.880   6.397  15.731  0.00  0.00    +0.000 C 
ATOM      7  N   UNL     1       7.029   5.518  15.470  0.00  0.00    +0.000 NA
ATOM      8  C   UNL     1       6.572   4.200  15.029  0.00  0.00    +0.000 C 
ATOM      9  C   UNL     1       5.641   3.527  16.042  0.00  0.00    +0.000 C 
ATOM     10  C   UNL     1       4.453   4.431  16.443  0.00  0.00    +0.000 C 
ATOM     11  H   UNL     1       7.586   5.425  16.319  0.00  0.00    +0.000 HD
BRANCH  10  12
ATOM     12  C   UNL     1       3.615   3.796  17.550  0.00  0.00    +0.000 A 
ATOM     13  C   UNL     1       2.214   3.702  17.454  0.00  0.00    +0.000 A 
ATOM     14  C   UNL     1       1.472   3.040  18.437  0.00  0.00    +0.000 A 
ATOM     15  C   UNL     1       2.125   2.472  19.523  0.00  0.00    +0.000 A 
ATOM     16  F   UNL     1       1.411   1.812  20.445  0.00  0.00    +0.000 F 
ATOM     17  C   UNL     1       3.504   2.575  19.644  0.00  0.00    +0.000 A 
ATOM     18  F   UNL     1       4.131   2.024  20.692  0.00  0.00    +0.000 F 
ATOM     19  C   UNL     1       4.252   3.234  18.669  0.00  0.00    +0.000 A 
ENDBRANCH  10  12
ENDBRANCH   3   5
BRANCH   1  23
ATOM     20  C   UNL     1       0.449   9.753  19.152  0.00  0.00    +0.000 A 
ATOM     21  C   UNL     1       0.778   8.945  20.238  0.00  0.00    +0.000 A 
ATOM     22  C   UNL     1       1.766   7.970  20.089  0.00  0.00    +0.000 A 
ATOM     23  C   UNL     1       2.410   7.830  18.861  0.00  0.00    +0.000 A 
ATOM     24  C   UNL     1       1.985   8.643  17.817  0.00  0.00    +0.000 A 
ATOM     25  N   UNL     1       1.025   9.600  17.938  0.00  0.00    +0.000 NA
BRANCH  20  31
ATOM     26  C   UNL     1      -2.415   9.983  17.897  0.00  0.00    +0.000 C 
ATOM     27  N   UNL     1      -1.726  10.967  18.702  0.00  0.00    +0.000 N 
ATOM     28  N   UNL     1      -2.358  12.134  18.963  0.00  0.00    +0.000 NA
ATOM     29  C   UNL     1      -1.494  12.806  19.718  0.00  0.00    +0.000 A 
ATOM     30  C   UNL     1      -0.323  12.074  19.961  0.00  0.00    +0.000 A 
ATOM     31  C   UNL     1      -0.479  10.873  19.284  0.00  0.00    +0.000 A 
ENDBRANCH  20  31
ENDBRANCH   1  23
TORSDOF 4
ENDMDL
MODEL 2
REMARK VINA RESULT:      -8.7      0.569      1.266
REMARK  Name = 
REMARK  5 active torsions:
REMARK  status: ('A' for Active; 'I' for Inactive)
REMARK    1  A    between atoms: C_1  and  N_2
REMARK    2  A    between atoms: C_6  and  C_7
REMARK    3  A    between atoms: C_10  and  C_11
REMARK    4  A    between atoms: N_13  and  C_14
REMARK    5  A    between atoms: C_19  and  C_20
REMARK                            x       y       z     vdW  Elec       q    Type
REMARK                         _______ _______ _______ _____ _____    ______ ____
ROOT
ATOM      1  C   UNL     1       3.627   6.745  18.620  0.00  0.00    +0.000 C 
ATOM      2  O   UNL     1       4.217   6.182  19.533  0.00  0.00    +0.000 OA
ATOM      3  N   UNL     1       3.913   6.548  17.287  0.00  0.00    +0.000 N 
ATOM      4  H   UNL     1       3.353   7.020  16.591  0.00  0.00    +0.000 HD
ENDROOT
BRANCH   3   5
ATOM      5  C   UNL     1       4.929   5.631  16.766  0.00  0.00    +0.000 C 
ATOM      6  C   UNL     1       5.734   6.199  15.577  0.00  0.00    +0.000 C 
ATOM      7  N   UNL     1       6.883   5.342  15.255  0.00  0.00    +0.000 NA
ATOM      8  C   UNL     1       6.429   4.007  14.865  0.00  0.00    +0.000 C 
ATOM      9  C   UNL     1       5.583   3.331  15.949  0.00  0.00    +0.000 C 
ATOM     10  C   UNL     1       4.403   4.215  16.414  0.00  0.00    +0.000 C 
ATOM     11  H   UNL     1       7.497   5.276  16.066  0.00  0.00    +0.000 HD
BRANCH  10  12
ATOM     12  C   UNL     1       3.655   3.581  17.584  0.00  0.00    +0.000 A 
ATOM     13  C   UNL     1       4.325   3.163  18.749  0.00  0.00    +0.000 A 
ATOM     14  C   UNL     1       3.614   2.665  19.844  0.00  0.00    +0.000 A 
ATOM     15  C   UNL     1       2.229   2.578  19.781  0.00  0.00    +0.000 A 
ATOM     16  F   UNL     1       1.552   2.129  20.846  0.00  0.00    +0.000 F 
ATOM     17  C   UNL     1       1.555   2.965  18.632  0.00  0.00    +0.000 A 
ATOM     18  F   UNL     1       0.218   2.883  18.575  0.00  0.00    +0.000 F 
ATOM     19  C   UNL     1       2.256   3.463  17.534  0.00  0.00    +0.000 A 
ENDBRANCH  10  12
ENDBRANCH   3   5
BRANCH   1  23
ATOM     20  C   UNL     1       0.502   9.520  19.346  0.00  0.00    +0.000 A 
ATOM     21  C   UNL     1       0.833   8.633  20.368  0.00  0.00    +0.000 A 
ATOM     22  C   UNL     1       1.833   7.684  20.149  0.00  0.00    +0.000 A 
ATOM     23  C   UNL     1       2.487   7.649  18.919  0.00  0.00    +0.000 A 
ATOM     24  C   UNL     1       2.058   8.536  17.939  0.00  0.00    +0.000 A 
ATOM     25  N   UNL     1       1.086   9.469  18.128  0.00  0.00    +0.000 NA
BRANCH  20  31
ATOM     26  C   UNL     1      -2.196  10.006  17.824  0.00  0.00    +0.000 C 
ATOM     27  N   UNL     1      -1.611  10.827  18.861  0.00  0.00    +0.000 N 
ATOM     28  N   UNL     1      -2.274  11.942  19.242  0.00  0.00    +0.000 NA
ATOM     29  C   UNL     1      -1.509  12.462  20.197  0.00  0.00    +0.000 A 
ATOM     30  C   UNL     1      -0.371  11.681  20.445  0.00  0.00    +0.000 A 
ATOM     31  C   UNL     1      -0.441  10.616  19.559  0.00  0.00    +0.000 A 
ENDBRANCH  20  31
ENDBRANCH   1  23
TORSDOF 4
ENDMDL
MODEL 3
REMARK VINA RESULT:      -8.7      2.608      3.938
REMARK  Name = 
REMARK  5 active torsions:
REMARK  status: ('A' for Active; 'I' for Inactive)
REMARK    1  A    between atoms: C_1  and  N_2
REMARK    2  A    between atoms: C_6  and  C_7
REMARK    3  A    between atoms: C_10  and  C_11
REMARK    4  A    between atoms: N_13  and  C_14
REMARK    5  A    between atoms: C_19  and  C_20
REMARK                            x       y       z     vdW  Elec       q    Type
REMARK                         _______ _______ _______ _____ _____    ______ ____
ROOT
ATOM      1  C   UNL     1       2.221   6.600  19.349  0.00  0.00    +0.000 C 
ATOM      2  O   UNL     1       2.487   6.057  20.414  0.00  0.00    +0.000 OA
ATOM      3  N   UNL     1       2.259   5.958  18.131  0.00  0.00    +0.000 N 
ATOM      4  H   UNL     1       1.986   6.465  17.301  0.00  0.00    +0.000 HD
ENDROOT
BRANCH   3   5
ATOM      5  C   UNL     1       2.591   4.547  17.928  0.00  0.00    +0.000 C 
ATOM      6  C   UNL     1       1.473   3.573  18.358  0.00  0.00    +0.000 C 
ATOM      7  N   UNL     1       1.762   2.202  17.916  0.00  0.00    +0.000 NA
ATOM      8  C   UNL     1       3.005   1.723  18.523  0.00  0.00    +0.000 C 
ATOM      9  C   UNL     1       4.204   2.621  18.202  0.00  0.00    +0.000 C 
ATOM     10  C   UNL     1       3.940   4.104  18.551  0.00  0.00    +0.000 C 
ATOM     11  H   UNL     1       1.843   2.181  16.900  0.00  0.00    +0.000 HD
BRANCH  10  12
ATOM     12  C   UNL     1       5.093   4.998  18.102  0.00  0.00    +0.000 A 
ATOM     13  C   UNL     1       5.034   5.732  16.902  0.00  0.00    +0.000 A 
ATOM     14  C   UNL     1       6.061   6.611  16.549  0.00  0.00    +0.000 A 
ATOM     15  C   UNL     1       7.155   6.762  17.391  0.00  0.00    +0.000 A 
ATOM     16  F   UNL     1       8.121   7.630  17.063  0.00  0.00    +0.000 F 
ATOM     17  C   UNL     1       7.240   6.029  18.567  0.00  0.00    +0.000 A 
ATOM     18  F   UNL     1       8.295   6.178  19.379  0.00  0.00    +0.000 F 
ATOM     19  C   UNL     1       6.220   5.149  18.927  0.00  0.00    +0.000 A 
ENDBRANCH  10  12
ENDBRANCH   3   5
BRANCH   1  23
ATOM     20  C   UNL     1       1.131  10.696  19.171  0.00  0.00    +0.000 A 
ATOM     21  C   UNL     1       0.841   9.998  20.340  0.00  0.00    +0.000 A 
ATOM     22  C   UNL     1       1.154   8.640  20.418  0.00  0.00    +0.000 A 
ATOM     23  C   UNL     1       1.760   8.013  19.331  0.00  0.00    +0.000 A 
ATOM     24  C   UNL     1       1.968   8.772  18.187  0.00  0.00    +0.000 A 
ATOM     25  N   UNL     1       1.671  10.096  18.086  0.00  0.00    +0.000 NA
BRANCH  20  31
ATOM     26  C   UNL     1      -1.436  12.210  18.197  0.00  0.00    +0.000 C 
ATOM     27  N   UNL     1      -0.181  12.790  18.622  0.00  0.00    +0.000 N 
ATOM     28  N   UNL     1      -0.064  14.137  18.608  0.00  0.00    +0.000 NA
ATOM     29  C   UNL     1       1.169  14.358  19.054  0.00  0.00    +0.000 A 
ATOM     30  C   UNL     1       1.837  13.166  19.373  0.00  0.00    +0.000 A 
ATOM     31  C   UNL     1       0.948  12.143  19.077  0.00  0.00    +0.000 A 
ENDBRANCH  20  31
ENDBRANCH   1  23
TORSDOF 4
ENDMDL
MODEL 4
REMARK VINA RESULT:      -8.7      0.691      1.165
REMARK  Name = 
REMARK  5 active torsions:
REMARK  status: ('A' for Active; 'I' for Inactive)
REMARK    1  A    between atoms: C_1  and  N_2
REMARK    2  A    between atoms: C_6  and  C_7
REMARK    3  A    between atoms: C_10  and  C_11
REMARK    4  A    between atoms: N_13  and  C_14
REMARK    5  A    between atoms: C_19  and  C_20
REMARK                            x       y       z     vdW  Elec       q    Type
REMARK                         _______ _______ _______ _____ _____    ______ ____
ROOT
ATOM      1  C   UNL     1       3.587   6.860  18.590  0.00  0.00    +0.000 C 
ATOM      2  O   UNL     1       4.047   6.207  19.517  0.00  0.00    +0.000 OA
ATOM      3  N   UNL     1       3.997   6.729  17.282  0.00  0.00    +0.000 N 
ATOM      4  H   UNL     1       3.539   7.276  16.567  0.00  0.00    +0.000 HD
ENDROOT
BRANCH   3   5
ATOM      5  C   UNL     1       5.010   5.786  16.803  0.00  0.00    +0.000 C 
ATOM      6  C   UNL     1       5.899   6.343  15.671  0.00  0.00    +0.000 C 
ATOM      7  N   UNL     1       7.035   5.452  15.399  0.00  0.00    +0.000 NA
ATOM      8  C   UNL     1       6.560   4.139  14.963  0.00  0.00    +0.000 C 
ATOM      9  C   UNL     1       5.632   3.476  15.987  0.00  0.00    +0.000 C 
ATOM     10  C   UNL     1       4.458   4.394  16.399  0.00  0.00    +0.000 C 
ATOM     11  H   UNL     1       7.600   5.354  16.242  0.00  0.00    +0.000 HD
BRANCH  10  12
ATOM     12  C   UNL     1       3.625   3.768  17.515  0.00  0.00    +0.000 A 
ATOM     13  C   UNL     1       2.222   3.686  17.432  0.00  0.00    +0.000 A 
ATOM     14  C   UNL     1       1.484   3.033  18.423  0.00  0.00    +0.000 A 
ATOM     15  C   UNL     1       2.141   2.461  19.504  0.00  0.00    +0.000 A 
ATOM     16  F   UNL     1       1.430   1.809  20.434  0.00  0.00    +0.000 F 
ATOM     17  C   UNL     1       3.522   2.552  19.612  0.00  0.00    +0.000 A 
ATOM     18  F   UNL     1       4.154   1.997  20.655  0.00  0.00    +0.000 F 
ATOM     19  C   UNL     1       4.267   3.202  18.630  0.00  0.00    +0.000 A 
ENDBRANCH  10  12
ENDBRANCH   3   5
BRANCH   1  23
ATOM     20  C   UNL     1       0.539   9.758  19.146  0.00  0.00    +0.000 A 
ATOM     21  C   UNL     1       0.859   8.937  20.225  0.00  0.00    +0.000 A 
ATOM     22  C   UNL     1       1.833   7.950  20.065  0.00  0.00    +0.000 A 
ATOM     23  C   UNL     1       2.472   7.811  18.834  0.00  0.00    +0.000 A 
ATOM     24  C   UNL     1       2.056   8.639  17.799  0.00  0.00    +0.000 A 
ATOM     25  N   UNL     1       1.110   9.608  17.930  0.00  0.00    +0.000 NA
BRANCH  20  31
ATOM     26  C   UNL     1       1.207  12.574  20.353  0.00  0.00    +0.000 C 
ATOM     27  N   UNL     1      -0.067  12.114  19.848  0.00  0.00    +0.000 N 
ATOM     28  N   UNL     1      -1.114  12.968  19.886  0.00  0.00    +0.000 NA
ATOM     29  C   UNL     1      -2.115  12.275  19.351  0.00  0.00    +0.000 A 
ATOM     30  C   UNL     1      -1.715  10.992  18.952  0.00  0.00    +0.000 A 
ATOM     31  C   UNL     1      -0.373  10.890  19.290  0.00  0.00    +0.000 A 
ENDBRANCH  20  31
ENDBRANCH   1  23
TORSDOF 4
ENDMDL
MODEL 5
REMARK VINA RESULT:      -8.7      2.666      4.141
REMARK  Name = 
REMARK  5 active torsions:
REMARK  status: ('A' for Active; 'I' for Inactive)
REMARK    1  A    between atoms: C_1  and  N_2
REMARK    2  A    between atoms: C_6  and  C_7
REMARK    3  A    between atoms: C_10  and  C_11
REMARK    4  A    between atoms: N_13  and  C_14
REMARK    5  A    between atoms: C_19  and  C_20
REMARK                            x       y       z     vdW  Elec       q    Type
REMARK                         _______ _______ _______ _____ _____    ______ ____
ROOT
ATOM      1  C   UNL     1       2.304   6.256  19.246  0.00  0.00    +0.000 C 
ATOM      2  O   UNL     1       2.515   5.789  20.358  0.00  0.00    +0.000 OA
ATOM      3  N   UNL     1       2.202   5.495  18.103  0.00  0.00    +0.000 N 
ATOM      4  H   UNL     1       1.986   5.953  17.228  0.00  0.00    +0.000 HD
ENDROOT
BRANCH   3   5
ATOM      5  C   UNL     1       2.303   4.036  18.045  0.00  0.00    +0.000 C 
ATOM      6  C   UNL     1       1.268   3.302  18.925  0.00  0.00    +0.000 C 
ATOM      7  N   UNL     1       1.261   1.859  18.647  0.00  0.00    +0.000 NA
ATOM      8  C   UNL     1       2.570   1.276  18.946  0.00  0.00    +0.000 C 
ATOM      9  C   UNL     1       3.705   1.937  18.158  0.00  0.00    +0.000 C 
ATOM     10  C   UNL     1       3.721   3.474  18.323  0.00  0.00    +0.000 C 
ATOM     11  H   UNL     1       1.028   1.703  17.666  0.00  0.00    +0.000 HD
BRANCH  10  12
ATOM     12  C   UNL     1       4.774   4.122  17.427  0.00  0.00    +0.000 A 
ATOM     13  C   UNL     1       5.892   4.788  17.963  0.00  0.00    +0.000 A 
ATOM     14  C   UNL     1       6.889   5.299  17.128  0.00  0.00    +0.000 A 
ATOM     15  C   UNL     1       6.774   5.152  15.752  0.00  0.00    +0.000 A 
ATOM     16  F   UNL     1       7.749   5.616  14.960  0.00  0.00    +0.000 F 
ATOM     17  C   UNL     1       5.667   4.517  15.206  0.00  0.00    +0.000 A 
ATOM     18  F   UNL     1       5.561   4.372  13.878  0.00  0.00    +0.000 F 
ATOM     19  C   UNL     1       4.668   4.004  16.031  0.00  0.00    +0.000 A 
ENDBRANCH  10  12
ENDBRANCH   3   5
BRANCH   1  23
ATOM     20  C   UNL     1       1.401  10.388  18.916  0.00  0.00    +0.000 A 
ATOM     21  C   UNL     1       2.006   9.767  17.826  0.00  0.00    +0.000 A 
ATOM     22  C   UNL     1       2.348   8.416  17.915  0.00  0.00    +0.000 A 
ATOM     23  C   UNL     1       2.069   7.714  19.086  0.00  0.00    +0.000 A 
ATOM     24  C   UNL     1       1.511   8.424  20.141  0.00  0.00    +0.000 A 
ATOM     25  N   UNL     1       1.169   9.740  20.079  0.00  0.00    +0.000 NA
BRANCH  20  31
ATOM     26  C   UNL     1      -1.503  11.295  18.158  0.00  0.00    +0.000 C 
ATOM     27  N   UNL     1      -0.373  12.139  18.475  0.00  0.00    +0.000 N 
ATOM     28  N   UNL     1      -0.551  13.479  18.450  0.00  0.00    +0.000 NA
ATOM     29  C   UNL     1       0.637  13.969  18.791  0.00  0.00    +0.000 A 
ATOM     30  C   UNL     1       1.570  12.955  19.055  0.00  0.00    +0.000 A 
ATOM     31  C   UNL     1       0.903  11.759  18.836  0.00  0.00    +0.000 A 
ENDBRANCH  20  31
ENDBRANCH   1  23
TORSDOF 4
ENDMDL
MODEL 6
REMARK VINA RESULT:      -8.7      2.732      4.132
REMARK  Name = 
REMARK  5 active torsions:
REMARK  status: ('A' for Active; 'I' for Inactive)
REMARK    1  A    between atoms: C_1  and  N_2
REMARK    2  A    between atoms: C_6  and  C_7
REMARK    3  A    between atoms: C_10  and  C_11
REMARK    4  A    between atoms: N_13  and  C_14
REMARK    5  A    between atoms: C_19  and  C_20
REMARK                            x       y       z     vdW  Elec       q    Type
REMARK                         _______ _______ _______ _____ _____    ______ ____
ROOT
ATOM      1  C   UNL     1       2.230   6.530  19.455  0.00  0.00    +0.000 C 
ATOM      2  O   UNL     1       2.446   5.915  20.492  0.00  0.00    +0.000 OA
ATOM      3  N   UNL     1       2.295   5.963  18.202  0.00  0.00    +0.000 N 
ATOM      4  H   UNL     1       2.063   6.527  17.396  0.00  0.00    +0.000 HD
ENDROOT
BRANCH   3   5
ATOM      5  C   UNL     1       2.601   4.559  17.922  0.00  0.00    +0.000 C 
ATOM      6  C   UNL     1       1.484   3.579  18.343  0.00  0.00    +0.000 C 
ATOM      7  N   UNL     1       1.740   2.227  17.828  0.00  0.00    +0.000 NA
ATOM      8  C   UNL     1       2.996   1.705  18.370  0.00  0.00    +0.000 C 
ATOM      9  C   UNL     1       4.196   2.602  18.052  0.00  0.00    +0.000 C 
ATOM     10  C   UNL     1       3.964   4.071  18.479  0.00  0.00    +0.000 C 
ATOM     11  H   UNL     1       1.788   2.254  16.810  0.00  0.00    +0.000 HD
BRANCH  10  12
ATOM     12  C   UNL     1       5.114   4.971  18.033  0.00  0.00    +0.000 A 
ATOM     13  C   UNL     1       5.066   5.683  16.820  0.00  0.00    +0.000 A 
ATOM     14  C   UNL     1       6.089   6.569  16.470  0.00  0.00    +0.000 A 
ATOM     15  C   UNL     1       7.167   6.747  17.327  0.00  0.00    +0.000 A 
ATOM     16  F   UNL     1       8.128   7.620  17.000  0.00  0.00    +0.000 F 
ATOM     17  C   UNL     1       7.240   6.035  18.517  0.00  0.00    +0.000 A 
ATOM     18  F   UNL     1       8.279   6.211  19.344  0.00  0.00    +0.000 F 
ATOM     19  C   UNL     1       6.225   5.149  18.875  0.00  0.00    +0.000 A 
ENDBRANCH  10  12
ENDBRANCH   3   5
BRANCH   1  23
ATOM     20  C   UNL     1       0.805  10.513  19.762  0.00  0.00    +0.000 A 
ATOM     21  C   UNL     1       1.317  10.100  18.535  0.00  0.00    +0.000 A 
ATOM     22  C   UNL     1       1.826   8.806  18.409  0.00  0.00    +0.000 A 
ATOM     23  C   UNL     1       1.803   7.952  19.510  0.00  0.00    +0.000 A 
ATOM     24  C   UNL     1       1.321   8.462  20.708  0.00  0.00    +0.000 A 
ATOM     25  N   UNL     1       0.820   9.718  20.855  0.00  0.00    +0.000 NA
BRANCH  20  31
ATOM     26  C   UNL     1       2.155  13.252  20.476  0.00  0.00    +0.000 C 
ATOM     27  N   UNL     1       0.749  12.995  20.259  0.00  0.00    +0.000 N 
ATOM     28  N   UNL     1      -0.114  14.031  20.370  0.00  0.00    +0.000 NA
ATOM     29  C   UNL     1      -1.300  13.492  20.106  0.00  0.00    +0.000 A 
ATOM     30  C   UNL     1      -1.205  12.125  19.807  0.00  0.00    +0.000 A 
ATOM     31  C   UNL     1       0.140  11.805  19.918  0.00  0.00    +0.000 A 
ENDBRANCH  20  31
ENDBRANCH   1  23
TORSDOF 4
ENDMDL
MODEL 7
REMARK VINA RESULT:      -8.7      2.527      3.924
REMARK  Name = 
REMARK  5 active torsions:
REMARK  status: ('A' for Active; 'I' for Inactive)
REMARK    1  A    between atoms: C_1  and  N_2
REMARK    2  A    between atoms: C_6  and  C_7
REMARK    3  A    between atoms: C_10  and  C_11
REMARK    4  A    between atoms: N_13  and  C_14
REMARK    5  A    between atoms: C_19  and  C_20
REMARK                            x       y       z     vdW  Elec       q    Type
REMARK                         _______ _______ _______ _____ _____    ______ ____
ROOT
ATOM      1  C   UNL     1       2.193   6.493  19.431  0.00  0.00    +0.000 C 
ATOM      2  O   UNL     1       2.344   5.901  20.492  0.00  0.00    +0.000 OA
ATOM      3  N   UNL     1       2.272   5.886  18.197  0.00  0.00    +0.000 N 
ATOM      4  H   UNL     1       2.095   6.436  17.368  0.00  0.00    +0.000 HD
ENDROOT
BRANCH   3   5
ATOM      5  C   UNL     1       2.519   4.461  17.970  0.00  0.00    +0.000 C 
ATOM      6  C   UNL     1       1.375   3.542  18.451  0.00  0.00    +0.000 C 
ATOM      7  N   UNL     1       1.570   2.162  17.987  0.00  0.00    +0.000 NA
ATOM      8  C   UNL     1       2.816   1.614  18.526  0.00  0.00    +0.000 C 
ATOM      9  C   UNL     1       4.042   2.451  18.148  0.00  0.00    +0.000 C 
ATOM     10  C   UNL     1       3.874   3.943  18.519  0.00  0.00    +0.000 C 
ATOM     11  H   UNL     1       1.597   2.146  16.968  0.00  0.00    +0.000 HD
BRANCH  10  12
ATOM     12  C   UNL     1       5.047   4.780  18.015  0.00  0.00    +0.000 A 
ATOM     13  C   UNL     1       5.103   5.251  16.689  0.00  0.00    +0.000 A 
ATOM     14  C   UNL     1       6.141   6.087  16.271  0.00  0.00    +0.000 A 
ATOM     15  C   UNL     1       7.132   6.457  17.171  0.00  0.00    +0.000 A 
ATOM     16  F   UNL     1       8.106   7.284  16.772  0.00  0.00    +0.000 F 
ATOM     17  C   UNL     1       7.103   5.984  18.476  0.00  0.00    +0.000 A 
ATOM     18  F   UNL     1       8.058   6.344  19.344  0.00  0.00    +0.000 F 
ATOM     19  C   UNL     1       6.072   5.148  18.903  0.00  0.00    +0.000 A 
ENDBRANCH  10  12
ENDBRANCH   3   5
BRANCH   1  23
ATOM     20  C   UNL     1       0.952  10.547  19.573  0.00  0.00    +0.000 A 
ATOM     21  C   UNL     1       1.483  10.072  18.376  0.00  0.00    +0.000 A 
ATOM     22  C   UNL     1       1.933   8.753  18.306  0.00  0.00    +0.000 A 
ATOM     23  C   UNL     1       1.833   7.934  19.430  0.00  0.00    +0.000 A 
ATOM     24  C   UNL     1       1.338   8.504  20.596  0.00  0.00    +0.000 A 
ATOM     25  N   UNL     1       0.893   9.786  20.689  0.00  0.00    +0.000 NA
BRANCH  20  31
ATOM     26  C   UNL     1      -2.006  11.321  18.876  0.00  0.00    +0.000 C 
ATOM     27  N   UNL     1      -0.952  12.199  19.333  0.00  0.00    +0.000 N 
ATOM     28  N   UNL     1      -1.237  13.512  19.487  0.00  0.00    +0.000 NA
ATOM     29  C   UNL     1      -0.096  14.040  19.920  0.00  0.00    +0.000 A 
ATOM     30  C   UNL     1       0.912  13.076  20.065  0.00  0.00    +0.000 A 
ATOM     31  C   UNL     1       0.345  11.873  19.669  0.00  0.00    +0.000 A 
ENDBRANCH  20  31
ENDBRANCH   1  23
TORSDOF 4
ENDMDL
MODEL 8
REMARK VINA RESULT:      -8.6      0.870      1.712
REMARK  Name = 
REMARK  5 active torsions:
REMARK  status: ('A' for Active; 'I' for Inactive)
REMARK    1  A    between atoms: C_1  and  N_2
REMARK    2  A    between atoms: C_6  and  C_7
REMARK    3  A    between atoms: C_10  and  C_11
REMARK    4  A    between atoms: N_13  and  C_14
REMARK    5  A    between atoms: C_19  and  C_20
REMARK                            x       y       z     vdW  Elec       q    Type
REMARK                         _______ _______ _______ _____ _____    ______ ____
ROOT
ATOM      1  C   UNL     1       3.687   6.742  18.568  0.00  0.00    +0.000 C 
ATOM      2  O   UNL     1       4.226   6.148  19.493  0.00  0.00    +0.000 OA
ATOM      3  N   UNL     1       4.028   6.569  17.245  0.00  0.00    +0.000 N 
ATOM      4  H   UNL     1       3.508   7.066  16.535  0.00  0.00    +0.000 HD
ENDROOT
BRANCH   3   5
ATOM      5  C   UNL     1       5.049   5.644  16.748  0.00  0.00    +0.000 C 
ATOM      6  C   UNL     1       5.904   6.216  15.597  0.00  0.00    +0.000 C 
ATOM      7  N   UNL     1       7.052   5.347  15.304  0.00  0.00    +0.000 NA
ATOM      8  C   UNL     1       6.593   4.023  14.880  0.00  0.00    +0.000 C 
ATOM      9  C   UNL     1       5.699   3.345  15.923  0.00  0.00    +0.000 C 
ATOM     10  C   UNL     1       4.516   4.241  16.357  0.00  0.00    +0.000 C 
ATOM     11  H   UNL     1       7.635   5.261  16.136  0.00  0.00    +0.000 HD
BRANCH  10  12
ATOM     12  C   UNL     1       3.717   3.602  17.491  0.00  0.00    +0.000 A 
ATOM     13  C   UNL     1       4.342   3.138  18.664  0.00  0.00    +0.000 A 
ATOM     14  C   UNL     1       3.585   2.636  19.727  0.00  0.00    +0.000 A 
ATOM     15  C   UNL     1       2.201   2.591  19.623  0.00  0.00    +0.000 A 
ATOM     16  F   UNL     1       1.481   2.138  20.657  0.00  0.00    +0.000 F 
ATOM     17  C   UNL     1       1.571   3.024  18.464  0.00  0.00    +0.000 A 
ATOM     18  F   UNL     1       0.235   2.982  18.368  0.00  0.00    +0.000 F 
ATOM     19  C   UNL     1       2.317   3.526  17.399  0.00  0.00    +0.000 A 
ENDBRANCH  10  12
ENDBRANCH   3   5
BRANCH   1  23
ATOM     20  C   UNL     1       0.572   9.553  19.196  0.00  0.00    +0.000 A 
ATOM     21  C   UNL     1       0.922   8.723  20.259  0.00  0.00    +0.000 A 
ATOM     22  C   UNL     1       1.919   7.763  20.075  0.00  0.00    +0.000 A 
ATOM     23  C   UNL     1       2.551   7.661  18.837  0.00  0.00    +0.000 A 
ATOM     24  C   UNL     1       2.106   8.494  17.818  0.00  0.00    +0.000 A 
ATOM     25  N   UNL     1       1.137   9.436  17.973  0.00  0.00    +0.000 NA
BRANCH  20  31
ATOM     26  C   UNL     1       1.110  12.273  20.660  0.00  0.00    +0.000 C 
ATOM     27  N   UNL     1      -0.120  11.838  20.036  0.00  0.00    +0.000 N 
ATOM     28  N   UNL     1      -1.182  12.674  20.070  0.00  0.00    +0.000 NA
ATOM     29  C   UNL     1      -2.133  12.013  19.417  0.00  0.00    +0.000 A 
ATOM     30  C   UNL     1      -1.685  10.770  18.947  0.00  0.00    +0.000 A 
ATOM     31  C   UNL     1      -0.367  10.659  19.366  0.00  0.00    +0.000 A 
ENDBRANCH  20  31
ENDBRANCH   1  23
TORSDOF 4
ENDMDL
MODEL 9
REMARK VINA RESULT:      -8.6      2.762      4.304
REMARK  Name = 
REMARK  5 active torsions:
REMARK  status: ('A' for Active; 'I' for Inactive)
REMARK    1  A    between atoms: C_1  and  N_2
REMARK    2  A    between atoms: C_6  and  C_7
REMARK    3  A    between atoms: C_10  and  C_11
REMARK    4  A    between atoms: N_13  and  C_14
REMARK    5  A    between atoms: C_19  and  C_20
REMARK                            x       y       z     vdW  Elec       q    Type
REMARK                         _______ _______ _______ _____ _____    ______ ____
ROOT
ATOM      1  C   UNL     1       2.410   6.259  19.168  0.00  0.00    +0.000 C 
ATOM      2  O   UNL     1       2.838   5.836  20.233  0.00  0.00    +0.000 OA
ATOM      3  N   UNL     1       2.133   5.459  18.081  0.00  0.00    +0.000 N 
ATOM      4  H   UNL     1       1.743   5.880  17.250  0.00  0.00    +0.000 HD
ENDROOT
BRANCH   3   5
ATOM      5  C   UNL     1       2.280   4.003  18.043  0.00  0.00    +0.000 C 
ATOM      6  C   UNL     1       1.280   3.249  18.946  0.00  0.00    +0.000 C 
ATOM      7  N   UNL     1       1.316   1.803  18.688  0.00  0.00    +0.000 NA
ATOM      8  C   UNL     1       2.646   1.266  18.980  0.00  0.00    +0.000 C 
ATOM      9  C   UNL     1       3.751   1.952  18.170  0.00  0.00    +0.000 C 
ATOM     10  C   UNL     1       3.719   3.491  18.313  0.00  0.00    +0.000 C 
ATOM     11  H   UNL     1       1.077   1.625  17.713  0.00  0.00    +0.000 HD
BRANCH  10  12
ATOM     12  C   UNL     1       4.740   4.160  17.395  0.00  0.00    +0.000 A 
ATOM     13  C   UNL     1       5.794   4.939  17.907  0.00  0.00    +0.000 A 
ATOM     14  C   UNL     1       6.769   5.471  17.058  0.00  0.00    +0.000 A 
ATOM     15  C   UNL     1       6.694   5.231  15.692  0.00  0.00    +0.000 A 
ATOM     16  F   UNL     1       7.648   5.717  14.888  0.00  0.00    +0.000 F 
ATOM     17  C   UNL     1       5.648   4.483  15.169  0.00  0.00    +0.000 A 
ATOM     18  F   UNL     1       5.580   4.251  13.850  0.00  0.00    +0.000 F 
ATOM     19  C   UNL     1       4.672   3.949  16.008  0.00  0.00    +0.000 A 
ENDBRANCH  10  12
ENDBRANCH   3   5
BRANCH   1  23
ATOM     20  C   UNL     1       1.275  10.336  18.870  0.00  0.00    +0.000 A 
ATOM     21  C   UNL     1       1.874   9.747  17.760  0.00  0.00    +0.000 A 
ATOM     22  C   UNL     1       2.292   8.417  17.836  0.00  0.00    +0.000 A 
ATOM     23  C   UNL     1       2.092   7.703  19.016  0.00  0.00    +0.000 A 
ATOM     24  C   UNL     1       1.532   8.383  20.090  0.00  0.00    +0.000 A 
ATOM     25  N   UNL     1       1.118   9.678  20.041  0.00  0.00    +0.000 NA
BRANCH  20  31
ATOM     26  C   UNL     1       2.815  13.024  18.385  0.00  0.00    +0.000 C 
ATOM     27  N   UNL     1       1.399  12.852  18.619  0.00  0.00    +0.000 N 
ATOM     28  N   UNL     1       0.617  13.955  18.640  0.00  0.00    +0.000 NA
ATOM     29  C   UNL     1      -0.606  13.480  18.858  0.00  0.00    +0.000 A 
ATOM     30  C   UNL     1      -0.619  12.082  18.956  0.00  0.00    +0.000 A 
ATOM     31  C   UNL     1       0.700  11.678  18.808  0.00  0.00    +0.000 A 
ENDBRANCH  20  31
ENDBRANCH   1  23
TORSDOF 4
ENDMDL
