MODEL 1
REMARK VINA RESULT:      -9.0      0.000      0.000
REMARK  Name = 
REMARK  7 active torsions:
REMARK  status: ('A' for Active; 'I' for Inactive)
REMARK    1  A    between atoms: C_1  and  C_2
REMARK    2  A    between atoms: C_2  and  N_3
REMARK    3  A    between atoms: C_2  and  C_24
REMARK    4  A    between atoms: C_7  and  C_8
REMARK    5  A    between atoms: C_10  and  C_11
REMARK    6  A    between atoms: C_16  and  C_17
REMARK    7  A    between atoms: N_22  and  C_23
REMARK                            x       y       z     vdW  Elec       q    Type
REMARK                         _______ _______ _______ _____ _____    ______ ____
ROOT
ATOM      1  N   UNL     1       0.557   9.630  19.662  0.00  0.00    +0.000 N 
ATOM      2  C   UNL     1       1.485   9.066  18.861  0.00  0.00    +0.000 A 
ATOM      3  N   UNL     1       1.964   9.493  17.722  0.00  0.00    +0.000 NA
ATOM      4  C   UNL     1       2.798   8.498  17.282  0.00  0.00    +0.000 A 
ATOM      5  C   UNL     1       2.888   7.450  18.187  0.00  0.00    +0.000 A 
ATOM      6  N   UNL     1       2.058   7.859  19.219  0.00  0.00    +0.000 N 
ATOM      7  C   UNL     1       1.831   7.223  20.495  0.00  0.00    +0.000 C 
ATOM      8  H   UNL     1      -0.272   9.050  19.779  0.00  0.00    +0.000 HD
ENDROOT
BRANCH   5   9
ATOM      9  C   UNL     1       3.618   6.182  18.087  0.00  0.00    +0.000 A 
ATOM     10  C   UNL     1       3.001   4.950  18.342  0.00  0.00    +0.000 A 
ATOM     11  C   UNL     1       3.676   3.734  18.147  0.00  0.00    +0.000 A 
ATOM     12  C   UNL     1       5.024   3.760  17.755  0.00  0.00    +0.000 A 
ATOM     13  C   UNL     1       5.689   4.979  17.560  0.00  0.00    +0.000 A 
ATOM     14  C   UNL     1       4.972   6.180  17.719  0.00  0.00    +0.000 A 
BRANCH  11  15
ATOM     15  C   UNL     1       2.966   2.415  18.345  0.00  0.00    +0.000 C 
ATOM     16  F   UNL     1       1.817   2.305  17.623  0.00  0.00    +0.000 F 
ATOM     17  F   UNL     1       3.736   1.354  17.979  0.00  0.00    +0.000 F 
ATOM     18  F   UNL     1       2.619   2.200  19.642  0.00  0.00    +0.000 F 
ENDBRANCH  11  15
BRANCH  13  19
ATOM     19  C   UNL     1       7.152   5.021  17.186  0.00  0.00    +0.000 C 
ATOM     20  F   UNL     1       7.635   6.285  17.030  0.00  0.00    +0.000 F 
ATOM     21  F   UNL     1       7.949   4.428  18.116  0.00  0.00    +0.000 F 
ATOM     22  F   UNL     1       7.404   4.379  16.010  0.00  0.00    +0.000 F 
ENDBRANCH  13  19
ENDBRANCH   5   9
BRANCH   1  24
ATOM     23  C   UNL     1       0.182  11.792  20.806  0.00  0.00    +0.000 C 
ATOM     24  C   UNL     1       0.150  11.023  19.482  0.00  0.00    +0.000 C 
BRANCH  24  25
ATOM     25  C   UNL     1      -1.276  10.990  18.929  0.00  0.00    +0.000 A 
ATOM     26  C   UNL     1      -2.245  11.892  19.389  0.00  0.00    +0.000 A 
ATOM     27  C   UNL     1      -3.525  11.904  18.828  0.00  0.00    +0.000 A 
ATOM     28  C   UNL     1      -3.851  11.016  17.803  0.00  0.00    +0.000 A 
ATOM     29  C   UNL     1      -2.904  10.104  17.345  0.00  0.00    +0.000 A 
ATOM     30  C   UNL     1      -1.629  10.088  17.906  0.00  0.00    +0.000 A 
ENDBRANCH  24  25
ENDBRANCH   1  24
TORSDOF 5
ENDMDL
MODEL 2
REMARK VINA RESULT:      -8.9      0.365      1.335
REMARK  Name = 
REMARK  7 active torsions:
REMARK  status: ('A' for Active; 'I' for Inactive)
REMARK    1  A    between atoms: C_1  and  C_2
REMARK    2  A    between atoms: C_2  and  N_3
REMARK    3  A    between atoms: C_2  and  C_24
REMARK    4  A    between atoms: C_7  and  C_8
REMARK    5  A    between atoms: C_10  and  C_11
REMARK    6  A    between atoms: C_16  and  C_17
REMARK    7  A    between atoms: N_22  and  C_23
REMARK                            x       y       z     vdW  Elec       q    Type
REMARK                         _______ _______ _______ _____ _____    ______ ____
ROOT
ATOM      1  N   UNL     1       0.439   9.687  19.663  0.00  0.00    +0.000 N 
ATOM      2  C   UNL     1       1.389   9.124  18.887  0.00  0.00    +0.000 A 
ATOM      3  N   UNL     1       1.869   9.532  17.742  0.00  0.00    +0.000 NA
ATOM      4  C   UNL     1       2.731   8.545  17.338  0.00  0.00    +0.000 A 
ATOM      5  C   UNL     1       2.836   7.524  18.273  0.00  0.00    +0.000 A 
ATOM      6  N   UNL     1       1.986   7.942  19.284  0.00  0.00    +0.000 N 
ATOM      7  C   UNL     1       1.760   7.335  20.574  0.00  0.00    +0.000 C 
ATOM      8  H   UNL     1      -0.377   9.092  19.788  0.00  0.00    +0.000 HD
ENDROOT
BRANCH   5   9
ATOM      9  C   UNL     1       3.596   6.271  18.214  0.00  0.00    +0.000 A 
ATOM     10  C   UNL     1       2.983   5.024  18.391  0.00  0.00    +0.000 A 
ATOM     11  C   UNL     1       3.697   3.824  18.235  0.00  0.00    +0.000 A 
ATOM     12  C   UNL     1       5.073   3.882  17.965  0.00  0.00    +0.000 A 
ATOM     13  C   UNL     1       5.730   5.116  17.852  0.00  0.00    +0.000 A 
ATOM     14  C   UNL     1       4.977   6.301  17.968  0.00  0.00    +0.000 A 
BRANCH  11  15
ATOM     15  C   UNL     1       2.998   2.489  18.345  0.00  0.00    +0.000 C 
ATOM     16  F   UNL     1       2.092   2.435  19.361  0.00  0.00    +0.000 F 
ATOM     17  F   UNL     1       2.307   2.174  17.215  0.00  0.00    +0.000 F 
ATOM     18  F   UNL     1       3.864   1.463  18.557  0.00  0.00    +0.000 F 
ENDBRANCH  11  15
BRANCH  13  19
ATOM     19  C   UNL     1       7.219   5.191  17.611  0.00  0.00    +0.000 C 
ATOM     20  F   UNL     1       7.681   4.218  16.778  0.00  0.00    +0.000 F 
ATOM     21  F   UNL     1       7.601   6.373  17.053  0.00  0.00    +0.000 F 
ATOM     22  F   UNL     1       7.936   5.068  18.762  0.00  0.00    +0.000 F 
ENDBRANCH  13  19
ENDBRANCH   5   9
BRANCH   1  24
ATOM     23  C   UNL     1      -0.093  11.843  20.757  0.00  0.00    +0.000 C 
ATOM     24  C   UNL     1       0.001  11.065  19.441  0.00  0.00    +0.000 C 
BRANCH  24  25
ATOM     25  C   UNL     1      -1.376  10.981  18.781  0.00  0.00    +0.000 A 
ATOM     26  C   UNL     1      -1.670   9.964  17.862  0.00  0.00    +0.000 A 
ATOM     27  C   UNL     1      -2.952   9.851  17.318  0.00  0.00    +0.000 A 
ATOM     28  C   UNL     1      -3.953  10.750  17.685  0.00  0.00    +0.000 A 
ATOM     29  C   UNL     1      -3.673  11.774  18.585  0.00  0.00    +0.000 A 
ATOM     30  C   UNL     1      -2.394  11.892  19.126  0.00  0.00    +0.000 A 
ENDBRANCH  24  25
ENDBRANCH   1  24
TORSDOF 5
ENDMDL
MODEL 3
REMARK VINA RESULT:      -8.9      0.921      1.385
REMARK  Name = 
REMARK  7 active torsions:
REMARK  status: ('A' for Active; 'I' for Inactive)
REMARK    1  A    between atoms: C_1  and  C_2
REMARK    2  A    between atoms: C_2  and  N_3
REMARK    3  A    between atoms: C_2  and  C_24
REMARK    4  A    between atoms: C_7  and  C_8
REMARK    5  A    between atoms: C_10  and  C_11
REMARK    6  A    between atoms: C_16  and  C_17
REMARK    7  A    between atoms: N_22  and  C_23
REMARK                            x       y       z     vdW  Elec       q    Type
REMARK                         _______ _______ _______ _____ _____    ______ ____
ROOT
ATOM      1  N   UNL     1       0.358   9.823  19.487  0.00  0.00    +0.000 N 
ATOM      2  C   UNL     1       1.329   9.158  18.828  0.00  0.00    +0.000 A 
ATOM      3  N   UNL     1       1.840   9.396  17.648  0.00  0.00    +0.000 NA
ATOM      4  C   UNL     1       2.714   8.365  17.416  0.00  0.00    +0.000 A 
ATOM      5  C   UNL     1       2.795   7.494  18.493  0.00  0.00    +0.000 A 
ATOM      6  N   UNL     1       1.918   8.050  19.409  0.00  0.00    +0.000 N 
ATOM      7  C   UNL     1       1.658   7.638  20.768  0.00  0.00    +0.000 C 
ATOM      8  H   UNL     1      -0.460   9.248  19.676  0.00  0.00    +0.000 HD
ENDROOT
BRANCH   5   9
ATOM      9  C   UNL     1       3.559   6.250  18.639  0.00  0.00    +0.000 A 
ATOM     10  C   UNL     1       3.134   5.214  19.480  0.00  0.00    +0.000 A 
ATOM     11  C   UNL     1       3.815   3.987  19.540  0.00  0.00    +0.000 A 
ATOM     12  C   UNL     1       4.991   3.825  18.790  0.00  0.00    +0.000 A 
ATOM     13  C   UNL     1       5.481   4.870  17.992  0.00  0.00    +0.000 A 
ATOM     14  C   UNL     1       4.750   6.070  17.919  0.00  0.00    +0.000 A 
BRANCH  11  15
ATOM     15  C   UNL     1       3.291   2.852  20.389  0.00  0.00    +0.000 C 
ATOM     16  F   UNL     1       2.628   3.270  21.502  0.00  0.00    +0.000 F 
ATOM     17  F   UNL     1       2.413   2.063  19.710  0.00  0.00    +0.000 F 
ATOM     18  F   UNL     1       4.280   2.027  20.825  0.00  0.00    +0.000 F 
ENDBRANCH  11  15
BRANCH  13  19
ATOM     19  C   UNL     1       6.771   4.725  17.220  0.00  0.00    +0.000 C 
ATOM     20  F   UNL     1       6.678   3.864  16.168  0.00  0.00    +0.000 F 
ATOM     21  F   UNL     1       7.206   5.905  16.700  0.00  0.00    +0.000 F 
ATOM     22  F   UNL     1       7.788   4.256  17.995  0.00  0.00    +0.000 F 
ENDBRANCH  13  19
ENDBRANCH   5   9
BRANCH   1  24
ATOM     23  C   UNL     1      -0.111  12.140  20.222  0.00  0.00    +0.000 C 
ATOM     24  C   UNL     1      -0.076  11.151  19.054  0.00  0.00    +0.000 C 
BRANCH  24  25
ATOM     25  C   UNL     1      -1.480  10.979  18.470  0.00  0.00    +0.000 A 
ATOM     26  C   UNL     1      -2.550  11.753  18.938  0.00  0.00    +0.000 A 
ATOM     27  C   UNL     1      -3.814  11.642  18.351  0.00  0.00    +0.000 A 
ATOM     28  C   UNL     1      -4.021  10.758  17.292  0.00  0.00    +0.000 A 
ATOM     29  C   UNL     1      -2.972   9.973  16.825  0.00  0.00    +0.000 A 
ATOM     30  C   UNL     1      -1.712  10.078  17.412  0.00  0.00    +0.000 A 
ENDBRANCH  24  25
ENDBRANCH   1  24
TORSDOF 5
ENDMDL
MODEL 4
REMARK VINA RESULT:      -8.9      0.943      1.500
REMARK  Name = 
REMARK  7 active torsions:
REMARK  status: ('A' for Active; 'I' for Inactive)
REMARK    1  A    between atoms: C_1  and  C_2
REMARK    2  A    between atoms: C_2  and  N_3
REMARK    3  A    between atoms: C_2  and  C_24
REMARK    4  A    between atoms: C_7  and  C_8
REMARK    5  A    between atoms: C_10  and  C_11
REMARK    6  A    between atoms: C_16  and  C_17
REMARK    7  A    between atoms: N_22  and  C_23
REMARK                            x       y       z     vdW  Elec       q    Type
REMARK                         _______ _______ _______ _____ _____    ______ ____
ROOT
ATOM      1  N   UNL     1       0.346   9.877  19.500  0.00  0.00    +0.000 N 
ATOM      2  C   UNL     1       1.310   9.203  18.840  0.00  0.00    +0.000 A 
ATOM      3  N   UNL     1       1.822   9.436  17.660  0.00  0.00    +0.000 NA
ATOM      4  C   UNL     1       2.686   8.397  17.428  0.00  0.00    +0.000 A 
ATOM      5  C   UNL     1       2.760   7.525  18.504  0.00  0.00    +0.000 A 
ATOM      6  N   UNL     1       1.889   8.089  19.421  0.00  0.00    +0.000 N 
ATOM      7  C   UNL     1       1.627   7.680  20.781  0.00  0.00    +0.000 C 
ATOM      8  H   UNL     1      -0.477   9.310  19.691  0.00  0.00    +0.000 HD
ENDROOT
BRANCH   5   9
ATOM      9  C   UNL     1       3.513   6.274  18.650  0.00  0.00    +0.000 A 
ATOM     10  C   UNL     1       3.088   5.250  19.505  0.00  0.00    +0.000 A 
ATOM     11  C   UNL     1       3.757   4.016  19.566  0.00  0.00    +0.000 A 
ATOM     12  C   UNL     1       4.920   3.836  18.801  0.00  0.00    +0.000 A 
ATOM     13  C   UNL     1       5.410   4.868  17.988  0.00  0.00    +0.000 A 
ATOM     14  C   UNL     1       4.691   6.076  17.915  0.00  0.00    +0.000 A 
BRANCH  11  15
ATOM     15  C   UNL     1       3.232   2.893  20.431  0.00  0.00    +0.000 C 
ATOM     16  F   UNL     1       2.578   3.328  21.543  0.00  0.00    +0.000 F 
ATOM     17  F   UNL     1       2.347   2.101  19.766  0.00  0.00    +0.000 F 
ATOM     18  F   UNL     1       4.220   2.069  20.872  0.00  0.00    +0.000 F 
ENDBRANCH  11  15
BRANCH  13  19
ATOM     19  C   UNL     1       6.688   4.703  17.199  0.00  0.00    +0.000 C 
ATOM     20  F   UNL     1       7.126   5.861  16.631  0.00  0.00    +0.000 F 
ATOM     21  F   UNL     1       7.719   4.246  17.960  0.00  0.00    +0.000 F 
ATOM     22  F   UNL     1       6.552   3.814  16.175  0.00  0.00    +0.000 F 
ENDBRANCH  13  19
ENDBRANCH   5   9
BRANCH   1  24
ATOM     23  C   UNL     1      -0.103  12.198  20.236  0.00  0.00    +0.000 C 
ATOM     24  C   UNL     1      -0.077  11.209  19.067  0.00  0.00    +0.000 C 
BRANCH  24  25
ATOM     25  C   UNL     1      -1.481  11.049  18.483  0.00  0.00    +0.000 A 
ATOM     26  C   UNL     1      -1.745  10.079  17.506  0.00  0.00    +0.000 A 
ATOM     27  C   UNL     1      -3.045   9.891  17.029  0.00  0.00    +0.000 A 
ATOM     28  C   UNL     1      -4.094  10.667  17.522  0.00  0.00    +0.000 A 
ATOM     29  C   UNL     1      -3.845  11.644  18.481  0.00  0.00    +0.000 A 
ATOM     30  C   UNL     1      -2.549  11.837  18.955  0.00  0.00    +0.000 A 
ENDBRANCH  24  25
ENDBRANCH   1  24
TORSDOF 5
ENDMDL
MODEL 5
REMARK VINA RESULT:      -8.9      1.510      2.061
REMARK  Name = 
REMARK  7 active torsions:
REMARK  status: ('A' for Active; 'I' for Inactive)
REMARK    1  A    between atoms: C_1  and  C_2
REMARK    2  A    between atoms: C_2  and  N_3
REMARK    3  A    between atoms: C_2  and  C_24
REMARK    4  A    between atoms: C_7  and  C_8
REMARK    5  A    between atoms: C_10  and  C_11
REMARK    6  A    between atoms: C_16  and  C_17
REMARK    7  A    between atoms: N_22  and  C_23
REMARK                            x       y       z     vdW  Elec       q    Type
REMARK                         _______ _______ _______ _____ _____    ______ ____
ROOT
ATOM      1  N   UNL     1       0.467   9.995  20.217  0.00  0.00    +0.000 N 
ATOM      2  C   UNL     1       1.247   9.378  19.305  0.00  0.00    +0.000 A 
ATOM      3  N   UNL     1       1.623   9.793  18.124  0.00  0.00    +0.000 NA
ATOM      4  C   UNL     1       2.317   8.746  17.575  0.00  0.00    +0.000 A 
ATOM      5  C   UNL     1       2.427   7.674  18.449  0.00  0.00    +0.000 A 
ATOM      6  N   UNL     1       1.759   8.123  19.576  0.00  0.00    +0.000 N 
ATOM      7  C   UNL     1       1.630   7.477  20.862  0.00  0.00    +0.000 C 
ATOM      8  H   UNL     1      -0.387   9.480  20.424  0.00  0.00    +0.000 HD
ENDROOT
BRANCH   5   9
ATOM      9  C   UNL     1       3.036   6.355  18.246  0.00  0.00    +0.000 A 
ATOM     10  C   UNL     1       2.317   5.169  18.446  0.00  0.00    +0.000 A 
ATOM     11  C   UNL     1       2.874   3.913  18.154  0.00  0.00    +0.000 A 
ATOM     12  C   UNL     1       4.206   3.845  17.719  0.00  0.00    +0.000 A 
ATOM     13  C   UNL     1       4.974   5.010  17.576  0.00  0.00    +0.000 A 
ATOM     14  C   UNL     1       4.373   6.257  17.833  0.00  0.00    +0.000 A 
BRANCH  11  15
ATOM     15  C   UNL     1       2.053   2.652  18.295  0.00  0.00    +0.000 C 
ATOM     16  F   UNL     1       0.712   2.884  18.364  0.00  0.00    +0.000 F 
ATOM     17  F   UNL     1       2.228   1.802  17.246  0.00  0.00    +0.000 F 
ATOM     18  F   UNL     1       2.372   1.944  19.411  0.00  0.00    +0.000 F 
ENDBRANCH  11  15
BRANCH  13  19
ATOM     19  C   UNL     1       6.423   4.945  17.155  0.00  0.00    +0.000 C 
ATOM     20  F   UNL     1       6.933   6.153  16.784  0.00  0.00    +0.000 F 
ATOM     21  F   UNL     1       7.237   4.485  18.145  0.00  0.00    +0.000 F 
ATOM     22  F   UNL     1       6.617   4.116  16.091  0.00  0.00    +0.000 F 
ENDBRANCH  13  19
ENDBRANCH   5   9
BRANCH   1  24
ATOM     23  C   UNL     1       1.364  12.289  20.461  0.00  0.00    +0.000 C 
ATOM     24  C   UNL     1       0.155  11.419  20.106  0.00  0.00    +0.000 C 
BRANCH  24  25
ATOM     25  C   UNL     1      -0.990  11.690  21.084  0.00  0.00    +0.000 A 
ATOM     26  C   UNL     1      -0.942  11.201  22.397  0.00  0.00    +0.000 A 
ATOM     27  C   UNL     1      -1.957  11.513  23.306  0.00  0.00    +0.000 A 
ATOM     28  C   UNL     1      -3.029  12.315  22.914  0.00  0.00    +0.000 A 
ATOM     29  C   UNL     1      -3.098  12.796  21.610  0.00  0.00    +0.000 A 
ATOM     30  C   UNL     1      -2.090  12.483  20.701  0.00  0.00    +0.000 A 
ENDBRANCH  24  25
ENDBRANCH   1  24
TORSDOF 5
ENDMDL
MODEL 6
REMARK VINA RESULT:      -8.9      0.391      3.280
REMARK  Name = 
REMARK  7 active torsions:
REMARK  status: ('A' for Active; 'I' for Inactive)
REMARK    1  A    between atoms: C_1  and  C_2
REMARK    2  A    between atoms: C_2  and  N_3
REMARK    3  A    between atoms: C_2  and  C_24
REMARK    4  A    between atoms: C_7  and  C_8
REMARK    5  A    between atoms: C_10  and  C_11
REMARK    6  A    between atoms: C_16  and  C_17
REMARK    7  A    between atoms: N_22  and  C_23
REMARK                            x       y       z     vdW  Elec       q    Type
REMARK                         _______ _______ _______ _____ _____    ______ ____
ROOT
ATOM      1  N   UNL     1       0.426   9.695  19.642  0.00  0.00    +0.000 N 
ATOM      2  C   UNL     1       1.375   9.163  18.844  0.00  0.00    +0.000 A 
ATOM      3  N   UNL     1       1.828   9.598  17.697  0.00  0.00    +0.000 NA
ATOM      4  C   UNL     1       2.705   8.636  17.266  0.00  0.00    +0.000 A 
ATOM      5  C   UNL     1       2.847   7.605  18.184  0.00  0.00    +0.000 A 
ATOM      6  N   UNL     1       2.005   7.989  19.214  0.00  0.00    +0.000 N 
ATOM      7  C   UNL     1       1.812   7.360  20.499  0.00  0.00    +0.000 C 
ATOM      8  H   UNL     1      -0.375   9.080  19.772  0.00  0.00    +0.000 HD
ENDROOT
BRANCH   5   9
ATOM      9  C   UNL     1       3.634   6.370  18.096  0.00  0.00    +0.000 A 
ATOM     10  C   UNL     1       5.020   6.388  17.898  0.00  0.00    +0.000 A 
ATOM     11  C   UNL     1       5.782   5.207  17.913  0.00  0.00    +0.000 A 
ATOM     12  C   UNL     1       5.123   3.977  18.062  0.00  0.00    +0.000 A 
ATOM     13  C   UNL     1       3.728   3.921  18.192  0.00  0.00    +0.000 A 
ATOM     14  C   UNL     1       2.999   5.125  18.218  0.00  0.00    +0.000 A 
BRANCH  11  15
ATOM     15  C   UNL     1       7.286   5.256  17.784  0.00  0.00    +0.000 C 
ATOM     16  F   UNL     1       7.935   5.211  18.981  0.00  0.00    +0.000 F 
ATOM     17  F   UNL     1       7.776   4.214  17.058  0.00  0.00    +0.000 F 
ATOM     18  F   UNL     1       7.720   6.385  17.162  0.00  0.00    +0.000 F 
ENDBRANCH  11  15
BRANCH  13  19
ATOM     19  C   UNL     1       3.004   2.600  18.303  0.00  0.00    +0.000 C 
ATOM     20  F   UNL     1       1.791   2.595  17.684  0.00  0.00    +0.000 F 
ATOM     21  F   UNL     1       3.707   1.570  17.758  0.00  0.00    +0.000 F 
ATOM     22  F   UNL     1       2.763   2.250  19.598  0.00  0.00    +0.000 F 
ENDBRANCH  13  19
ENDBRANCH   5   9
BRANCH   1  24
ATOM     23  C   UNL     1      -0.085  11.840  20.767  0.00  0.00    +0.000 C 
ATOM     24  C   UNL     1      -0.046  11.065  19.447  0.00  0.00    +0.000 C 
BRANCH  24  25
ATOM     25  C   UNL     1      -1.454  10.959  18.859  0.00  0.00    +0.000 A 
ATOM     26  C   UNL     1      -2.456  11.867  19.229  0.00  0.00    +0.000 A 
ATOM     27  C   UNL     1      -3.720  11.809  18.635  0.00  0.00    +0.000 A 
ATOM     28  C   UNL     1      -3.995  10.845  17.665  0.00  0.00    +0.000 A 
ATOM     29  C   UNL     1      -3.016   9.928  17.296  0.00  0.00    +0.000 A 
ATOM     30  C   UNL     1      -1.757   9.981  17.891  0.00  0.00    +0.000 A 
ENDBRANCH  24  25
ENDBRANCH   1  24
TORSDOF 5
ENDMDL
MODEL 7
REMARK VINA RESULT:      -8.8      1.509      3.845
REMARK  Name = 
REMARK  7 active torsions:
REMARK  status: ('A' for Active; 'I' for Inactive)
REMARK    1  A    between atoms: C_1  and  C_2
REMARK    2  A    between atoms: C_2  and  N_3
REMARK    3  A    between atoms: C_2  and  C_24
REMARK    4  A    between atoms: C_7  and  C_8
REMARK    5  A    between atoms: C_10  and  C_11
REMARK    6  A    between atoms: C_16  and  C_17
REMARK    7  A    between atoms: N_22  and  C_23
REMARK                            x       y       z     vdW  Elec       q    Type
REMARK                         _______ _______ _______ _____ _____    ______ ____
ROOT
ATOM      1  N   UNL     1       0.502  10.051  20.211  0.00  0.00    +0.000 N 
ATOM      2  C   UNL     1       1.256   9.451  19.267  0.00  0.00    +0.000 A 
ATOM      3  N   UNL     1       1.587   9.882  18.078  0.00  0.00    +0.000 NA
ATOM      4  C   UNL     1       2.272   8.847  17.495  0.00  0.00    +0.000 A 
ATOM      5  C   UNL     1       2.422   7.767  18.354  0.00  0.00    +0.000 A 
ATOM      6  N   UNL     1       1.788   8.198  19.508  0.00  0.00    +0.000 N 
ATOM      7  C   UNL     1       1.709   7.538  20.790  0.00  0.00    +0.000 C 
ATOM      8  H   UNL     1      -0.340   9.526  20.441  0.00  0.00    +0.000 HD
ENDROOT
BRANCH   5   9
ATOM      9  C   UNL     1       3.035   6.456  18.116  0.00  0.00    +0.000 A 
ATOM     10  C   UNL     1       4.370   6.324  17.716  0.00  0.00    +0.000 A 
ATOM     11  C   UNL     1       4.980   5.065  17.586  0.00  0.00    +0.000 A 
ATOM     12  C   UNL     1       4.208   3.912  17.796  0.00  0.00    +0.000 A 
ATOM     13  C   UNL     1       2.850   4.010  18.130  0.00  0.00    +0.000 A 
ATOM     14  C   UNL     1       2.280   5.287  18.297  0.00  0.00    +0.000 A 
BRANCH  11  15
ATOM     15  C   UNL     1       6.445   4.948  17.237  0.00  0.00    +0.000 C 
ATOM     16  F   UNL     1       6.970   6.091  16.713  0.00  0.00    +0.000 F 
ATOM     17  F   UNL     1       7.213   4.652  18.321  0.00  0.00    +0.000 F 
ATOM     18  F   UNL     1       6.687   3.969  16.324  0.00  0.00    +0.000 F 
ENDBRANCH  11  15
BRANCH  13  19
ATOM     19  C   UNL     1       1.997   2.776  18.311  0.00  0.00    +0.000 C 
ATOM     20  F   UNL     1       2.187   2.158  19.509  0.00  0.00    +0.000 F 
ATOM     21  F   UNL     1       0.665   3.043  18.235  0.00  0.00    +0.000 F 
ATOM     22  F   UNL     1       2.247   1.831  17.361  0.00  0.00    +0.000 F 
ENDBRANCH  13  19
ENDBRANCH   5   9
BRANCH   1  24
ATOM     23  C   UNL     1       1.368  12.351  20.510  0.00  0.00    +0.000 C 
ATOM     24  C   UNL     1       0.173  11.474  20.126  0.00  0.00    +0.000 C 
BRANCH  24  25
ATOM     25  C   UNL     1      -0.986  11.710  21.096  0.00  0.00    +0.000 A 
ATOM     26  C   UNL     1      -0.914  11.260  22.421  0.00  0.00    +0.000 A 
ATOM     27  C   UNL     1      -1.945  11.542  23.322  0.00  0.00    +0.000 A 
ATOM     28  C   UNL     1      -3.056  12.277  22.909  0.00  0.00    +0.000 A 
ATOM     29  C   UNL     1      -3.148  12.719  21.593  0.00  0.00    +0.000 A 
ATOM     30  C   UNL     1      -2.124  12.435  20.692  0.00  0.00    +0.000 A 
ENDBRANCH  24  25
ENDBRANCH   1  24
TORSDOF 5
ENDMDL
MODEL 8
REMARK VINA RESULT:      -8.8      1.516      3.862
REMARK  Name = 
REMARK  7 active torsions:
REMARK  status: ('A' for Active; 'I' for Inactive)
REMARK    1  A    between atoms: C_1  and  C_2
REMARK    2  A    between atoms: C_2  and  N_3
REMARK    3  A    between atoms: C_2  and  C_24
REMARK    4  A    between atoms: C_7  and  C_8
REMARK    5  A    between atoms: C_10  and  C_11
REMARK    6  A    between atoms: C_16  and  C_17
REMARK    7  A    between atoms: N_22  and  C_23
REMARK                            x       y       z     vdW  Elec       q    Type
REMARK                         _______ _______ _______ _____ _____    ______ ____
ROOT
ATOM      1  N   UNL     1       0.507  10.039  20.212  0.00  0.00    +0.000 N 
ATOM      2  C   UNL     1       1.254   9.440  19.262  0.00  0.00    +0.000 A 
ATOM      3  N   UNL     1       1.577   9.871  18.070  0.00  0.00    +0.000 NA
ATOM      4  C   UNL     1       2.258   8.836  17.483  0.00  0.00    +0.000 A 
ATOM      5  C   UNL     1       2.414   7.756  18.340  0.00  0.00    +0.000 A 
ATOM      6  N   UNL     1       1.789   8.187  19.498  0.00  0.00    +0.000 N 
ATOM      7  C   UNL     1       1.720   7.527  20.781  0.00  0.00    +0.000 C 
ATOM      8  H   UNL     1      -0.333   9.514  20.448  0.00  0.00    +0.000 HD
ENDROOT
BRANCH   5   9
ATOM      9  C   UNL     1       3.026   6.445  18.097  0.00  0.00    +0.000 A 
ATOM     10  C   UNL     1       4.358   6.315  17.684  0.00  0.00    +0.000 A 
ATOM     11  C   UNL     1       4.968   5.056  17.550  0.00  0.00    +0.000 A 
ATOM     12  C   UNL     1       4.199   3.902  17.768  0.00  0.00    +0.000 A 
ATOM     13  C   UNL     1       2.843   3.999  18.115  0.00  0.00    +0.000 A 
ATOM     14  C   UNL     1       2.274   5.276  18.286  0.00  0.00    +0.000 A 
BRANCH  11  15
ATOM     15  C   UNL     1       6.430   4.940  17.187  0.00  0.00    +0.000 C 
ATOM     16  F   UNL     1       7.196   4.423  18.186  0.00  0.00    +0.000 F 
ATOM     17  F   UNL     1       6.631   4.132  16.110  0.00  0.00    +0.000 F 
ATOM     18  F   UNL     1       6.984   6.140  16.868  0.00  0.00    +0.000 F 
ENDBRANCH  11  15
BRANCH  13  19
ATOM     19  C   UNL     1       1.993   2.765  18.304  0.00  0.00    +0.000 C 
ATOM     20  F   UNL     1       0.656   3.016  18.251  0.00  0.00    +0.000 F 
ATOM     21  F   UNL     1       2.234   1.813  17.362  0.00  0.00    +0.000 F 
ATOM     22  F   UNL     1       2.212   2.167  19.509  0.00  0.00    +0.000 F 
ENDBRANCH  13  19
ENDBRANCH   5   9
BRANCH   1  24
ATOM     23  C   UNL     1       1.374  12.339  20.505  0.00  0.00    +0.000 C 
ATOM     24  C   UNL     1       0.177  11.462  20.129  0.00  0.00    +0.000 C 
BRANCH  24  25
ATOM     25  C   UNL     1      -0.974  11.698  21.108  0.00  0.00    +0.000 A 
ATOM     26  C   UNL     1      -0.906  11.219  22.424  0.00  0.00    +0.000 A 
ATOM     27  C   UNL     1      -1.929  11.500  23.333  0.00  0.00    +0.000 A 
ATOM     28  C   UNL     1      -3.030  12.261  22.940  0.00  0.00    +0.000 A 
ATOM     29  C   UNL     1      -3.119  12.732  21.633  0.00  0.00    +0.000 A 
ATOM     30  C   UNL     1      -2.102  12.449  20.723  0.00  0.00    +0.000 A 
ENDBRANCH  24  25
ENDBRANCH   1  24
TORSDOF 5
ENDMDL
MODEL 9
REMARK VINA RESULT:      -8.8      1.440      2.161
REMARK  Name = 
REMARK  7 active torsions:
REMARK  status: ('A' for Active; 'I' for Inactive)
REMARK    1  A    between atoms: C_1  and  C_2
REMARK    2  A    between atoms: C_2  and  N_3
REMARK    3  A    between atoms: C_2  and  C_24
REMARK    4  A    between atoms: C_7  and  C_8
REMARK    5  A    between atoms: C_10  and  C_11
REMARK    6  A    between atoms: C_16  and  C_17
REMARK    7  A    between atoms: N_22  and  C_23
REMARK                            x       y       z     vdW  Elec       q    Type
REMARK                         _______ _______ _______ _____ _____    ______ ____
ROOT
ATOM      1  N   UNL     1       0.545  10.065  20.110  0.00  0.00    +0.000 N 
ATOM      2  C   UNL     1       1.307   9.435  19.192  0.00  0.00    +0.000 A 
ATOM      3  N   UNL     1       1.669   9.836  18.001  0.00  0.00    +0.000 NA
ATOM      4  C   UNL     1       2.346   8.779  17.452  0.00  0.00    +0.000 A 
ATOM      5  C   UNL     1       2.459   7.712  18.333  0.00  0.00    +0.000 A 
ATOM      6  N   UNL     1       1.811   8.177  19.466  0.00  0.00    +0.000 N 
ATOM      7  C   UNL     1       1.695   7.542  20.758  0.00  0.00    +0.000 C 
ATOM      8  H   UNL     1      -0.310   9.560  20.332  0.00  0.00    +0.000 HD
ENDROOT
BRANCH   5   9
ATOM      9  C   UNL     1       3.052   6.386  18.132  0.00  0.00    +0.000 A 
ATOM     10  C   UNL     1       2.328   5.209  18.358  0.00  0.00    +0.000 A 
ATOM     11  C   UNL     1       2.868   3.944  18.069  0.00  0.00    +0.000 A 
ATOM     12  C   UNL     1       4.192   3.861  17.609  0.00  0.00    +0.000 A 
ATOM     13  C   UNL     1       4.966   5.018  17.439  0.00  0.00    +0.000 A 
ATOM     14  C   UNL     1       4.380   6.272  17.694  0.00  0.00    +0.000 A 
BRANCH  11  15
ATOM     15  C   UNL     1       2.040   2.693  18.238  0.00  0.00    +0.000 C 
ATOM     16  F   UNL     1       2.292   1.745  17.293  0.00  0.00    +0.000 F 
ATOM     17  F   UNL     1       2.259   2.087  19.438  0.00  0.00    +0.000 F 
ATOM     18  F   UNL     1       0.704   2.939  18.178  0.00  0.00    +0.000 F 
ENDBRANCH  11  15
BRANCH  13  19
ATOM     19  C   UNL     1       6.407   4.936  16.992  0.00  0.00    +0.000 C 
ATOM     20  F   UNL     1       6.596   4.113  15.924  0.00  0.00    +0.000 F 
ATOM     21  F   UNL     1       6.911   6.146  16.625  0.00  0.00    +0.000 F 
ATOM     22  F   UNL     1       7.227   4.467  17.973  0.00  0.00    +0.000 F 
ENDBRANCH  13  19
ENDBRANCH   5   9
BRANCH   1  24
ATOM     23  C   UNL     1       1.445  12.354  20.392  0.00  0.00    +0.000 C 
ATOM     24  C   UNL     1       0.245  11.492  19.991  0.00  0.00    +0.000 C 
BRANCH  24  25
ATOM     25  C   UNL     1      -0.934  11.766  20.927  0.00  0.00    +0.000 A 
ATOM     26  C   UNL     1      -0.843  11.478  22.296  0.00  0.00    +0.000 A 
ATOM     27  C   UNL     1      -1.897  11.797  23.158  0.00  0.00    +0.000 A 
ATOM     28  C   UNL     1      -3.050  12.407  22.662  0.00  0.00    +0.000 A 
ATOM     29  C   UNL     1      -3.160  12.686  21.303  0.00  0.00    +0.000 A 
ATOM     30  C   UNL     1      -2.113  12.364  20.441  0.00  0.00    +0.000 A 
ENDBRANCH  24  25
ENDBRANCH   1  24
TORSDOF 5
ENDMDL
