MODEL 1
REMARK VINA RESULT:      -7.2      0.000      0.000
REMARK  Name = 
REMARK  7 active torsions:
REMARK  status: ('A' for Active; 'I' for Inactive)
REMARK    1  A    between atoms: C_1  and  C_2
REMARK    2  A    between atoms: C_2  and  C_3
REMARK    3  A    between atoms: C_3  and  C_4
REMARK    4  A    between atoms: C_7  and  O_8
REMARK    5  A    between atoms: O_8  and  C_9
REMARK    6  A    between atoms: C_12  and  C_13
REMARK    7  A    between atoms: N_14  and  N_15
REMARK                            x       y       z     vdW  Elec       q    Type
REMARK                         _______ _______ _______ _____ _____    ______ ____
ROOT
ATOM      1  C   UNL     1       6.253   5.267  16.804  0.00  0.00    +0.000 A 
ATOM      2  C   UNL     1       7.077   4.895  17.873  0.00  0.00    +0.000 A 
ATOM      3  C   UNL     1       7.829   5.855  18.539  0.00  0.00    +0.000 A 
ATOM      4  C   UNL     1       7.824   7.178  18.090  0.00  0.00    +0.000 A 
ATOM      5  C   UNL     1       7.065   7.543  16.973  0.00  0.00    +0.000 A 
ATOM      6  C   UNL     1       6.276   6.580  16.330  0.00  0.00    +0.000 A 
ENDROOT
BRANCH   4   7
ATOM      7  C   UNL     1       8.639   8.183  18.802  0.00  0.00    +0.000 C 
ATOM      8  N   UNL     1       8.531   9.440  18.508  0.00  0.00    +0.000 NA
BRANCH   8   9
ATOM      9  N   UNL     1       9.308  10.289  19.239  0.00  0.00    +0.000 N 
ATOM     10  C   UNL     1       9.486  11.598  18.868  0.00  0.00    +0.000 C 
ATOM     11  N   UNL     1       8.805  11.960  17.750  0.00  0.00    +0.000 N 
ATOM     12  O   UNL     1      10.195  12.378  19.486  0.00  0.00    +0.000 OA
ATOM     13  H   UNL     1       9.778   9.982  20.082  0.00  0.00    +0.000 HD
ATOM     14  H   UNL     1       8.434  11.198  17.199  0.00  0.00    +0.000 HD
ATOM     15  H   UNL     1       8.999  12.856  17.333  0.00  0.00    +0.000 HD
ENDBRANCH   8   9
ENDBRANCH   4   7
BRANCH   1  16
ATOM     16  O   UNL     1       5.389   4.379  16.194  0.00  0.00    +0.000 OA
BRANCH  16  20
ATOM     17  C   UNL     1       2.054   3.251  18.452  0.00  0.00    +0.000 A 
ATOM     18  C   UNL     1       2.308   4.607  18.217  0.00  0.00    +0.000 A 
ATOM     19  C   UNL     1       3.366   4.995  17.404  0.00  0.00    +0.000 A 
ATOM     20  C   UNL     1       4.249   4.035  16.892  0.00  0.00    +0.000 A 
ATOM     21  C   UNL     1       3.994   2.681  17.097  0.00  0.00    +0.000 A 
ATOM     22  C   UNL     1       2.898   2.291  17.875  0.00  0.00    +0.000 A 
BRANCH  17  23
ATOM     23  C   UNL     1       0.883   2.842  19.315  0.00  0.00    +0.000 C 
BRANCH  23  25
ATOM     24  C   UNL     1       1.843   2.663  21.668  0.00  0.00    +0.000 C 
ATOM     25  C   UNL     1       0.921   3.431  20.730  0.00  0.00    +0.000 C 
ENDBRANCH  23  25
ENDBRANCH  17  23
ENDBRANCH  16  20
ENDBRANCH   1  16
TORSDOF 6
ENDMDL
MODEL 2
REMARK VINA RESULT:      -7.1      1.292      1.574
REMARK  Name = 
REMARK  7 active torsions:
REMARK  status: ('A' for Active; 'I' for Inactive)
REMARK    1  A    between atoms: C_1  and  C_2
REMARK    2  A    between atoms: C_2  and  C_3
REMARK    3  A    between atoms: C_3  and  C_4
REMARK    4  A    between atoms: C_7  and  O_8
REMARK    5  A    between atoms: O_8  and  C_9
REMARK    6  A    between atoms: C_12  and  C_13
REMARK    7  A    between atoms: N_14  and  N_15
REMARK                            x       y       z     vdW  Elec       q    Type
REMARK                         _______ _______ _______ _____ _____    ______ ____
ROOT
ATOM      1  C   UNL     1       7.219   5.565  17.984  0.00  0.00    +0.000 A 
ATOM      2  C   UNL     1       8.051   5.972  19.033  0.00  0.00    +0.000 A 
ATOM      3  C   UNL     1       8.480   7.292  19.109  0.00  0.00    +0.000 A 
ATOM      4  C   UNL     1       8.144   8.192  18.095  0.00  0.00    +0.000 A 
ATOM      5  C   UNL     1       7.378   7.773  17.002  0.00  0.00    +0.000 A 
ATOM      6  C   UNL     1       6.914   6.452  16.950  0.00  0.00    +0.000 A 
ENDROOT
BRANCH   4   7
ATOM      7  C   UNL     1       8.617   9.588  18.185  0.00  0.00    +0.000 C 
ATOM      8  N   UNL     1       9.114  10.040  19.293  0.00  0.00    +0.000 NA
BRANCH   8   9
ATOM      9  N   UNL     1       9.546  11.333  19.266  0.00  0.00    +0.000 N 
ATOM     10  C   UNL     1       9.788  12.033  20.421  0.00  0.00    +0.000 C 
ATOM     11  N   UNL     1       9.592  11.319  21.560  0.00  0.00    +0.000 N 
ATOM     12  O   UNL     1      10.152  13.200  20.432  0.00  0.00    +0.000 OA
ATOM     13  H   UNL     1       9.704  11.819  18.392  0.00  0.00    +0.000 HD
ATOM     14  H   UNL     1       9.087  10.450  21.448  0.00  0.00    +0.000 HD
ATOM     15  H   UNL     1       9.606  11.802  22.444  0.00  0.00    +0.000 HD
ENDBRANCH   8   9
ENDBRANCH   4   7
BRANCH   1  16
ATOM     16  O   UNL     1       6.660   4.302  17.932  0.00  0.00    +0.000 OA
BRANCH  16  20
ATOM     17  C   UNL     1       2.575   3.816  18.684  0.00  0.00    +0.000 A 
ATOM     18  C   UNL     1       3.342   4.639  19.517  0.00  0.00    +0.000 A 
ATOM     19  C   UNL     1       4.682   4.873  19.235  0.00  0.00    +0.000 A 
ATOM     20  C   UNL     1       5.304   4.208  18.169  0.00  0.00    +0.000 A 
ATOM     21  C   UNL     1       4.547   3.406  17.318  0.00  0.00    +0.000 A 
ATOM     22  C   UNL     1       3.185   3.212  17.575  0.00  0.00    +0.000 A 
BRANCH  17  23
ATOM     23  C   UNL     1       1.111   3.593  18.986  0.00  0.00    +0.000 C 
BRANCH  23  25
ATOM     24  C   UNL     1       1.341   2.660  21.345  0.00  0.00    +0.000 C 
ATOM     25  C   UNL     1       0.753   3.757  20.468  0.00  0.00    +0.000 C 
ENDBRANCH  23  25
ENDBRANCH  17  23
ENDBRANCH  16  20
ENDBRANCH   1  16
TORSDOF 6
ENDMDL
MODEL 3
REMARK VINA RESULT:      -7.0      1.319      1.788
REMARK  Name = 
REMARK  7 active torsions:
REMARK  status: ('A' for Active; 'I' for Inactive)
REMARK    1  A    between atoms: C_1  and  C_2
REMARK    2  A    between atoms: C_2  and  C_3
REMARK    3  A    between atoms: C_3  and  C_4
REMARK    4  A    between atoms: C_7  and  O_8
REMARK    5  A    between atoms: O_8  and  C_9
REMARK    6  A    between atoms: C_12  and  C_13
REMARK    7  A    between atoms: N_14  and  N_15
REMARK                            x       y       z     vdW  Elec       q    Type
REMARK                         _______ _______ _______ _____ _____    ______ ____
ROOT
ATOM      1  C   UNL     1       7.067   5.622  17.794  0.00  0.00    +0.000 A 
ATOM      2  C   UNL     1       7.943   5.914  18.847  0.00  0.00    +0.000 A 
ATOM      3  C   UNL     1       8.407   7.212  19.026  0.00  0.00    +0.000 A 
ATOM      4  C   UNL     1       8.062   8.208  18.110  0.00  0.00    +0.000 A 
ATOM      5  C   UNL     1       7.251   7.907  17.011  0.00  0.00    +0.000 A 
ATOM      6  C   UNL     1       6.752   6.606  16.856  0.00  0.00    +0.000 A 
ENDROOT
BRANCH   4   7
ATOM      7  C   UNL     1       8.573   9.578  18.309  0.00  0.00    +0.000 C 
ATOM      8  N   UNL     1       9.362   9.845  19.302  0.00  0.00    +0.000 NA
BRANCH   8   9
ATOM      9  N   UNL     1       9.799  11.133  19.383  0.00  0.00    +0.000 N 
ATOM     10  C   UNL     1       9.751  11.835  20.562  0.00  0.00    +0.000 C 
ATOM     11  N   UNL     1       9.269  11.125  21.616  0.00  0.00    +0.000 N 
ATOM     12  O   UNL     1      10.111  12.998  20.664  0.00  0.00    +0.000 OA
ATOM     13  H   UNL     1      10.175  11.615  18.576  0.00  0.00    +0.000 HD
ATOM     14  H   UNL     1       8.800  10.261  21.381  0.00  0.00    +0.000 HD
ATOM     15  H   UNL     1       9.066  11.611  22.475  0.00  0.00    +0.000 HD
ENDBRANCH   8   9
ENDBRANCH   4   7
BRANCH   1  16
ATOM     16  O   UNL     1       6.475   4.383  17.648  0.00  0.00    +0.000 OA
BRANCH  16  20
ATOM     17  C   UNL     1       2.558   4.148  19.095  0.00  0.00    +0.000 A 
ATOM     18  C   UNL     1       2.930   3.401  17.970  0.00  0.00    +0.000 A 
ATOM     19  C   UNL     1       4.246   3.407  17.525  0.00  0.00    +0.000 A 
ATOM     20  C   UNL     1       5.193   4.240  18.138  0.00  0.00    +0.000 A 
ATOM     21  C   UNL     1       4.842   4.968  19.272  0.00  0.00    +0.000 A 
ATOM     22  C   UNL     1       3.528   4.920  19.749  0.00  0.00    +0.000 A 
BRANCH  17  23
ATOM     23  C   UNL     1       1.130   4.109  19.586  0.00  0.00    +0.000 C 
BRANCH  23  25
ATOM     24  C   UNL     1       1.524   2.694  21.667  0.00  0.00    +0.000 C 
ATOM     25  C   UNL     1       0.773   2.828  20.349  0.00  0.00    +0.000 C 
ENDBRANCH  23  25
ENDBRANCH  17  23
ENDBRANCH  16  20
ENDBRANCH   1  16
TORSDOF 6
ENDMDL
MODEL 4
REMARK VINA RESULT:      -6.9      5.088      7.182
REMARK  Name = 
REMARK  7 active torsions:
REMARK  status: ('A' for Active; 'I' for Inactive)
REMARK    1  A    between atoms: C_1  and  C_2
REMARK    2  A    between atoms: C_2  and  C_3
REMARK    3  A    between atoms: C_3  and  C_4
REMARK    4  A    between atoms: C_7  and  O_8
REMARK    5  A    between atoms: O_8  and  C_9
REMARK    6  A    between atoms: C_12  and  C_13
REMARK    7  A    between atoms: N_14  and  N_15
REMARK                            x       y       z     vdW  Elec       q    Type
REMARK                         _______ _______ _______ _____ _____    ______ ____
ROOT
ATOM      1  C   UNL     1       3.455   5.583  18.653  0.00  0.00    +0.000 A 
ATOM      2  C   UNL     1       2.961   4.492  17.927  0.00  0.00    +0.000 A 
ATOM      3  C   UNL     1       3.745   3.895  16.948  0.00  0.00    +0.000 A 
ATOM      4  C   UNL     1       4.996   4.432  16.634  0.00  0.00    +0.000 A 
ATOM      5  C   UNL     1       5.464   5.570  17.300  0.00  0.00    +0.000 A 
ATOM      6  C   UNL     1       4.687   6.145  18.315  0.00  0.00    +0.000 A 
ENDROOT
BRANCH   4   7
ATOM      7  C   UNL     1       5.811   3.792  15.582  0.00  0.00    +0.000 C 
ATOM      8  N   UNL     1       5.607   4.073  14.334  0.00  0.00    +0.000 NA
BRANCH   8   9
ATOM      9  N   UNL     1       6.429   3.449  13.444  0.00  0.00    +0.000 N 
ATOM     10  C   UNL     1       5.977   3.043  12.213  0.00  0.00    +0.000 C 
ATOM     11  N   UNL     1       4.676   3.345  11.967  0.00  0.00    +0.000 N 
ATOM     12  O   UNL     1       6.680   2.459  11.402  0.00  0.00    +0.000 OA
ATOM     13  H   UNL     1       7.401   3.266  13.660  0.00  0.00    +0.000 HD
ATOM     14  H   UNL     1       4.133   3.623  12.773  0.00  0.00    +0.000 HD
ATOM     15  H   UNL     1       4.233   2.953  11.152  0.00  0.00    +0.000 HD
ENDBRANCH   8   9
ENDBRANCH   4   7
BRANCH   1  16
ATOM     16  O   UNL     1       2.772   6.129  19.722  0.00  0.00    +0.000 OA
BRANCH  16  20
ATOM     17  C   UNL     1       0.861   9.778  18.996  0.00  0.00    +0.000 A 
ATOM     18  C   UNL     1       0.865   9.240  20.288  0.00  0.00    +0.000 A 
ATOM     19  C   UNL     1       1.561   8.070  20.562  0.00  0.00    +0.000 A 
ATOM     20  C   UNL     1       2.185   7.362  19.525  0.00  0.00    +0.000 A 
ATOM     21  C   UNL     1       2.210   7.899  18.239  0.00  0.00    +0.000 A 
ATOM     22  C   UNL     1       1.550   9.105  17.977  0.00  0.00    +0.000 A 
BRANCH  17  23
ATOM     23  C   UNL     1       0.124  11.068  18.719  0.00  0.00    +0.000 C 
BRANCH  23  25
ATOM     24  C   UNL     1      -1.928  10.141  17.526  0.00  0.00    +0.000 C 
ATOM     25  C   UNL     1      -1.403  10.921  18.724  0.00  0.00    +0.000 C 
ENDBRANCH  23  25
ENDBRANCH  17  23
ENDBRANCH  16  20
ENDBRANCH   1  16
TORSDOF 6
ENDMDL
MODEL 5
REMARK VINA RESULT:      -6.9      4.951      7.570
REMARK  Name = 
REMARK  7 active torsions:
REMARK  status: ('A' for Active; 'I' for Inactive)
REMARK    1  A    between atoms: C_1  and  C_2
REMARK    2  A    between atoms: C_2  and  C_3
REMARK    3  A    between atoms: C_3  and  C_4
REMARK    4  A    between atoms: C_7  and  O_8
REMARK    5  A    between atoms: O_8  and  C_9
REMARK    6  A    between atoms: C_12  and  C_13
REMARK    7  A    between atoms: N_14  and  N_15
REMARK                            x       y       z     vdW  Elec       q    Type
REMARK                         _______ _______ _______ _____ _____    ______ ____
ROOT
ATOM      1  C   UNL     1       6.349   5.720  16.498  0.00  0.00    +0.000 A 
ATOM      2  C   UNL     1       6.904   4.961  17.536  0.00  0.00    +0.000 A 
ATOM      3  C   UNL     1       6.146   4.666  18.663  0.00  0.00    +0.000 A 
ATOM      4  C   UNL     1       4.859   5.192  18.795  0.00  0.00    +0.000 A 
ATOM      5  C   UNL     1       4.327   6.017  17.798  0.00  0.00    +0.000 A 
ATOM      6  C   UNL     1       5.078   6.279  16.645  0.00  0.00    +0.000 A 
ENDROOT
BRANCH   4   7
ATOM      7  C   UNL     1       4.073   4.878  20.005  0.00  0.00    +0.000 C 
ATOM      8  N   UNL     1       2.812   4.599  19.912  0.00  0.00    +0.000 NA
BRANCH   8   9
ATOM      9  N   UNL     1       2.182   4.299  21.083  0.00  0.00    +0.000 N 
ATOM     10  C   UNL     1       1.688   3.043  21.331  0.00  0.00    +0.000 C 
ATOM     11  N   UNL     1       1.913   2.147  20.334  0.00  0.00    +0.000 N 
ATOM     12  O   UNL     1       1.097   2.747  22.358  0.00  0.00    +0.000 OA
ATOM     13  H   UNL     1       2.059   4.993  21.810  0.00  0.00    +0.000 HD
ATOM     14  H   UNL     1       2.207   2.541  19.452  0.00  0.00    +0.000 HD
ATOM     15  H   UNL     1       1.456   1.250  20.377  0.00  0.00    +0.000 HD
ENDBRANCH   8   9
ENDBRANCH   4   7
BRANCH   1  16
ATOM     16  O   UNL     1       7.010   5.931  15.304  0.00  0.00    +0.000 OA
BRANCH  16  20
ATOM     17  C   UNL     1       6.153   3.246  12.214  0.00  0.00    +0.000 A 
ATOM     18  C   UNL     1       7.242   4.118  12.096  0.00  0.00    +0.000 A 
ATOM     19  C   UNL     1       7.587   4.960  13.145  0.00  0.00    +0.000 A 
ATOM     20  C   UNL     1       6.787   5.017  14.295  0.00  0.00    +0.000 A 
ATOM     21  C   UNL     1       5.715   4.138  14.436  0.00  0.00    +0.000 A 
ATOM     22  C   UNL     1       5.401   3.254  13.397  0.00  0.00    +0.000 A 
BRANCH  17  23
ATOM     23  C   UNL     1       5.806   2.314  11.076  0.00  0.00    +0.000 C 
BRANCH  23  25
ATOM     24  C   UNL     1       6.100  -0.207  11.286  0.00  0.00    +0.000 C 
ATOM     25  C   UNL     1       6.760   1.121  10.941  0.00  0.00    +0.000 C 
ENDBRANCH  23  25
ENDBRANCH  17  23
ENDBRANCH  16  20
ENDBRANCH   1  16
TORSDOF 6
ENDMDL
MODEL 6
REMARK VINA RESULT:      -6.9      4.890      7.008
REMARK  Name = 
REMARK  7 active torsions:
REMARK  status: ('A' for Active; 'I' for Inactive)
REMARK    1  A    between atoms: C_1  and  C_2
REMARK    2  A    between atoms: C_2  and  C_3
REMARK    3  A    between atoms: C_3  and  C_4
REMARK    4  A    between atoms: C_7  and  O_8
REMARK    5  A    between atoms: O_8  and  C_9
REMARK    6  A    between atoms: C_12  and  C_13
REMARK    7  A    between atoms: N_14  and  N_15
REMARK                            x       y       z     vdW  Elec       q    Type
REMARK                         _______ _______ _______ _____ _____    ______ ____
ROOT
ATOM      1  C   UNL     1       3.605   5.299  18.943  0.00  0.00    +0.000 A 
ATOM      2  C   UNL     1       4.935   5.687  18.737  0.00  0.00    +0.000 A 
ATOM      3  C   UNL     1       5.649   5.176  17.661  0.00  0.00    +0.000 A 
ATOM      4  C   UNL     1       5.067   4.216  16.831  0.00  0.00    +0.000 A 
ATOM      5  C   UNL     1       3.766   3.764  17.077  0.00  0.00    +0.000 A 
ATOM      6  C   UNL     1       3.034   4.311  18.139  0.00  0.00    +0.000 A 
ENDROOT
BRANCH   4   7
ATOM      7  C   UNL     1       5.845   3.675  15.698  0.00  0.00    +0.000 C 
ATOM      8  N   UNL     1       5.842   4.280  14.553  0.00  0.00    +0.000 NA
BRANCH   8   9
ATOM      9  N   UNL     1       6.612   3.715  13.581  0.00  0.00    +0.000 N 
ATOM     10  C   UNL     1       6.069   3.279  12.398  0.00  0.00    +0.000 C 
ATOM     11  N   UNL     1       4.732   3.492  12.284  0.00  0.00    +0.000 N 
ATOM     12  O   UNL     1       6.727   2.746  11.517  0.00  0.00    +0.000 OA
ATOM     13  H   UNL     1       7.611   3.599  13.699  0.00  0.00    +0.000 HD
ATOM     14  H   UNL     1       4.254   3.731  13.141  0.00  0.00    +0.000 HD
ATOM     15  H   UNL     1       4.239   3.071  11.513  0.00  0.00    +0.000 HD
ENDBRANCH   8   9
ENDBRANCH   4   7
BRANCH   1  16
ATOM     16  O   UNL     1       2.811   5.872  19.917  0.00  0.00    +0.000 OA
BRANCH  16  20
ATOM     17  C   UNL     1       1.070   9.548  18.941  0.00  0.00    +0.000 A 
ATOM     18  C   UNL     1       0.979   9.062  20.250  0.00  0.00    +0.000 A 
ATOM     19  C   UNL     1       1.619   7.882  20.609  0.00  0.00    +0.000 A 
ATOM     20  C   UNL     1       2.278   7.115  19.639  0.00  0.00    +0.000 A 
ATOM     21  C   UNL     1       2.397   7.599  18.338  0.00  0.00    +0.000 A 
ATOM     22  C   UNL     1       1.795   8.814  17.991  0.00  0.00    +0.000 A 
BRANCH  17  23
ATOM     23  C   UNL     1       0.394  10.848  18.571  0.00  0.00    +0.000 C 
BRANCH  23  25
ATOM     24  C   UNL     1      -1.627   9.954  17.303  0.00  0.00    +0.000 C 
ATOM     25  C   UNL     1      -1.135  10.753  18.503  0.00  0.00    +0.000 C 
ENDBRANCH  23  25
ENDBRANCH  17  23
ENDBRANCH  16  20
ENDBRANCH   1  16
TORSDOF 6
ENDMDL
MODEL 7
REMARK VINA RESULT:      -6.9      0.590      1.184
REMARK  Name = 
REMARK  7 active torsions:
REMARK  status: ('A' for Active; 'I' for Inactive)
REMARK    1  A    between atoms: C_1  and  C_2
REMARK    2  A    between atoms: C_2  and  C_3
REMARK    3  A    between atoms: C_3  and  C_4
REMARK    4  A    between atoms: C_7  and  O_8
REMARK    5  A    between atoms: O_8  and  C_9
REMARK    6  A    between atoms: C_12  and  C_13
REMARK    7  A    between atoms: N_14  and  N_15
REMARK                            x       y       z     vdW  Elec       q    Type
REMARK                         _______ _______ _______ _____ _____    ______ ____
ROOT
ATOM      1  C   UNL     1       6.271   5.465  17.082  0.00  0.00    +0.000 A 
ATOM      2  C   UNL     1       7.190   5.233  18.113  0.00  0.00    +0.000 A 
ATOM      3  C   UNL     1       7.925   6.288  18.640  0.00  0.00    +0.000 A 
ATOM      4  C   UNL     1       7.806   7.565  18.087  0.00  0.00    +0.000 A 
ATOM      5  C   UNL     1       6.949   7.789  17.004  0.00  0.00    +0.000 A 
ATOM      6  C   UNL     1       6.179   6.732  16.503  0.00  0.00    +0.000 A 
ENDROOT
BRANCH   4   7
ATOM      7  C   UNL     1       8.604   8.671  18.652  0.00  0.00    +0.000 C 
ATOM      8  N   UNL     1       8.714   9.792  18.011  0.00  0.00    +0.000 NA
BRANCH   8   9
ATOM      9  N   UNL     1       9.451  10.758  18.628  0.00  0.00    +0.000 N 
ATOM     10  C   UNL     1       9.247  12.091  18.371  0.00  0.00    +0.000 C 
ATOM     11  N   UNL     1       8.243  12.343  17.490  0.00  0.00    +0.000 N 
ATOM     12  O   UNL     1       9.906  12.981  18.887  0.00  0.00    +0.000 OA
ATOM     13  H   UNL     1      10.173  10.525  19.298  0.00  0.00    +0.000 HD
ATOM     14  H   UNL     1       7.916  11.546  16.962  0.00  0.00    +0.000 HD
ATOM     15  H   UNL     1       8.130  13.281  17.140  0.00  0.00    +0.000 HD
ENDBRANCH   8   9
ENDBRANCH   4   7
BRANCH   1  16
ATOM     16  O   UNL     1       5.423   4.481  16.613  0.00  0.00    +0.000 OA
BRANCH  16  20
ATOM     17  C   UNL     1       2.017   3.573  18.864  0.00  0.00    +0.000 A 
ATOM     18  C   UNL     1       2.885   2.547  18.471  0.00  0.00    +0.000 A 
ATOM     19  C   UNL     1       4.061   2.840  17.791  0.00  0.00    +0.000 A 
ATOM     20  C   UNL     1       4.340   4.158  17.404  0.00  0.00    +0.000 A 
ATOM     21  C   UNL     1       3.498   5.192  17.810  0.00  0.00    +0.000 A 
ATOM     22  C   UNL     1       2.340   4.898  18.539  0.00  0.00    +0.000 A 
BRANCH  17  23
ATOM     23  C   UNL     1       0.757   3.242  19.629  0.00  0.00    +0.000 C 
BRANCH  23  25
ATOM     24  C   UNL     1       2.176   3.457  21.733  0.00  0.00    +0.000 C 
ATOM     25  C   UNL     1       1.012   2.746  21.057  0.00  0.00    +0.000 C 
ENDBRANCH  23  25
ENDBRANCH  17  23
ENDBRANCH  16  20
ENDBRANCH   1  16
TORSDOF 6
ENDMDL
MODEL 8
REMARK VINA RESULT:      -6.9      6.866      8.743
REMARK  Name = 
REMARK  7 active torsions:
REMARK  status: ('A' for Active; 'I' for Inactive)
REMARK    1  A    between atoms: C_1  and  C_2
REMARK    2  A    between atoms: C_2  and  C_3
REMARK    3  A    between atoms: C_3  and  C_4
REMARK    4  A    between atoms: C_7  and  O_8
REMARK    5  A    between atoms: O_8  and  C_9
REMARK    6  A    between atoms: C_12  and  C_13
REMARK    7  A    between atoms: N_14  and  N_15
REMARK                            x       y       z     vdW  Elec       q    Type
REMARK                         _______ _______ _______ _____ _____    ______ ____
ROOT
ATOM      1  C   UNL     1       1.458   9.370  18.794  0.00  0.00    +0.000 A 
ATOM      2  C   UNL     1       2.151   8.488  17.955  0.00  0.00    +0.000 A 
ATOM      3  C   UNL     1       2.476   7.214  18.403  0.00  0.00    +0.000 A 
ATOM      4  C   UNL     1       2.182   6.841  19.716  0.00  0.00    +0.000 A 
ATOM      5  C   UNL     1       1.562   7.744  20.586  0.00  0.00    +0.000 A 
ATOM      6  C   UNL     1       1.198   9.014  20.118  0.00  0.00    +0.000 A 
ENDROOT
BRANCH   4   7
ATOM      7  C   UNL     1       2.546   5.486  20.179  0.00  0.00    +0.000 C 
ATOM      8  N   UNL     1       2.935   4.588  19.331  0.00  0.00    +0.000 NA
BRANCH   8   9
ATOM      9  N   UNL     1       3.273   3.378  19.861  0.00  0.00    +0.000 N 
ATOM     10  C   UNL     1       4.540   2.866  19.732  0.00  0.00    +0.000 C 
ATOM     11  N   UNL     1       5.406   3.677  19.070  0.00  0.00    +0.000 N 
ATOM     12  O   UNL     1       4.868   1.775  20.172  0.00  0.00    +0.000 OA
ATOM     13  H   UNL     1       2.600   2.818  20.370  0.00  0.00    +0.000 HD
ATOM     14  H   UNL     1       4.985   4.442  18.562  0.00  0.00    +0.000 HD
ATOM     15  H   UNL     1       6.307   3.312  18.807  0.00  0.00    +0.000 HD
ENDBRANCH   8   9
ENDBRANCH   4   7
BRANCH   1  16
ATOM     16  O   UNL     1       0.997  10.596  18.357  0.00  0.00    +0.000 OA
BRANCH  16  20
ATOM     17  C   UNL     1      -3.069  11.521  18.683  0.00  0.00    +0.000 A 
ATOM     18  C   UNL     1      -2.653  10.514  17.804  0.00  0.00    +0.000 A 
ATOM     19  C   UNL     1      -1.317  10.141  17.741  0.00  0.00    +0.000 A 
ATOM     20  C   UNL     1      -0.356  10.839  18.486  0.00  0.00    +0.000 A 
ATOM     21  C   UNL     1      -0.758  11.826  19.384  0.00  0.00    +0.000 A 
ATOM     22  C   UNL     1      -2.113  12.164  19.481  0.00  0.00    +0.000 A 
BRANCH  17  23
ATOM     23  C   UNL     1      -4.531  11.896  18.762  0.00  0.00    +0.000 C 
BRANCH  23  25
ATOM     24  C   UNL     1      -6.723  10.605  18.635  0.00  0.00    +0.000 C 
ATOM     25  C   UNL     1      -5.445  11.006  17.911  0.00  0.00    +0.000 C 
ENDBRANCH  23  25
ENDBRANCH  17  23
ENDBRANCH  16  20
ENDBRANCH   1  16
TORSDOF 6
ENDMDL
MODEL 9
REMARK VINA RESULT:      -6.9      1.105      1.183
REMARK  Name = 
REMARK  7 active torsions:
REMARK  status: ('A' for Active; 'I' for Inactive)
REMARK    1  A    between atoms: C_1  and  C_2
REMARK    2  A    between atoms: C_2  and  C_3
REMARK    3  A    between atoms: C_3  and  C_4
REMARK    4  A    between atoms: C_7  and  O_8
REMARK    5  A    between atoms: O_8  and  C_9
REMARK    6  A    between atoms: C_12  and  C_13
REMARK    7  A    between atoms: N_14  and  N_15
REMARK                            x       y       z     vdW  Elec       q    Type
REMARK                         _______ _______ _______ _____ _____    ______ ____
ROOT
ATOM      1  C   UNL     1       6.554   5.591  17.473  0.00  0.00    +0.000 A 
ATOM      2  C   UNL     1       7.554   5.561  18.452  0.00  0.00    +0.000 A 
ATOM      3  C   UNL     1       8.220   6.729  18.803  0.00  0.00    +0.000 A 
ATOM      4  C   UNL     1       7.945   7.918  18.123  0.00  0.00    +0.000 A 
ATOM      5  C   UNL     1       7.004   7.940  17.088  0.00  0.00    +0.000 A 
ATOM      6  C   UNL     1       6.306   6.769  16.765  0.00  0.00    +0.000 A 
ENDROOT
BRANCH   4   7
ATOM      7  C   UNL     1       8.671   9.148  18.500  0.00  0.00    +0.000 C 
ATOM      8  N   UNL     1       8.456  10.256  17.865  0.00  0.00    +0.000 NA
BRANCH   8   9
ATOM      9  N   UNL     1       9.156  11.338  18.306  0.00  0.00    +0.000 N 
ATOM     10  C   UNL     1       8.851  12.610  17.887  0.00  0.00    +0.000 C 
ATOM     11  N   UNL     1       7.792  12.681  17.039  0.00  0.00    +0.000 N 
ATOM     12  O   UNL     1       9.474  13.598  18.243  0.00  0.00    +0.000 OA
ATOM     13  H   UNL     1       9.923  11.241  18.959  0.00  0.00    +0.000 HD
ATOM     14  H   UNL     1       7.493  11.801  16.640  0.00  0.00    +0.000 HD
ATOM     15  H   UNL     1       7.600  13.554  16.575  0.00  0.00    +0.000 HD
ENDBRANCH   8   9
ENDBRANCH   4   7
BRANCH   1  16
ATOM     16  O   UNL     1       5.774   4.489  17.179  0.00  0.00    +0.000 OA
BRANCH  16  20
ATOM     17  C   UNL     1       2.200   3.921  19.275  0.00  0.00    +0.000 A 
ATOM     18  C   UNL     1       3.175   4.785  19.786  0.00  0.00    +0.000 A 
ATOM     19  C   UNL     1       4.333   5.046  19.064  0.00  0.00    +0.000 A 
ATOM     20  C   UNL     1       4.581   4.367  17.863  0.00  0.00    +0.000 A 
ATOM     21  C   UNL     1       3.608   3.524  17.331  0.00  0.00    +0.000 A 
ATOM     22  C   UNL     1       2.420   3.303  18.037  0.00  0.00    +0.000 A 
BRANCH  17  23
ATOM     23  C   UNL     1       0.932   3.669  20.058  0.00  0.00    +0.000 C 
BRANCH  23  25
ATOM     24  C   UNL     1       2.552   2.431  21.583  0.00  0.00    +0.000 C 
ATOM     25  C   UNL     1       1.170   3.054  21.442  0.00  0.00    +0.000 C 
ENDBRANCH  23  25
ENDBRANCH  17  23
ENDBRANCH  16  20
ENDBRANCH   1  16
TORSDOF 6
ENDMDL
