MODEL 1
REMARK VINA RESULT:      -7.7      0.000      0.000
REMARK  Name = 
REMARK  8 active torsions:
REMARK  status: ('A' for Active; 'I' for Inactive)
REMARK    1  A    between atoms: C_1  and  O_2
REMARK    2  A    between atoms: O_2  and  C_3
REMARK    3  A    between atoms: N_11  and  C_12
REMARK    4  A    between atoms: N_15  and  C_16
REMARK    5  A    between atoms: C_16  and  C_17
REMARK    6  A    between atoms: C_17  and  C_18
REMARK    7  A    between atoms: C_18  and  O_19
REMARK    8  A    between atoms: O_19  and  C_20
REMARK                            x       y       z     vdW  Elec       q    Type
REMARK                         _______ _______ _______ _____ _____    ______ ____
ROOT
ATOM      1  C   UNL     1       6.620   5.821  16.730  0.00  0.00    +0.000 A 
ATOM      2  C   UNL     1       6.562   4.528  16.216  0.00  0.00    +0.000 A 
ATOM      3  C   UNL     1       5.517   3.658  16.550  0.00  0.00    +0.000 A 
ATOM      4  C   UNL     1       4.528   4.120  17.429  0.00  0.00    +0.000 A 
ATOM      5  C   UNL     1       4.572   5.407  17.973  0.00  0.00    +0.000 A 
ATOM      6  C   UNL     1       5.637   6.263  17.624  0.00  0.00    +0.000 A 
ATOM      7  C   UNL     1       3.438   5.541  18.817  0.00  0.00    +0.000 A 
ATOM      8  C   UNL     1       2.747   4.348  18.780  0.00  0.00    +0.000 A 
ATOM      9  N   UNL     1       3.394   3.499  17.928  0.00  0.00    +0.000 N 
ATOM     10  C   UNL     1       2.986   2.159  17.576  0.00  0.00    +0.000 C 
ATOM     11  C   UNL     1       1.489   4.111  19.541  0.00  0.00    +0.000 C 
ATOM     12  C   UNL     1       1.332   5.222  20.615  0.00  0.00    +0.000 C 
ATOM     13  N   UNL     1       1.607   6.577  20.072  0.00  0.00    +0.000 NA
ATOM     14  C   UNL     1       3.026   6.709  19.649  0.00  0.00    +0.000 C 
ENDROOT
BRANCH   1  16
ATOM     15  C   UNL     1       7.694   7.819  17.373  0.00  0.00    +0.000 C 
ATOM     16  O   UNL     1       7.609   6.729  16.463  0.00  0.00    +0.000 OA
ENDBRANCH   1  16
BRANCH  13  17
ATOM     17  C   UNL     1       1.253   7.620  21.049  0.00  0.00    +0.000 C 
BRANCH  17  18
ATOM     18  C   UNL     1       1.286   9.043  20.471  0.00  0.00    +0.000 C 
BRANCH  18  19
ATOM     19  C   UNL     1      -0.112   9.649  20.395  0.00  0.00    +0.000 C 
BRANCH  19  20
ATOM     20  O   UNL     1      -0.129  10.668  19.393  0.00  0.00    +0.000 OA
BRANCH  20  21
ATOM     21  C   UNL     1      -1.297  10.770  18.682  0.00  0.00    +0.000 A 
ATOM     22  C   UNL     1      -2.369  11.611  18.999  0.00  0.00    +0.000 A 
ATOM     23  C   UNL     1      -3.507  11.637  18.192  0.00  0.00    +0.000 A 
ATOM     24  C   UNL     1      -3.572  10.822  17.071  0.00  0.00    +0.000 A 
ATOM     25  F   UNL     1      -4.663  10.849  16.298  0.00  0.00    +0.000 F 
ATOM     26  C   UNL     1      -2.517   9.978  16.743  0.00  0.00    +0.000 A 
ATOM     27  C   UNL     1      -1.379   9.952  17.549  0.00  0.00    +0.000 A 
ENDBRANCH  20  21
ENDBRANCH  19  20
ENDBRANCH  18  19
ENDBRANCH  17  18
ENDBRANCH  13  17
TORSDOF 6
ENDMDL
MODEL 2
REMARK VINA RESULT:      -7.4      2.542      3.510
REMARK  Name = 
REMARK  8 active torsions:
REMARK  status: ('A' for Active; 'I' for Inactive)
REMARK    1  A    between atoms: C_1  and  O_2
REMARK    2  A    between atoms: O_2  and  C_3
REMARK    3  A    between atoms: N_11  and  C_12
REMARK    4  A    between atoms: N_15  and  C_16
REMARK    5  A    between atoms: C_16  and  C_17
REMARK    6  A    between atoms: C_17  and  C_18
REMARK    7  A    between atoms: C_18  and  O_19
REMARK    8  A    between atoms: O_19  and  C_20
REMARK                            x       y       z     vdW  Elec       q    Type
REMARK                         _______ _______ _______ _____ _____    ______ ____
ROOT
ATOM      1  C   UNL     1       5.377   5.457  16.014  0.00  0.00    +0.000 A 
ATOM      2  C   UNL     1       5.443   4.221  16.653  0.00  0.00    +0.000 A 
ATOM      3  C   UNL     1       4.698   3.958  17.809  0.00  0.00    +0.000 A 
ATOM      4  C   UNL     1       3.884   4.980  18.317  0.00  0.00    +0.000 A 
ATOM      5  C   UNL     1       3.813   6.235  17.704  0.00  0.00    +0.000 A 
ATOM      6  C   UNL     1       4.576   6.476  16.544  0.00  0.00    +0.000 A 
ATOM      7  C   UNL     1       2.915   7.023  18.473  0.00  0.00    +0.000 A 
ATOM      8  C   UNL     1       2.477   6.248  19.527  0.00  0.00    +0.000 A 
ATOM      9  N   UNL     1       3.047   5.010  19.421  0.00  0.00    +0.000 N 
ATOM     10  C   UNL     1       2.830   3.886  20.301  0.00  0.00    +0.000 C 
ATOM     11  C   UNL     1       1.512   6.734  20.551  0.00  0.00    +0.000 C 
ATOM     12  C   UNL     1       1.413   8.282  20.455  0.00  0.00    +0.000 C 
ATOM     13  N   UNL     1       1.282   8.754  19.052  0.00  0.00    +0.000 NA
ATOM     14  C   UNL     1       2.502   8.441  18.264  0.00  0.00    +0.000 C 
ENDROOT
BRANCH   1  16
ATOM     15  C   UNL     1       6.868   4.757  14.326  0.00  0.00    +0.000 C 
ATOM     16  O   UNL     1       6.078   5.798  14.888  0.00  0.00    +0.000 OA
ENDBRANCH   1  16
BRANCH  13  17
ATOM     17  C   UNL     1       0.985  10.195  19.005  0.00  0.00    +0.000 C 
BRANCH  17  18
ATOM     18  C   UNL     1      -0.305  10.534  18.244  0.00  0.00    +0.000 C 
BRANCH  18  19
ATOM     19  C   UNL     1      -0.877  11.880  18.680  0.00  0.00    +0.000 C 
BRANCH  19  20
ATOM     20  O   UNL     1      -0.256  12.281  19.904  0.00  0.00    +0.000 OA
BRANCH  20  21
ATOM     21  C   UNL     1      -1.038  12.162  21.024  0.00  0.00    +0.000 A 
ATOM     22  C   UNL     1      -0.741  11.370  22.139  0.00  0.00    +0.000 A 
ATOM     23  C   UNL     1      -1.610  11.335  23.229  0.00  0.00    +0.000 A 
ATOM     24  C   UNL     1      -2.775  12.090  23.203  0.00  0.00    +0.000 A 
ATOM     25  F   UNL     1      -3.606  12.056  24.250  0.00  0.00    +0.000 F 
ATOM     26  C   UNL     1      -3.087  12.879  22.102  0.00  0.00    +0.000 A 
ATOM     27  C   UNL     1      -2.217  12.915  21.011  0.00  0.00    +0.000 A 
ENDBRANCH  20  21
ENDBRANCH  19  20
ENDBRANCH  18  19
ENDBRANCH  17  18
ENDBRANCH  13  17
TORSDOF 6
ENDMDL
MODEL 3
REMARK VINA RESULT:      -7.4      0.600      1.132
REMARK  Name = 
REMARK  8 active torsions:
REMARK  status: ('A' for Active; 'I' for Inactive)
REMARK    1  A    between atoms: C_1  and  O_2
REMARK    2  A    between atoms: O_2  and  C_3
REMARK    3  A    between atoms: N_11  and  C_12
REMARK    4  A    between atoms: N_15  and  C_16
REMARK    5  A    between atoms: C_16  and  C_17
REMARK    6  A    between atoms: C_17  and  C_18
REMARK    7  A    between atoms: C_18  and  O_19
REMARK    8  A    between atoms: O_19  and  C_20
REMARK                            x       y       z     vdW  Elec       q    Type
REMARK                         _______ _______ _______ _____ _____    ______ ____
ROOT
ATOM      1  C   UNL     1       6.541   5.746  16.636  0.00  0.00    +0.000 A 
ATOM      2  C   UNL     1       6.429   4.477  16.073  0.00  0.00    +0.000 A 
ATOM      3  C   UNL     1       5.370   3.623  16.408  0.00  0.00    +0.000 A 
ATOM      4  C   UNL     1       4.425   4.076  17.339  0.00  0.00    +0.000 A 
ATOM      5  C   UNL     1       4.525   5.338  17.931  0.00  0.00    +0.000 A 
ATOM      6  C   UNL     1       5.602   6.178  17.580  0.00  0.00    +0.000 A 
ATOM      7  C   UNL     1       3.424   5.470  18.819  0.00  0.00    +0.000 A 
ATOM      8  C   UNL     1       2.698   4.299  18.759  0.00  0.00    +0.000 A 
ATOM      9  N   UNL     1       3.291   3.467  17.852  0.00  0.00    +0.000 N 
ATOM     10  C   UNL     1       2.833   2.154  17.462  0.00  0.00    +0.000 C 
ATOM     11  C   UNL     1       1.459   4.066  19.552  0.00  0.00    +0.000 C 
ATOM     12  C   UNL     1       1.371   5.136  20.674  0.00  0.00    +0.000 C 
ATOM     13  N   UNL     1       1.666   6.504  20.176  0.00  0.00    +0.000 NA
ATOM     14  C   UNL     1       3.074   6.614  19.710  0.00  0.00    +0.000 C 
ENDROOT
BRANCH   1  16
ATOM     15  C   UNL     1       7.731   7.653  17.349  0.00  0.00    +0.000 C 
ATOM     16  O   UNL     1       7.547   6.637  16.371  0.00  0.00    +0.000 OA
ENDBRANCH   1  16
BRANCH  13  17
ATOM     17  C   UNL     1       1.376   7.516  21.205  0.00  0.00    +0.000 C 
BRANCH  17  18
ATOM     18  C   UNL     1       0.268   8.501  20.806  0.00  0.00    +0.000 C 
BRANCH  18  19
ATOM     19  C   UNL     1       0.729   9.949  20.941  0.00  0.00    +0.000 C 
BRANCH  19  20
ATOM     20  O   UNL     1       0.775  10.551  19.645  0.00  0.00    +0.000 OA
BRANCH  20  21
ATOM     21  C   UNL     1      -0.440  10.709  19.029  0.00  0.00    +0.000 A 
ATOM     22  C   UNL     1      -0.874  10.004  17.900  0.00  0.00    +0.000 A 
ATOM     23  C   UNL     1      -2.140  10.243  17.365  0.00  0.00    +0.000 A 
ATOM     24  C   UNL     1      -2.969  11.186  17.957  0.00  0.00    +0.000 A 
ATOM     25  F   UNL     1      -4.183  11.411  17.443  0.00  0.00    +0.000 F 
ATOM     26  C   UNL     1      -2.552  11.896  19.076  0.00  0.00    +0.000 A 
ATOM     27  C   UNL     1      -1.286  11.657  19.613  0.00  0.00    +0.000 A 
ENDBRANCH  20  21
ENDBRANCH  19  20
ENDBRANCH  18  19
ENDBRANCH  17  18
ENDBRANCH  13  17
TORSDOF 6
ENDMDL
MODEL 4
REMARK VINA RESULT:      -7.4      1.663      2.759
REMARK  Name = 
REMARK  8 active torsions:
REMARK  status: ('A' for Active; 'I' for Inactive)
REMARK    1  A    between atoms: C_1  and  O_2
REMARK    2  A    between atoms: O_2  and  C_3
REMARK    3  A    between atoms: N_11  and  C_12
REMARK    4  A    between atoms: N_15  and  C_16
REMARK    5  A    between atoms: C_16  and  C_17
REMARK    6  A    between atoms: C_17  and  C_18
REMARK    7  A    between atoms: C_18  and  O_19
REMARK    8  A    between atoms: O_19  and  C_20
REMARK                            x       y       z     vdW  Elec       q    Type
REMARK                         _______ _______ _______ _____ _____    ______ ____
ROOT
ATOM      1  C   UNL     1       4.900   5.013  16.406  0.00  0.00    +0.000 A 
ATOM      2  C   UNL     1       4.804   3.883  17.214  0.00  0.00    +0.000 A 
ATOM      3  C   UNL     1       4.060   3.897  18.400  0.00  0.00    +0.000 A 
ATOM      4  C   UNL     1       3.416   5.088  18.762  0.00  0.00    +0.000 A 
ATOM      5  C   UNL     1       3.511   6.241  17.978  0.00  0.00    +0.000 A 
ATOM      6  C   UNL     1       4.270   6.203  16.790  0.00  0.00    +0.000 A 
ATOM      7  C   UNL     1       2.757   7.252  18.632  0.00  0.00    +0.000 A 
ATOM      8  C   UNL     1       2.240   6.705  19.787  0.00  0.00    +0.000 A 
ATOM      9  N   UNL     1       2.622   5.395  19.855  0.00  0.00    +0.000 N 
ATOM     10  C   UNL     1       2.268   4.449  20.888  0.00  0.00    +0.000 C 
ATOM     11  C   UNL     1       1.383   7.467  20.738  0.00  0.00    +0.000 C 
ATOM     12  C   UNL     1       1.506   8.983  20.422  0.00  0.00    +0.000 C 
ATOM     13  N   UNL     1       1.408   9.269  18.968  0.00  0.00    +0.000 NA
ATOM     14  C   UNL     1       2.549   8.672  18.225  0.00  0.00    +0.000 C 
ENDROOT
BRANCH   1  16
ATOM     15  C   UNL     1       6.279   3.888  14.858  0.00  0.00    +0.000 C 
ATOM     16  O   UNL     1       5.613   5.087  15.240  0.00  0.00    +0.000 OA
ENDBRANCH   1  16
BRANCH  13  17
ATOM     17  C   UNL     1       1.321  10.717  18.718  0.00  0.00    +0.000 C 
BRANCH  17  18
ATOM     18  C   UNL     1       0.129  11.392  19.412  0.00  0.00    +0.000 C 
BRANCH  18  19
ATOM     19  C   UNL     1      -1.078  10.462  19.486  0.00  0.00    +0.000 C 
BRANCH  19  20
ATOM     20  O   UNL     1      -2.239  11.160  19.030  0.00  0.00    +0.000 OA
BRANCH  20  21
ATOM     21  C   UNL     1      -2.651  10.843  17.761  0.00  0.00    +0.000 A 
ATOM     22  C   UNL     1      -2.020   9.932  16.907  0.00  0.00    +0.000 A 
ATOM     23  C   UNL     1      -2.538   9.681  15.636  0.00  0.00    +0.000 A 
ATOM     24  C   UNL     1      -3.686  10.342  15.221  0.00  0.00    +0.000 A 
ATOM     25  F   UNL     1      -4.182  10.100  14.003  0.00  0.00    +0.000 F 
ATOM     26  C   UNL     1      -4.324  11.253  16.055  0.00  0.00    +0.000 A 
ATOM     27  C   UNL     1      -3.806  11.503  17.327  0.00  0.00    +0.000 A 
ENDBRANCH  20  21
ENDBRANCH  19  20
ENDBRANCH  18  19
ENDBRANCH  17  18
ENDBRANCH  13  17
TORSDOF 6
ENDMDL
MODEL 5
REMARK VINA RESULT:      -7.4      3.324      8.271
REMARK  Name = 
REMARK  8 active torsions:
REMARK  status: ('A' for Active; 'I' for Inactive)
REMARK    1  A    between atoms: C_1  and  O_2
REMARK    2  A    between atoms: O_2  and  C_3
REMARK    3  A    between atoms: N_11  and  C_12
REMARK    4  A    between atoms: N_15  and  C_16
REMARK    5  A    between atoms: C_16  and  C_17
REMARK    6  A    between atoms: C_17  and  C_18
REMARK    7  A    between atoms: C_18  and  O_19
REMARK    8  A    between atoms: O_19  and  C_20
REMARK                            x       y       z     vdW  Elec       q    Type
REMARK                         _______ _______ _______ _____ _____    ______ ____
ROOT
ATOM      1  C   UNL     1      -0.423  12.670  19.159  0.00  0.00    +0.000 A 
ATOM      2  C   UNL     1      -1.030  12.660  20.413  0.00  0.00    +0.000 A 
ATOM      3  C   UNL     1      -0.877  11.577  21.286  0.00  0.00    +0.000 A 
ATOM      4  C   UNL     1      -0.101  10.489  20.862  0.00  0.00    +0.000 A 
ATOM      5  C   UNL     1       0.504  10.467  19.602  0.00  0.00    +0.000 A 
ATOM      6  C   UNL     1       0.332  11.569  18.738  0.00  0.00    +0.000 A 
ATOM      7  C   UNL     1       1.197   9.232  19.495  0.00  0.00    +0.000 A 
ATOM      8  C   UNL     1       0.991   8.535  20.667  0.00  0.00    +0.000 A 
ATOM      9  N   UNL     1       0.225   9.302  21.498  0.00  0.00    +0.000 N 
ATOM     10  C   UNL     1      -0.196   8.962  22.837  0.00  0.00    +0.000 C 
ATOM     11  C   UNL     1       1.572   7.189  20.928  0.00  0.00    +0.000 C 
ATOM     12  C   UNL     1       2.073   6.588  19.586  0.00  0.00    +0.000 C 
ATOM     13  N   UNL     1       2.846   7.567  18.780  0.00  0.00    +0.000 NA
ATOM     14  C   UNL     1       1.989   8.702  18.347  0.00  0.00    +0.000 C 
ENDROOT
BRANCH   1  16
ATOM     15  C   UNL     1      -0.222  14.982  18.736  0.00  0.00    +0.000 C 
ATOM     16  O   UNL     1      -0.529  13.683  18.243  0.00  0.00    +0.000 OA
ENDBRANCH   1  16
BRANCH  13  17
ATOM     17  C   UNL     1       3.479   6.917  17.621  0.00  0.00    +0.000 C 
BRANCH  17  18
ATOM     18  C   UNL     1       4.279   5.657  17.982  0.00  0.00    +0.000 C 
BRANCH  18  19
ATOM     19  C   UNL     1       3.987   4.512  17.017  0.00  0.00    +0.000 C 
BRANCH  19  20
ATOM     20  O   UNL     1       4.068   3.271  17.721  0.00  0.00    +0.000 OA
BRANCH  20  21
ATOM     21  C   UNL     1       3.171   3.119  18.747  0.00  0.00    +0.000 A 
ATOM     22  C   UNL     1       1.778   3.130  18.614  0.00  0.00    +0.000 A 
ATOM     23  C   UNL     1       0.962   2.955  19.732  0.00  0.00    +0.000 A 
ATOM     24  C   UNL     1       1.540   2.773  20.981  0.00  0.00    +0.000 A 
ATOM     25  F   UNL     1       0.756   2.604  22.051  0.00  0.00    +0.000 F 
ATOM     26  C   UNL     1       2.922   2.763  21.131  0.00  0.00    +0.000 A 
ATOM     27  C   UNL     1       3.738   2.937  20.013  0.00  0.00    +0.000 A 
ENDBRANCH  20  21
ENDBRANCH  19  20
ENDBRANCH  18  19
ENDBRANCH  17  18
ENDBRANCH  13  17
TORSDOF 6
ENDMDL
MODEL 6
REMARK VINA RESULT:      -7.3      1.806      2.657
REMARK  Name = 
REMARK  8 active torsions:
REMARK  status: ('A' for Active; 'I' for Inactive)
REMARK    1  A    between atoms: C_1  and  O_2
REMARK    2  A    between atoms: O_2  and  C_3
REMARK    3  A    between atoms: N_11  and  C_12
REMARK    4  A    between atoms: N_15  and  C_16
REMARK    5  A    between atoms: C_16  and  C_17
REMARK    6  A    between atoms: C_17  and  C_18
REMARK    7  A    between atoms: C_18  and  O_19
REMARK    8  A    between atoms: O_19  and  C_20
REMARK                            x       y       z     vdW  Elec       q    Type
REMARK                         _______ _______ _______ _____ _____    ______ ____
ROOT
ATOM      1  C   UNL     1       5.459   5.511  16.003  0.00  0.00    +0.000 A 
ATOM      2  C   UNL     1       5.524   4.309  16.705  0.00  0.00    +0.000 A 
ATOM      3  C   UNL     1       4.773   4.105  17.869  0.00  0.00    +0.000 A 
ATOM      4  C   UNL     1       3.955   5.150  18.320  0.00  0.00    +0.000 A 
ATOM      5  C   UNL     1       3.887   6.372  17.644  0.00  0.00    +0.000 A 
ATOM      6  C   UNL     1       4.655   6.555  16.477  0.00  0.00    +0.000 A 
ATOM      7  C   UNL     1       2.984   7.197  18.367  0.00  0.00    +0.000 A 
ATOM      8  C   UNL     1       2.542   6.477  19.457  0.00  0.00    +0.000 A 
ATOM      9  N   UNL     1       3.113   5.236  19.417  0.00  0.00    +0.000 N 
ATOM     10  C   UNL     1       2.892   4.158  20.352  0.00  0.00    +0.000 C 
ATOM     11  C   UNL     1       1.571   7.014  20.450  0.00  0.00    +0.000 C 
ATOM     12  C   UNL     1       1.471   8.554  20.275  0.00  0.00    +0.000 C 
ATOM     13  N   UNL     1       1.348   8.955  18.850  0.00  0.00    +0.000 NA
ATOM     14  C   UNL     1       2.572   8.603  18.084  0.00  0.00    +0.000 C 
ENDROOT
BRANCH   1  16
ATOM     15  C   UNL     1       6.837   4.688  14.274  0.00  0.00    +0.000 C 
ATOM     16  O   UNL     1       6.166   5.795  14.865  0.00  0.00    +0.000 OA
ENDBRANCH   1  16
BRANCH  13  17
ATOM     17  C   UNL     1       1.050  10.391  18.728  0.00  0.00    +0.000 C 
BRANCH  17  18
ATOM     18  C   UNL     1      -0.181  10.836  19.531  0.00  0.00    +0.000 C 
BRANCH  18  19
ATOM     19  C   UNL     1      -1.042  11.817  18.742  0.00  0.00    +0.000 C 
BRANCH  19  20
ATOM     20  O   UNL     1      -2.055  11.094  18.038  0.00  0.00    +0.000 OA
BRANCH  20  21
ATOM     21  C   UNL     1      -3.331  11.570  18.198  0.00  0.00    +0.000 A 
ATOM     22  C   UNL     1      -3.844  12.139  19.368  0.00  0.00    +0.000 A 
ATOM     23  C   UNL     1      -5.160  12.599  19.411  0.00  0.00    +0.000 A 
ATOM     24  C   UNL     1      -5.963  12.487  18.283  0.00  0.00    +0.000 A 
ATOM     25  F   UNL     1      -7.224  12.930  18.325  0.00  0.00    +0.000 F 
ATOM     26  C   UNL     1      -5.470  11.921  17.113  0.00  0.00    +0.000 A 
ATOM     27  C   UNL     1      -4.153  11.462  17.071  0.00  0.00    +0.000 A 
ENDBRANCH  20  21
ENDBRANCH  19  20
ENDBRANCH  18  19
ENDBRANCH  17  18
ENDBRANCH  13  17
TORSDOF 6
ENDMDL
MODEL 7
REMARK VINA RESULT:      -7.2      3.723      9.194
REMARK  Name = 
REMARK  8 active torsions:
REMARK  status: ('A' for Active; 'I' for Inactive)
REMARK    1  A    between atoms: C_1  and  O_2
REMARK    2  A    between atoms: O_2  and  C_3
REMARK    3  A    between atoms: N_11  and  C_12
REMARK    4  A    between atoms: N_15  and  C_16
REMARK    5  A    between atoms: C_16  and  C_17
REMARK    6  A    between atoms: C_17  and  C_18
REMARK    7  A    between atoms: C_18  and  O_19
REMARK    8  A    between atoms: O_19  and  C_20
REMARK                            x       y       z     vdW  Elec       q    Type
REMARK                         _______ _______ _______ _____ _____    ______ ____
ROOT
ATOM      1  C   UNL     1      -3.765  10.550  15.710  0.00  0.00    +0.000 A 
ATOM      2  C   UNL     1      -4.538  11.481  16.398  0.00  0.00    +0.000 A 
ATOM      3  C   UNL     1      -4.158  11.953  17.660  0.00  0.00    +0.000 A 
ATOM      4  C   UNL     1      -2.976  11.453  18.223  0.00  0.00    +0.000 A 
ATOM      5  C   UNL     1      -2.191  10.504  17.561  0.00  0.00    +0.000 A 
ATOM      6  C   UNL     1      -2.598  10.042  16.293  0.00  0.00    +0.000 A 
ATOM      7  C   UNL     1      -1.087  10.214  18.406  0.00  0.00    +0.000 A 
ATOM      8  C   UNL     1      -1.228  10.970  19.551  0.00  0.00    +0.000 A 
ATOM      9  N   UNL     1      -2.357  11.731  19.432  0.00  0.00    +0.000 N 
ATOM     10  C   UNL     1      -2.854  12.687  20.393  0.00  0.00    +0.000 C 
ATOM     11  C   UNL     1      -0.252  10.938  20.675  0.00  0.00    +0.000 C 
ATOM     12  C   UNL     1       0.665   9.694  20.511  0.00  0.00    +0.000 C 
ATOM     13  N   UNL     1       1.156   9.532  19.118  0.00  0.00    +0.000 NA
ATOM     14  C   UNL     1       0.035   9.256  18.182  0.00  0.00    +0.000 C 
ENDROOT
BRANCH   1  16
ATOM     15  C   UNL     1      -2.960   9.843  13.608  0.00  0.00    +0.000 C 
ATOM     16  O   UNL     1      -4.070  10.031  14.479  0.00  0.00    +0.000 OA
ENDBRANCH   1  16
BRANCH  13  17
ATOM     17  C   UNL     1       2.177   8.476  19.037  0.00  0.00    +0.000 C 
BRANCH  17  18
ATOM     18  C   UNL     1       2.806   8.332  17.643  0.00  0.00    +0.000 C 
BRANCH  18  19
ATOM     19  C   UNL     1       3.633   7.055  17.530  0.00  0.00    +0.000 C 
BRANCH  19  20
ATOM     20  O   UNL     1       3.518   6.310  18.744  0.00  0.00    +0.000 OA
BRANCH  20  21
ATOM     21  C   UNL     1       3.481   4.947  18.593  0.00  0.00    +0.000 A 
ATOM     22  C   UNL     1       2.753   4.259  17.616  0.00  0.00    +0.000 A 
ATOM     23  C   UNL     1       2.801   2.866  17.553  0.00  0.00    +0.000 A 
ATOM     24  C   UNL     1       3.575   2.163  18.466  0.00  0.00    +0.000 A 
ATOM     25  F   UNL     1       3.621   0.829  18.402  0.00  0.00    +0.000 F 
ATOM     26  C   UNL     1       4.302   2.832  19.444  0.00  0.00    +0.000 A 
ATOM     27  C   UNL     1       4.255   4.225  19.508  0.00  0.00    +0.000 A 
ENDBRANCH  20  21
ENDBRANCH  19  20
ENDBRANCH  18  19
ENDBRANCH  17  18
ENDBRANCH  13  17
TORSDOF 6
ENDMDL
MODEL 8
REMARK VINA RESULT:      -7.2      3.777      5.112
REMARK  Name = 
REMARK  8 active torsions:
REMARK  status: ('A' for Active; 'I' for Inactive)
REMARK    1  A    between atoms: C_1  and  O_2
REMARK    2  A    between atoms: O_2  and  C_3
REMARK    3  A    between atoms: N_11  and  C_12
REMARK    4  A    between atoms: N_15  and  C_16
REMARK    5  A    between atoms: C_16  and  C_17
REMARK    6  A    between atoms: C_17  and  C_18
REMARK    7  A    between atoms: C_18  and  O_19
REMARK    8  A    between atoms: O_19  and  C_20
REMARK                            x       y       z     vdW  Elec       q    Type
REMARK                         _______ _______ _______ _____ _____    ______ ____
ROOT
ATOM      1  C   UNL     1       3.387   3.333  20.243  0.00  0.00    +0.000 A 
ATOM      2  C   UNL     1       4.214   3.176  19.134  0.00  0.00    +0.000 A 
ATOM      3  C   UNL     1       4.395   4.211  18.207  0.00  0.00    +0.000 A 
ATOM      4  C   UNL     1       3.710   5.415  18.420  0.00  0.00    +0.000 A 
ATOM      5  C   UNL     1       2.860   5.592  19.516  0.00  0.00    +0.000 A 
ATOM      6  C   UNL     1       2.692   4.534  20.432  0.00  0.00    +0.000 A 
ATOM      7  C   UNL     1       2.329   6.906  19.422  0.00  0.00    +0.000 A 
ATOM      8  C   UNL     1       2.847   7.485  18.283  0.00  0.00    +0.000 A 
ATOM      9  N   UNL     1       3.695   6.593  17.690  0.00  0.00    +0.000 N 
ATOM     10  C   UNL     1       4.472   6.810  16.492  0.00  0.00    +0.000 C 
ATOM     11  C   UNL     1       2.522   8.873  17.853  0.00  0.00    +0.000 C 
ATOM     12  C   UNL     1       1.275   9.365  18.639  0.00  0.00    +0.000 C 
ATOM     13  N   UNL     1       1.361   9.056  20.089  0.00  0.00    +0.000 NA
ATOM     14  C   UNL     1       1.358   7.588  20.327  0.00  0.00    +0.000 C 
ENDROOT
BRANCH   1  16
ATOM     15  C   UNL     1       1.873   2.438  21.814  0.00  0.00    +0.000 C 
ATOM     16  O   UNL     1       3.149   2.372  21.188  0.00  0.00    +0.000 OA
ENDBRANCH   1  16
BRANCH  13  17
ATOM     17  C   UNL     1       0.273   9.708  20.835  0.00  0.00    +0.000 C 
BRANCH  17  18
ATOM     18  C   UNL     1       0.381   9.539  22.357  0.00  0.00    +0.000 C 
BRANCH  18  19
ATOM     19  C   UNL     1      -0.711  10.315  23.087  0.00  0.00    +0.000 C 
BRANCH  19  20
ATOM     20  O   UNL     1      -0.529  11.714  22.858  0.00  0.00    +0.000 OA
BRANCH  20  21
ATOM     21  C   UNL     1      -1.577  12.511  23.241  0.00  0.00    +0.000 A 
ATOM     22  C   UNL     1      -2.891  12.079  23.449  0.00  0.00    +0.000 A 
ATOM     23  C   UNL     1      -3.875  12.982  23.850  0.00  0.00    +0.000 A 
ATOM     24  C   UNL     1      -3.545  14.317  24.040  0.00  0.00    +0.000 A 
ATOM     25  F   UNL     1      -4.490  15.182  24.426  0.00  0.00    +0.000 F 
ATOM     26  C   UNL     1      -2.245  14.764  23.835  0.00  0.00    +0.000 A 
ATOM     27  C   UNL     1      -1.260  13.860  23.435  0.00  0.00    +0.000 A 
ENDBRANCH  20  21
ENDBRANCH  19  20
ENDBRANCH  18  19
ENDBRANCH  17  18
ENDBRANCH  13  17
TORSDOF 6
ENDMDL
MODEL 9
REMARK VINA RESULT:      -7.1      1.751      2.500
REMARK  Name = 
REMARK  8 active torsions:
REMARK  status: ('A' for Active; 'I' for Inactive)
REMARK    1  A    between atoms: C_1  and  O_2
REMARK    2  A    between atoms: O_2  and  C_3
REMARK    3  A    between atoms: N_11  and  C_12
REMARK    4  A    between atoms: N_15  and  C_16
REMARK    5  A    between atoms: C_16  and  C_17
REMARK    6  A    between atoms: C_17  and  C_18
REMARK    7  A    between atoms: C_18  and  O_19
REMARK    8  A    between atoms: O_19  and  C_20
REMARK                            x       y       z     vdW  Elec       q    Type
REMARK                         _______ _______ _______ _____ _____    ______ ____
ROOT
ATOM      1  C   UNL     1       5.636   5.310  15.758  0.00  0.00    +0.000 A 
ATOM      2  C   UNL     1       5.749   4.038  16.313  0.00  0.00    +0.000 A 
ATOM      3  C   UNL     1       5.034   3.680  17.463  0.00  0.00    +0.000 A 
ATOM      4  C   UNL     1       4.205   4.643  18.053  0.00  0.00    +0.000 A 
ATOM      5  C   UNL     1       4.088   5.933  17.525  0.00  0.00    +0.000 A 
ATOM      6  C   UNL     1       4.821   6.271  16.369  0.00  0.00    +0.000 A 
ATOM      7  C   UNL     1       3.186   6.644  18.361  0.00  0.00    +0.000 A 
ATOM      8  C   UNL     1       2.791   5.790  19.370  0.00  0.00    +0.000 A 
ATOM      9  N   UNL     1       3.390   4.579  19.172  0.00  0.00    +0.000 N 
ATOM     10  C   UNL     1       3.221   3.394  19.980  0.00  0.00    +0.000 C 
ATOM     11  C   UNL     1       1.835   6.183  20.442  0.00  0.00    +0.000 C 
ATOM     12  C   UNL     1       1.693   7.730  20.450  0.00  0.00    +0.000 C 
ATOM     13  N   UNL     1       1.521   8.289  19.084  0.00  0.00    +0.000 NA
ATOM     14  C   UNL     1       2.733   8.061  18.254  0.00  0.00    +0.000 C 
ENDROOT
BRANCH   1  16
ATOM     15  C   UNL     1       6.964   4.727  13.898  0.00  0.00    +0.000 C 
ATOM     16  O   UNL     1       6.305   5.744  14.644  0.00  0.00    +0.000 OA
ENDBRANCH   1  16
BRANCH  13  17
ATOM     17  C   UNL     1       1.186   9.721  19.138  0.00  0.00    +0.000 C 
BRANCH  17  18
ATOM     18  C   UNL     1       0.274  10.184  17.993  0.00  0.00    +0.000 C 
BRANCH  18  19
ATOM     19  C   UNL     1      -1.140  10.479  18.485  0.00  0.00    +0.000 C 
BRANCH  19  20
ATOM     20  O   UNL     1      -1.863  11.162  17.459  0.00  0.00    +0.000 OA
BRANCH  20  21
ATOM     21  C   UNL     1      -3.148  11.512  17.783  0.00  0.00    +0.000 A 
ATOM     22  C   UNL     1      -4.248  11.448  16.920  0.00  0.00    +0.000 A 
ATOM     23  C   UNL     1      -5.516  11.822  17.365  0.00  0.00    +0.000 A 
ATOM     24  C   UNL     1      -5.683  12.261  18.671  0.00  0.00    +0.000 A 
ATOM     25  F   UNL     1      -6.900  12.618  19.097  0.00  0.00    +0.000 F 
ATOM     26  C   UNL     1      -4.601  12.334  19.541  0.00  0.00    +0.000 A 
ATOM     27  C   UNL     1      -3.333  11.959  19.096  0.00  0.00    +0.000 A 
ENDBRANCH  20  21
ENDBRANCH  19  20
ENDBRANCH  18  19
ENDBRANCH  17  18
ENDBRANCH  13  17
TORSDOF 6
ENDMDL
