MODEL 1
REMARK VINA RESULT:      -6.8      0.000      0.000
REMARK  Name = 
REMARK  9 active torsions:
REMARK  status: ('A' for Active; 'I' for Inactive)
REMARK    1  A    between atoms: C_1  and  C_2
REMARK    2  A    between atoms: C_2  and  O_3
REMARK    3  A    between atoms: O_3  and  C_4
REMARK    4  A    between atoms: C_4  and  C_6
REMARK    5  A    between atoms: C_9  and  N_10
REMARK    6  A    between atoms: C_11  and  C_13
REMARK    7  A    between atoms: C_13  and  S_14
REMARK    8  A    between atoms: S_14  and  C_15
REMARK    9  A    between atoms: N_19  and  C_20
REMARK                            x       y       z     vdW  Elec       q    Type
REMARK                         _______ _______ _______ _____ _____    ______ ____
ROOT
ATOM      1  N   UNL     1       4.069   5.294  18.957  0.00  0.00    +0.000 N 
ATOM      2  C   UNL     1       2.693   5.445  19.094  0.00  0.00    +0.000 C 
ATOM      3  O   UNL     1       1.879   5.465  18.173  0.00  0.00    +0.000 OA
ATOM      4  H   UNL     1       4.563   5.005  19.802  0.00  0.00    +0.000 HD
ENDROOT
BRANCH   1   8
ATOM      5  C   UNL     1       6.276   5.014  15.360  0.00  0.00    +0.000 A 
ATOM      6  C   UNL     1       5.234   4.116  15.609  0.00  0.00    +0.000 A 
ATOM      7  C   UNL     1       4.490   4.207  16.787  0.00  0.00    +0.000 A 
ATOM      8  C   UNL     1       4.774   5.190  17.738  0.00  0.00    +0.000 A 
ATOM      9  C   UNL     1       5.798   6.106  17.478  0.00  0.00    +0.000 A 
ATOM     10  C   UNL     1       6.555   6.014  16.300  0.00  0.00    +0.000 A 
BRANCH   5  11
ATOM     11  C   UNL     1       7.085   4.803  14.132  0.00  0.00    +0.000 C 
ATOM     12  O   UNL     1       7.845   5.644  13.667  0.00  0.00    +0.000 OA
BRANCH  11  13
ATOM     13  O   UNL     1       6.769   3.615  13.568  0.00  0.00    +0.000 OA
BRANCH  13  15
ATOM     14  C   UNL     1       5.063   3.347  11.921  0.00  0.00    +0.000 C 
ATOM     15  C   UNL     1       6.530   3.659  12.155  0.00  0.00    +0.000 C 
ENDBRANCH  13  15
ENDBRANCH  11  13
ENDBRANCH   5  11
ENDBRANCH   1   8
BRANCH   2  16
ATOM     16  C   UNL     1       2.225   5.551  20.537  0.00  0.00    +0.000 C 
BRANCH  16  17
ATOM     17  S   UNL     1       1.582   3.954  21.120  0.00  0.00    +0.000 S 
BRANCH  17  18
ATOM     18  C   UNL     1       2.644   2.871  20.289  0.00  0.00    +0.000 A 
ATOM     19  N   UNL     1       3.915   2.692  20.582  0.00  0.00    +0.000 NA
ATOM     20  C   UNL     1       4.372   1.799  19.645  0.00  0.00    +0.000 A 
ATOM     21  C   UNL     1       3.380   1.482  18.747  0.00  0.00    +0.000 A 
ATOM     22  N   UNL     1       2.272   2.162  19.181  0.00  0.00    +0.000 N 
ATOM     23  C   UNL     1       0.979   2.140  18.540  0.00  0.00    +0.000 C 
ENDBRANCH  17  18
ENDBRANCH  16  17
ENDBRANCH   2  16
TORSDOF 7
ENDMDL
MODEL 2
REMARK VINA RESULT:      -6.6      0.958      1.305
REMARK  Name = 
REMARK  9 active torsions:
REMARK  status: ('A' for Active; 'I' for Inactive)
REMARK    1  A    between atoms: C_1  and  C_2
REMARK    2  A    between atoms: C_2  and  O_3
REMARK    3  A    between atoms: O_3  and  C_4
REMARK    4  A    between atoms: C_4  and  C_6
REMARK    5  A    between atoms: C_9  and  N_10
REMARK    6  A    between atoms: C_11  and  C_13
REMARK    7  A    between atoms: C_13  and  S_14
REMARK    8  A    between atoms: S_14  and  C_15
REMARK    9  A    between atoms: N_19  and  C_20
REMARK                            x       y       z     vdW  Elec       q    Type
REMARK                         _______ _______ _______ _____ _____    ______ ____
ROOT
ATOM      1  N   UNL     1       3.325   5.295  17.998  0.00  0.00    +0.000 N 
ATOM      2  C   UNL     1       3.544   5.469  19.360  0.00  0.00    +0.000 C 
ATOM      3  O   UNL     1       4.641   5.604  19.899  0.00  0.00    +0.000 OA
ATOM      4  H   UNL     1       2.376   5.492  17.679  0.00  0.00    +0.000 HD
ENDROOT
BRANCH   1   8
ATOM      5  C   UNL     1       6.267   4.885  14.988  0.00  0.00    +0.000 A 
ATOM      6  C   UNL     1       5.797   6.155  15.332  0.00  0.00    +0.000 A 
ATOM      7  C   UNL     1       4.835   6.303  16.334  0.00  0.00    +0.000 A 
ATOM      8  C   UNL     1       4.323   5.190  17.005  0.00  0.00    +0.000 A 
ATOM      9  C   UNL     1       4.814   3.921  16.680  0.00  0.00    +0.000 A 
ATOM     10  C   UNL     1       5.773   3.765  15.668  0.00  0.00    +0.000 A 
BRANCH   5  11
ATOM     11  C   UNL     1       7.221   4.790  13.852  0.00  0.00    +0.000 C 
ATOM     12  O   UNL     1       7.975   5.695  13.521  0.00  0.00    +0.000 OA
BRANCH  11  13
ATOM     13  O   UNL     1       7.041   3.620  13.195  0.00  0.00    +0.000 OA
BRANCH  13  15
ATOM     14  C   UNL     1       5.057   3.247  11.922  0.00  0.00    +0.000 C 
ATOM     15  C   UNL     1       6.492   3.743  11.876  0.00  0.00    +0.000 C 
ENDBRANCH  13  15
ENDBRANCH  11  13
ENDBRANCH   5  11
ENDBRANCH   1   8
BRANCH   2  16
ATOM     16  C   UNL     1       2.269   5.526  20.188  0.00  0.00    +0.000 C 
BRANCH  16  17
ATOM     17  S   UNL     1       2.138   4.066  21.262  0.00  0.00    +0.000 S 
BRANCH  17  18
ATOM     18  C   UNL     1       2.804   2.856  20.223  0.00  0.00    +0.000 A 
ATOM     19  N   UNL     1       4.045   2.418  20.277  0.00  0.00    +0.000 NA
ATOM     20  C   UNL     1       4.147   1.516  19.247  0.00  0.00    +0.000 A 
ATOM     21  C   UNL     1       2.973   1.453  18.534  0.00  0.00    +0.000 A 
ATOM     22  N   UNL     1       2.114   2.303  19.180  0.00  0.00    +0.000 N 
ATOM     23  C   UNL     1       0.753   2.570  18.782  0.00  0.00    +0.000 C 
ENDBRANCH  17  18
ENDBRANCH  16  17
ENDBRANCH   2  16
TORSDOF 7
ENDMDL
MODEL 3
REMARK VINA RESULT:      -6.5      1.114      1.663
REMARK  Name = 
REMARK  9 active torsions:
REMARK  status: ('A' for Active; 'I' for Inactive)
REMARK    1  A    between atoms: C_1  and  C_2
REMARK    2  A    between atoms: C_2  and  O_3
REMARK    3  A    between atoms: O_3  and  C_4
REMARK    4  A    between atoms: C_4  and  C_6
REMARK    5  A    between atoms: C_9  and  N_10
REMARK    6  A    between atoms: C_11  and  C_13
REMARK    7  A    between atoms: C_13  and  S_14
REMARK    8  A    between atoms: S_14  and  C_15
REMARK    9  A    between atoms: N_19  and  C_20
REMARK                            x       y       z     vdW  Elec       q    Type
REMARK                         _______ _______ _______ _____ _____    ______ ____
ROOT
ATOM      1  N   UNL     1       3.298   5.620  18.116  0.00  0.00    +0.000 N 
ATOM      2  C   UNL     1       3.639   5.691  19.462  0.00  0.00    +0.000 C 
ATOM      3  O   UNL     1       4.778   5.614  19.918  0.00  0.00    +0.000 OA
ATOM      4  H   UNL     1       2.376   5.990  17.879  0.00  0.00    +0.000 HD
ENDROOT
BRANCH   1   8
ATOM      5  C   UNL     1       6.028   5.031  14.940  0.00  0.00    +0.000 A 
ATOM      6  C   UNL     1       5.466   3.928  15.588  0.00  0.00    +0.000 A 
ATOM      7  C   UNL     1       4.553   4.111  16.629  0.00  0.00    +0.000 A 
ATOM      8  C   UNL     1       4.189   5.394  17.045  0.00  0.00    +0.000 A 
ATOM      9  C   UNL     1       4.730   6.498  16.379  0.00  0.00    +0.000 A 
ATOM     10  C   UNL     1       5.654   6.320  15.338  0.00  0.00    +0.000 A 
BRANCH   5  11
ATOM     11  C   UNL     1       7.060   4.768  13.905  0.00  0.00    +0.000 C 
ATOM     12  O   UNL     1       7.913   5.581  13.573  0.00  0.00    +0.000 OA
BRANCH  11  13
ATOM     13  O   UNL     1       6.838   3.564  13.327  0.00  0.00    +0.000 OA
BRANCH  13  15
ATOM     14  C   UNL     1       5.000   3.246  11.838  0.00  0.00    +0.000 C 
ATOM     15  C   UNL     1       6.469   3.615  11.942  0.00  0.00    +0.000 C 
ENDBRANCH  13  15
ENDBRANCH  11  13
ENDBRANCH   5  11
ENDBRANCH   1   8
BRANCH   2  16
ATOM     16  C   UNL     1       2.454   5.924  20.387  0.00  0.00    +0.000 C 
BRANCH  16  17
ATOM     17  S   UNL     1       2.090   4.427  21.350  0.00  0.00    +0.000 S 
BRANCH  17  18
ATOM     18  C   UNL     1       1.837   3.291  20.072  0.00  0.00    +0.000 A 
ATOM     19  N   UNL     1       0.695   3.114  19.439  0.00  0.00    +0.000 NA
ATOM     20  C   UNL     1       0.935   2.090  18.557  0.00  0.00    +0.000 A 
ATOM     21  C   UNL     1       2.217   1.612  18.699  0.00  0.00    +0.000 A 
ATOM     22  N   UNL     1       2.790   2.401  19.662  0.00  0.00    +0.000 N 
ATOM     23  C   UNL     1       4.140   2.266  20.154  0.00  0.00    +0.000 C 
ENDBRANCH  17  18
ENDBRANCH  16  17
ENDBRANCH   2  16
TORSDOF 7
ENDMDL
MODEL 4
REMARK VINA RESULT:      -6.4      4.019      7.141
REMARK  Name = 
REMARK  9 active torsions:
REMARK  status: ('A' for Active; 'I' for Inactive)
REMARK    1  A    between atoms: C_1  and  C_2
REMARK    2  A    between atoms: C_2  and  O_3
REMARK    3  A    between atoms: O_3  and  C_4
REMARK    4  A    between atoms: C_4  and  C_6
REMARK    5  A    between atoms: C_9  and  N_10
REMARK    6  A    between atoms: C_11  and  C_13
REMARK    7  A    between atoms: C_13  and  S_14
REMARK    8  A    between atoms: S_14  and  C_15
REMARK    9  A    between atoms: N_19  and  C_20
REMARK                            x       y       z     vdW  Elec       q    Type
REMARK                         _______ _______ _______ _____ _____    ______ ____
ROOT
ATOM      1  N   UNL     1       2.981   6.176  19.723  0.00  0.00    +0.000 N 
ATOM      2  C   UNL     1       2.449   4.918  19.989  0.00  0.00    +0.000 C 
ATOM      3  O   UNL     1       1.257   4.664  20.150  0.00  0.00    +0.000 OA
ATOM      4  H   UNL     1       3.923   6.177  19.329  0.00  0.00    +0.000 HD
ENDROOT
BRANCH   1   8
ATOM      5  C   UNL     1       0.772   9.767  19.386  0.00  0.00    +0.000 A 
ATOM      6  C   UNL     1       0.844   9.106  20.616  0.00  0.00    +0.000 A 
ATOM      7  C   UNL     1       1.580   7.927  20.742  0.00  0.00    +0.000 A 
ATOM      8  C   UNL     1       2.254   7.384  19.645  0.00  0.00    +0.000 A 
ATOM      9  C   UNL     1       2.207   8.059  18.421  0.00  0.00    +0.000 A 
ATOM     10  C   UNL     1       1.461   9.239  18.287  0.00  0.00    +0.000 A 
BRANCH   5  11
ATOM     11  C   UNL     1      -0.103  10.964  19.299  0.00  0.00    +0.000 C 
ATOM     12  O   UNL     1      -1.216  11.030  19.804  0.00  0.00    +0.000 OA
BRANCH  11  13
ATOM     13  O   UNL     1       0.467  11.896  18.499  0.00  0.00    +0.000 OA
BRANCH  13  15
ATOM     14  C   UNL     1       2.580  12.987  18.302  0.00  0.00    +0.000 C 
ATOM     15  C   UNL     1       1.342  12.815  19.165  0.00  0.00    +0.000 C 
ENDBRANCH  13  15
ENDBRANCH  11  13
ENDBRANCH   5  11
ENDBRANCH   1   8
BRANCH   2  16
ATOM     16  C   UNL     1       3.486   3.806  20.030  0.00  0.00    +0.000 C 
BRANCH  16  17
ATOM     17  S   UNL     1       4.174   3.511  18.375  0.00  0.00    +0.000 S 
BRANCH  17  18
ATOM     18  C   UNL     1       5.651   4.401  18.490  0.00  0.00    +0.000 A 
ATOM     19  N   UNL     1       6.079   5.011  19.576  0.00  0.00    +0.000 NA
ATOM     20  C   UNL     1       7.247   5.626  19.200  0.00  0.00    +0.000 A 
ATOM     21  C   UNL     1       7.494   5.429  17.862  0.00  0.00    +0.000 A 
ATOM     22  N   UNL     1       6.473   4.628  17.421  0.00  0.00    +0.000 N 
ATOM     23  C   UNL     1       6.307   4.160  16.066  0.00  0.00    +0.000 C 
ENDBRANCH  17  18
ENDBRANCH  16  17
ENDBRANCH   2  16
TORSDOF 7
ENDMDL
MODEL 5
REMARK VINA RESULT:      -6.4      4.177      7.129
REMARK  Name = 
REMARK  9 active torsions:
REMARK  status: ('A' for Active; 'I' for Inactive)
REMARK    1  A    between atoms: C_1  and  C_2
REMARK    2  A    between atoms: C_2  and  O_3
REMARK    3  A    between atoms: O_3  and  C_4
REMARK    4  A    between atoms: C_4  and  C_6
REMARK    5  A    between atoms: C_9  and  N_10
REMARK    6  A    between atoms: C_11  and  C_13
REMARK    7  A    between atoms: C_13  and  S_14
REMARK    8  A    between atoms: S_14  and  C_15
REMARK    9  A    between atoms: N_19  and  C_20
REMARK                            x       y       z     vdW  Elec       q    Type
REMARK                         _______ _______ _______ _____ _____    ______ ____
ROOT
ATOM      1  N   UNL     1       2.655   6.573  20.032  0.00  0.00    +0.000 N 
ATOM      2  C   UNL     1       2.573   5.366  19.346  0.00  0.00    +0.000 C 
ATOM      3  O   UNL     1       1.941   5.173  18.309  0.00  0.00    +0.000 OA
ATOM      4  H   UNL     1       3.434   6.651  20.688  0.00  0.00    +0.000 HD
ENDROOT
BRANCH   1   8
ATOM      5  C   UNL     1       0.668  10.191  19.113  0.00  0.00    +0.000 A 
ATOM      6  C   UNL     1       1.481   9.581  18.154  0.00  0.00    +0.000 A 
ATOM      7  C   UNL     1       2.131   8.380  18.442  0.00  0.00    +0.000 A 
ATOM      8  C   UNL     1       1.987   7.769  19.691  0.00  0.00    +0.000 A 
ATOM      9  C   UNL     1       1.151   8.364  20.641  0.00  0.00    +0.000 A 
ATOM     10  C   UNL     1       0.502   9.576  20.360  0.00  0.00    +0.000 A 
BRANCH   5  11
ATOM     11  C   UNL     1       0.080  11.513  18.775  0.00  0.00    +0.000 C 
ATOM     12  O   UNL     1       0.746  12.517  18.556  0.00  0.00    +0.000 OA
BRANCH  11  13
ATOM     13  O   UNL     1      -1.270  11.454  18.860  0.00  0.00    +0.000 OA
BRANCH  13  15
ATOM     14  C   UNL     1      -2.261  10.038  17.215  0.00  0.00    +0.000 C 
ATOM     15  C   UNL     1      -1.958  11.475  17.602  0.00  0.00    +0.000 C 
ENDBRANCH  13  15
ENDBRANCH  11  13
ENDBRANCH   5  11
ENDBRANCH   1   8
BRANCH   2  16
ATOM     16  C   UNL     1       3.391   4.245  19.968  0.00  0.00    +0.000 C 
BRANCH  16  17
ATOM     17  S   UNL     1       4.332   3.357  18.693  0.00  0.00    +0.000 S 
BRANCH  17  18
ATOM     18  C   UNL     1       5.723   4.376  18.568  0.00  0.00    +0.000 A 
ATOM     19  N   UNL     1       6.264   5.037  19.571  0.00  0.00    +0.000 NA
ATOM     20  C   UNL     1       7.296   5.747  19.010  0.00  0.00    +0.000 A 
ATOM     21  C   UNL     1       7.342   5.553  17.650  0.00  0.00    +0.000 A 
ATOM     22  N   UNL     1       6.339   4.658  17.380  0.00  0.00    +0.000 N 
ATOM     23  C   UNL     1       6.000   4.159  16.070  0.00  0.00    +0.000 C 
ENDBRANCH  17  18
ENDBRANCH  16  17
ENDBRANCH   2  16
TORSDOF 7
ENDMDL
MODEL 6
REMARK VINA RESULT:      -6.4      0.528      1.150
REMARK  Name = 
REMARK  9 active torsions:
REMARK  status: ('A' for Active; 'I' for Inactive)
REMARK    1  A    between atoms: C_1  and  C_2
REMARK    2  A    between atoms: C_2  and  O_3
REMARK    3  A    between atoms: O_3  and  C_4
REMARK    4  A    between atoms: C_4  and  C_6
REMARK    5  A    between atoms: C_9  and  N_10
REMARK    6  A    between atoms: C_11  and  C_13
REMARK    7  A    between atoms: C_13  and  S_14
REMARK    8  A    between atoms: S_14  and  C_15
REMARK    9  A    between atoms: N_19  and  C_20
REMARK                            x       y       z     vdW  Elec       q    Type
REMARK                         _______ _______ _______ _____ _____    ______ ____
ROOT
ATOM      1  N   UNL     1       4.238   5.392  18.921  0.00  0.00    +0.000 N 
ATOM      2  C   UNL     1       2.871   5.635  18.997  0.00  0.00    +0.000 C 
ATOM      3  O   UNL     1       2.103   5.716  18.041  0.00  0.00    +0.000 OA
ATOM      4  H   UNL     1       4.673   5.064  19.785  0.00  0.00    +0.000 HD
ENDROOT
BRANCH   1   8
ATOM      5  C   UNL     1       6.406   4.915  15.320  0.00  0.00    +0.000 A 
ATOM      6  C   UNL     1       6.560   6.080  16.076  0.00  0.00    +0.000 A 
ATOM      7  C   UNL     1       5.860   6.242  17.273  0.00  0.00    +0.000 A 
ATOM      8  C   UNL     1       4.990   5.250  17.734  0.00  0.00    +0.000 A 
ATOM      9  C   UNL     1       4.857   4.072  16.993  0.00  0.00    +0.000 A 
ATOM     10  C   UNL     1       5.551   3.907  15.785  0.00  0.00    +0.000 A 
BRANCH   5  11
ATOM     11  C   UNL     1       7.108   4.845  14.013  0.00  0.00    +0.000 C 
ATOM     12  O   UNL     1       8.036   5.580  13.701  0.00  0.00    +0.000 OA
BRANCH  11  13
ATOM     13  O   UNL     1       6.498   3.945  13.208  0.00  0.00    +0.000 OA
BRANCH  13  15
ATOM     14  C   UNL     1       6.915   2.393  11.444  0.00  0.00    +0.000 C 
ATOM     15  C   UNL     1       7.051   3.838  11.889  0.00  0.00    +0.000 C 
ENDBRANCH  13  15
ENDBRANCH  11  13
ENDBRANCH   5  11
ENDBRANCH   1   8
BRANCH   2  16
ATOM     16  C   UNL     1       2.345   5.760  20.418  0.00  0.00    +0.000 C 
BRANCH  16  17
ATOM     17  S   UNL     1       1.491   4.238  20.921  0.00  0.00    +0.000 S 
BRANCH  17  18
ATOM     18  C   UNL     1       2.556   3.050  20.255  0.00  0.00    +0.000 A 
ATOM     19  N   UNL     1       3.799   2.852  20.643  0.00  0.00    +0.000 NA
ATOM     20  C   UNL     1       4.275   1.866  19.815  0.00  0.00    +0.000 A 
ATOM     21  C   UNL     1       3.327   1.507  18.886  0.00  0.00    +0.000 A 
ATOM     22  N   UNL     1       2.223   2.261  19.189  0.00  0.00    +0.000 N 
ATOM     23  C   UNL     1       0.971   2.230  18.471  0.00  0.00    +0.000 C 
ENDBRANCH  17  18
ENDBRANCH  16  17
ENDBRANCH   2  16
TORSDOF 7
ENDMDL
MODEL 7
REMARK VINA RESULT:      -6.4      0.923      1.435
REMARK  Name = 
REMARK  9 active torsions:
REMARK  status: ('A' for Active; 'I' for Inactive)
REMARK    1  A    between atoms: C_1  and  C_2
REMARK    2  A    between atoms: C_2  and  O_3
REMARK    3  A    between atoms: O_3  and  C_4
REMARK    4  A    between atoms: C_4  and  C_6
REMARK    5  A    between atoms: C_9  and  N_10
REMARK    6  A    between atoms: C_11  and  C_13
REMARK    7  A    between atoms: C_13  and  S_14
REMARK    8  A    between atoms: S_14  and  C_15
REMARK    9  A    between atoms: N_19  and  C_20
REMARK                            x       y       z     vdW  Elec       q    Type
REMARK                         _______ _______ _______ _____ _____    ______ ____
ROOT
ATOM      1  N   UNL     1       3.984   5.502  18.789  0.00  0.00    +0.000 N 
ATOM      2  C   UNL     1       2.873   6.320  18.960  0.00  0.00    +0.000 C 
ATOM      3  O   UNL     1       2.343   7.002  18.084  0.00  0.00    +0.000 OA
ATOM      4  H   UNL     1       4.119   4.792  19.510  0.00  0.00    +0.000 HD
ENDROOT
BRANCH   1   8
ATOM      5  C   UNL     1       6.306   5.082  15.279  0.00  0.00    +0.000 A 
ATOM      6  C   UNL     1       5.226   4.224  15.506  0.00  0.00    +0.000 A 
ATOM      7  C   UNL     1       4.445   4.362  16.654  0.00  0.00    +0.000 A 
ATOM      8  C   UNL     1       4.729   5.353  17.598  0.00  0.00    +0.000 A 
ATOM      9  C   UNL     1       5.792   6.229  17.359  0.00  0.00    +0.000 A 
ATOM     10  C   UNL     1       6.586   6.089  16.210  0.00  0.00    +0.000 A 
BRANCH   5  11
ATOM     11  C   UNL     1       7.151   4.822  14.085  0.00  0.00    +0.000 C 
ATOM     12  O   UNL     1       7.946   5.632  13.625  0.00  0.00    +0.000 OA
BRANCH  11  13
ATOM     13  O   UNL     1       6.825   3.627  13.539  0.00  0.00    +0.000 OA
BRANCH  13  15
ATOM     14  C   UNL     1       5.141   3.333  11.875  0.00  0.00    +0.000 C 
ATOM     15  C   UNL     1       6.606   3.646  12.123  0.00  0.00    +0.000 C 
ENDBRANCH  13  15
ENDBRANCH  11  13
ENDBRANCH   5  11
ENDBRANCH   1   8
BRANCH   2  16
ATOM     16  C   UNL     1       2.294   6.289  20.366  0.00  0.00    +0.000 C 
BRANCH  16  17
ATOM     17  S   UNL     1       0.881   5.149  20.450  0.00  0.00    +0.000 S 
BRANCH  17  18
ATOM     18  C   UNL     1       1.522   3.796  19.587  0.00  0.00    +0.000 A 
ATOM     19  N   UNL     1       1.317   3.553  18.309  0.00  0.00    +0.000 NA
ATOM     20  C   UNL     1       1.959   2.364  18.067  0.00  0.00    +0.000 A 
ATOM     21  C   UNL     1       2.508   1.861  19.222  0.00  0.00    +0.000 A 
ATOM     22  N   UNL     1       2.237   2.796  20.187  0.00  0.00    +0.000 N 
ATOM     23  C   UNL     1       2.617   2.694  21.575  0.00  0.00    +0.000 C 
ENDBRANCH  17  18
ENDBRANCH  16  17
ENDBRANCH   2  16
TORSDOF 7
ENDMDL
MODEL 8
REMARK VINA RESULT:      -6.4      4.042      7.161
REMARK  Name = 
REMARK  9 active torsions:
REMARK  status: ('A' for Active; 'I' for Inactive)
REMARK    1  A    between atoms: C_1  and  C_2
REMARK    2  A    between atoms: C_2  and  O_3
REMARK    3  A    between atoms: O_3  and  C_4
REMARK    4  A    between atoms: C_4  and  C_6
REMARK    5  A    between atoms: C_9  and  N_10
REMARK    6  A    between atoms: C_11  and  C_13
REMARK    7  A    between atoms: C_13  and  S_14
REMARK    8  A    between atoms: S_14  and  C_15
REMARK    9  A    between atoms: N_19  and  C_20
REMARK                            x       y       z     vdW  Elec       q    Type
REMARK                         _______ _______ _______ _____ _____    ______ ____
ROOT
ATOM      1  N   UNL     1       3.119   6.097  19.093  0.00  0.00    +0.000 N 
ATOM      2  C   UNL     1       2.667   4.910  18.527  0.00  0.00    +0.000 C 
ATOM      3  O   UNL     1       1.608   4.763  17.921  0.00  0.00    +0.000 OA
ATOM      4  H   UNL     1       4.120   6.133  19.293  0.00  0.00    +0.000 HD
ENDROOT
BRANCH   1   8
ATOM      5  C   UNL     1       0.992   9.752  19.062  0.00  0.00    +0.000 A 
ATOM      6  C   UNL     1       1.033   8.981  20.227  0.00  0.00    +0.000 A 
ATOM      7  C   UNL     1       1.743   7.779  20.252  0.00  0.00    +0.000 A 
ATOM      8  C   UNL     1       2.420   7.323  19.118  0.00  0.00    +0.000 A 
ATOM      9  C   UNL     1       2.402   8.108  17.960  0.00  0.00    +0.000 A 
ATOM     10  C   UNL     1       1.683   9.312  17.927  0.00  0.00    +0.000 A 
BRANCH   5  11
ATOM     11  C   UNL     1       0.143  10.972  19.076  0.00  0.00    +0.000 C 
ATOM     12  O   UNL     1       0.590  12.111  19.030  0.00  0.00    +0.000 OA
BRANCH  11  13
ATOM     13  O   UNL     1      -1.154  10.630  19.257  0.00  0.00    +0.000 OA
BRANCH  13  15
ATOM     14  C   UNL     1      -2.690  11.445  17.623  0.00  0.00    +0.000 C 
ATOM     15  C   UNL     1      -1.855  10.256  18.064  0.00  0.00    +0.000 C 
ENDBRANCH  13  15
ENDBRANCH  11  13
ENDBRANCH   5  11
ENDBRANCH   1   8
BRANCH   2  16
ATOM     16  C   UNL     1       3.636   3.747  18.675  0.00  0.00    +0.000 C 
BRANCH  16  17
ATOM     17  S   UNL     1       4.688   3.599  17.201  0.00  0.00    +0.000 S 
BRANCH  17  18
ATOM     18  C   UNL     1       5.938   4.724  17.597  0.00  0.00    +0.000 A 
ATOM     19  N   UNL     1       6.853   4.536  18.526  0.00  0.00    +0.000 NA
ATOM     20  C   UNL     1       7.593   5.692  18.534  0.00  0.00    +0.000 A 
ATOM     21  C   UNL     1       7.084   6.604  17.640  0.00  0.00    +0.000 A 
ATOM     22  N   UNL     1       6.034   5.966  17.033  0.00  0.00    +0.000 N 
ATOM     23  C   UNL     1       5.184   6.542  16.019  0.00  0.00    +0.000 C 
ENDBRANCH  17  18
ENDBRANCH  16  17
ENDBRANCH   2  16
TORSDOF 7
ENDMDL
MODEL 9
REMARK VINA RESULT:      -6.3      3.987      7.299
REMARK  Name = 
REMARK  9 active torsions:
REMARK  status: ('A' for Active; 'I' for Inactive)
REMARK    1  A    between atoms: C_1  and  C_2
REMARK    2  A    between atoms: C_2  and  O_3
REMARK    3  A    between atoms: O_3  and  C_4
REMARK    4  A    between atoms: C_4  and  C_6
REMARK    5  A    between atoms: C_9  and  N_10
REMARK    6  A    between atoms: C_11  and  C_13
REMARK    7  A    between atoms: C_13  and  S_14
REMARK    8  A    between atoms: S_14  and  C_15
REMARK    9  A    between atoms: N_19  and  C_20
REMARK                            x       y       z     vdW  Elec       q    Type
REMARK                         _______ _______ _______ _____ _____    ______ ____
ROOT
ATOM      1  N   UNL     1       3.144   6.277  19.290  0.00  0.00    +0.000 N 
ATOM      2  C   UNL     1       2.721   5.006  18.915  0.00  0.00    +0.000 C 
ATOM      3  O   UNL     1       1.586   4.708  18.550  0.00  0.00    +0.000 OA
ATOM      4  H   UNL     1       4.155   6.421  19.279  0.00  0.00    +0.000 HD
ENDROOT
BRANCH   1   8
ATOM      5  C   UNL     1       0.686   9.715  19.422  0.00  0.00    +0.000 A 
ATOM      6  C   UNL     1       0.855   8.936  20.570  0.00  0.00    +0.000 A 
ATOM      7  C   UNL     1       1.675   7.806  20.541  0.00  0.00    +0.000 A 
ATOM      8  C   UNL     1       2.335   7.431  19.369  0.00  0.00    +0.000 A 
ATOM      9  C   UNL     1       2.189   8.225  18.227  0.00  0.00    +0.000 A 
ATOM     10  C   UNL     1       1.359   9.357  18.248  0.00  0.00    +0.000 A 
BRANCH   5  11
ATOM     11  C   UNL     1      -0.271  10.849  19.496  0.00  0.00    +0.000 C 
ATOM     12  O   UNL     1      -0.703  11.307  20.547  0.00  0.00    +0.000 OA
BRANCH  11  13
ATOM     13  O   UNL     1      -0.664  11.205  18.250  0.00  0.00    +0.000 OA
BRANCH  13  15
ATOM     14  C   UNL     1      -2.169   9.948  16.891  0.00  0.00    +0.000 C 
ATOM     15  C   UNL     1      -2.056  11.007  17.973  0.00  0.00    +0.000 C 
ENDBRANCH  13  15
ENDBRANCH  11  13
ENDBRANCH   5  11
ENDBRANCH   1   8
BRANCH   2  16
ATOM     16  C   UNL     1       3.820   3.955  18.946  0.00  0.00    +0.000 C 
BRANCH  16  17
ATOM     17  S   UNL     1       5.458   4.742  18.950  0.00  0.00    +0.000 S 
BRANCH  17  18
ATOM     18  C   UNL     1       5.852   4.644  17.269  0.00  0.00    +0.000 A 
ATOM     19  N   UNL     1       5.446   3.692  16.455  0.00  0.00    +0.000 NA
ATOM     20  C   UNL     1       6.036   3.981  15.250  0.00  0.00    +0.000 A 
ATOM     21  C   UNL     1       6.846   5.087  15.355  0.00  0.00    +0.000 A 
ATOM     22  N   UNL     1       6.707   5.514  16.650  0.00  0.00    +0.000 N 
ATOM     23  C   UNL     1       7.382   6.651  17.228  0.00  0.00    +0.000 C 
ENDBRANCH  17  18
ENDBRANCH  16  17
ENDBRANCH   2  16
TORSDOF 7
ENDMDL
