MODEL 1
REMARK VINA RESULT:      -7.6      0.000      0.000
REMARK  Name = 
REMARK  10 active torsions:
REMARK  status: ('A' for Active; 'I' for Inactive)
REMARK    1  A    between atoms: C_1  and  C_2
REMARK    2  A    between atoms: C_2  and  O_3
REMARK    3  A    between atoms: O_3  and  C_4
REMARK    4  A    between atoms: N_7  and  C_8
REMARK    5  A    between atoms: C_11  and  C_12
REMARK    6  A    between atoms: N_17  and  C_18
REMARK    7  A    between atoms: C_22  and  O_23
REMARK    8  A    between atoms: O_23  and  C_24
REMARK    9  A    between atoms: C_24  and  C_25
REMARK   10  A    between atoms: C_24  and  C_26
REMARK                            x       y       z     vdW  Elec       q    Type
REMARK                         _______ _______ _______ _____ _____    ______ ____
ROOT
ATOM      1  C   UNL     1       1.086  10.280  19.051  0.00  0.00    +0.000 A 
ATOM      2  C   UNL     1       1.227   9.583  17.832  0.00  0.00    +0.000 A 
ATOM      3  C   UNL     1       1.746   8.296  17.777  0.00  0.00    +0.000 A 
ATOM      4  C   UNL     1       2.129   7.659  18.956  0.00  0.00    +0.000 A 
ATOM      5  C   UNL     1       1.872   8.277  20.185  0.00  0.00    +0.000 A 
ATOM      6  C   UNL     1       1.308   9.566  20.255  0.00  0.00    +0.000 A 
ENDROOT
BRANCH   1  10
ATOM      7  C   UNL     1       1.256  15.106  19.188  0.00  0.00    +0.000 A 
ATOM      8  N   UNL     1       0.697  13.897  19.408  0.00  0.00    +0.000 NA
ATOM      9  C   UNL     1       1.386  12.797  18.986  0.00  0.00    +0.000 A 
ATOM     10  N   UNL     1       0.651  11.623  18.907  0.00  0.00    +0.000 N 
ATOM     11  N   UNL     1       2.627  12.793  18.523  0.00  0.00    +0.000 NA
ATOM     12  C   UNL     1       3.145  14.013  18.332  0.00  0.00    +0.000 A 
ATOM     13  N   UNL     1       4.343  14.286  17.770  0.00  0.00    +0.000 N 
ATOM     14  C   UNL     1       4.513  15.646  17.665  0.00  0.00    +0.000 A 
ATOM     15  C   UNL     1       3.382  16.242  18.174  0.00  0.00    +0.000 A 
ATOM     16  C   UNL     1       2.509  15.214  18.625  0.00  0.00    +0.000 A 
ATOM     17  H   UNL     1      -0.299  11.790  19.204  0.00  0.00    +0.000 HD
ATOM     18  H   UNL     1       4.998  13.572  17.452  0.00  0.00    +0.000 HD
BRANCH   7  19
ATOM     19  O   UNL     1       0.513  16.256  19.432  0.00  0.00    +0.000 OA
BRANCH  19  21
ATOM     20  C   UNL     1      -0.315  17.575  17.641  0.00  0.00    +0.000 C 
ATOM     21  C   UNL     1      -0.571  16.369  18.520  0.00  0.00    +0.000 C 
ENDBRANCH  19  21
ENDBRANCH   7  19
ENDBRANCH   1  10
BRANCH   4  22
ATOM     22  C   UNL     1       2.996   6.464  18.838  0.00  0.00    +0.000 C 
ATOM     23  O   UNL     1       4.047   6.612  18.194  0.00  0.00    +0.000 OA
ATOM     24  N   UNL     1       2.684   5.258  19.461  0.00  0.00    +0.000 N 
ATOM     25  C   UNL     1       3.662   4.181  19.272  0.00  0.00    +0.000 C 
ATOM     26  C   UNL     1       3.461   2.993  20.228  0.00  0.00    +0.000 C 
ATOM     27  N   UNL     1       2.081   2.469  20.282  0.00  0.00    +0.000 NA
ATOM     28  C   UNL     1       1.742   1.724  19.072  0.00  0.00    +0.000 C 
ATOM     29  C   UNL     1       1.148   3.585  20.535  0.00  0.00    +0.000 C 
ATOM     30  C   UNL     1       1.296   4.804  19.599  0.00  0.00    +0.000 C 
ENDBRANCH   4  22
BRANCH   6  31
ATOM     31  O   UNL     1       1.037   9.908  21.566  0.00  0.00    +0.000 OA
BRANCH  31  32
ATOM     32  C   UNL     1      -0.301  10.059  22.050  0.00  0.00    +0.000 C 
ATOM     33  C   UNL     1      -0.571   9.360  23.372  0.00  0.00    +0.000 C 
ATOM     34  C   UNL     1      -0.658  11.541  22.211  0.00  0.00    +0.000 C 
ENDBRANCH  31  32
ENDBRANCH   6  31
TORSDOF 6
ENDMDL
MODEL 2
REMARK VINA RESULT:      -7.4      0.968      1.156
REMARK  Name = 
REMARK  10 active torsions:
REMARK  status: ('A' for Active; 'I' for Inactive)
REMARK    1  A    between atoms: C_1  and  C_2
REMARK    2  A    between atoms: C_2  and  O_3
REMARK    3  A    between atoms: O_3  and  C_4
REMARK    4  A    between atoms: N_7  and  C_8
REMARK    5  A    between atoms: C_11  and  C_12
REMARK    6  A    between atoms: N_17  and  C_18
REMARK    7  A    between atoms: C_22  and  O_23
REMARK    8  A    between atoms: O_23  and  C_24
REMARK    9  A    between atoms: C_24  and  C_25
REMARK   10  A    between atoms: C_24  and  C_26
REMARK                            x       y       z     vdW  Elec       q    Type
REMARK                         _______ _______ _______ _____ _____    ______ ____
ROOT
ATOM      1  C   UNL     1       1.142   9.846  18.710  0.00  0.00    +0.000 A 
ATOM      2  C   UNL     1       1.865   9.352  17.602  0.00  0.00    +0.000 A 
ATOM      3  C   UNL     1       2.549   8.145  17.651  0.00  0.00    +0.000 A 
ATOM      4  C   UNL     1       2.517   7.382  18.818  0.00  0.00    +0.000 A 
ATOM      5  C   UNL     1       1.697   7.786  19.878  0.00  0.00    +0.000 A 
ATOM      6  C   UNL     1       0.966   8.989  19.825  0.00  0.00    +0.000 A 
ENDROOT
BRANCH   1  10
ATOM      7  C   UNL     1       0.852  14.665  18.888  0.00  0.00    +0.000 A 
ATOM      8  N   UNL     1       0.385  13.407  19.035  0.00  0.00    +0.000 NA
ATOM      9  C   UNL     1       1.216  12.381  18.692  0.00  0.00    +0.000 A 
ATOM     10  N   UNL     1       0.606  11.146  18.522  0.00  0.00    +0.000 N 
ATOM     11  N   UNL     1       2.498  12.496  18.378  0.00  0.00    +0.000 NA
ATOM     12  C   UNL     1       2.920  13.761  18.255  0.00  0.00    +0.000 A 
ATOM     13  N   UNL     1       4.145  14.150  17.838  0.00  0.00    +0.000 N 
ATOM     14  C   UNL     1       4.201  15.521  17.760  0.00  0.00    +0.000 A 
ATOM     15  C   UNL     1       2.969  16.005  18.136  0.00  0.00    +0.000 A 
ATOM     16  C   UNL     1       2.147  14.895  18.476  0.00  0.00    +0.000 A 
ATOM     17  H   UNL     1      -0.383  11.222  18.706  0.00  0.00    +0.000 HD
ATOM     18  H   UNL     1       4.895  13.503  17.596  0.00  0.00    +0.000 HD
BRANCH   7  19
ATOM     19  O   UNL     1      -0.017  15.739  19.049  0.00  0.00    +0.000 OA
BRANCH  19  21
ATOM     20  C   UNL     1       0.295  17.651  20.421  0.00  0.00    +0.000 C 
ATOM     21  C   UNL     1      -0.047  16.176  20.401  0.00  0.00    +0.000 C 
ENDBRANCH  19  21
ENDBRANCH   7  19
ENDBRANCH   1  10
BRANCH   4  22
ATOM     22  C   UNL     1       3.527   6.309  18.963  0.00  0.00    +0.000 C 
ATOM     23  O   UNL     1       4.715   6.660  18.879  0.00  0.00    +0.000 OA
ATOM     24  N   UNL     1       3.172   4.990  19.236  0.00  0.00    +0.000 N 
ATOM     25  C   UNL     1       4.292   4.055  19.382  0.00  0.00    +0.000 C 
ATOM     26  C   UNL     1       3.891   2.706  20.003  0.00  0.00    +0.000 C 
ATOM     27  N   UNL     1       2.723   2.059  19.373  0.00  0.00    +0.000 NA
ATOM     28  C   UNL     1       3.056   1.506  18.062  0.00  0.00    +0.000 C 
ATOM     29  C   UNL     1       1.608   3.026  19.308  0.00  0.00    +0.000 C 
ATOM     30  C   UNL     1       1.949   4.396  18.685  0.00  0.00    +0.000 C 
ENDBRANCH   4  22
BRANCH   6  31
ATOM     31  O   UNL     1       0.143   9.107  20.928  0.00  0.00    +0.000 OA
BRANCH  31  32
ATOM     32  C   UNL     1       0.386  10.072  21.956  0.00  0.00    +0.000 C 
ATOM     33  C   UNL     1      -0.468  11.325  21.854  0.00  0.00    +0.000 C 
ATOM     34  C   UNL     1       0.168   9.456  23.343  0.00  0.00    +0.000 C 
ENDBRANCH  31  32
ENDBRANCH   6  31
TORSDOF 6
ENDMDL
MODEL 3
REMARK VINA RESULT:      -7.3      3.161      9.034
REMARK  Name = 
REMARK  10 active torsions:
REMARK  status: ('A' for Active; 'I' for Inactive)
REMARK    1  A    between atoms: C_1  and  C_2
REMARK    2  A    between atoms: C_2  and  O_3
REMARK    3  A    between atoms: O_3  and  C_4
REMARK    4  A    between atoms: N_7  and  C_8
REMARK    5  A    between atoms: C_11  and  C_12
REMARK    6  A    between atoms: N_17  and  C_18
REMARK    7  A    between atoms: C_22  and  O_23
REMARK    8  A    between atoms: O_23  and  C_24
REMARK    9  A    between atoms: C_24  and  C_25
REMARK   10  A    between atoms: C_24  and  C_26
REMARK                            x       y       z     vdW  Elec       q    Type
REMARK                         _______ _______ _______ _____ _____    ______ ____
ROOT
ATOM      1  C   UNL     1       0.616  10.115  18.519  0.00  0.00    +0.000 A 
ATOM      2  C   UNL     1       1.256  10.761  19.599  0.00  0.00    +0.000 A 
ATOM      3  C   UNL     1       0.646  11.789  20.306  0.00  0.00    +0.000 A 
ATOM      4  C   UNL     1      -0.642  12.194  19.957  0.00  0.00    +0.000 A 
ATOM      5  C   UNL     1      -1.345  11.478  18.981  0.00  0.00    +0.000 A 
ATOM      6  C   UNL     1      -0.751  10.407  18.284  0.00  0.00    +0.000 A 
ENDROOT
BRANCH   1  10
ATOM      7  C   UNL     1       3.934   6.662  17.883  0.00  0.00    +0.000 A 
ATOM      8  N   UNL     1       3.319   7.831  17.605  0.00  0.00    +0.000 NA
ATOM      9  C   UNL     1       2.233   8.169  18.359  0.00  0.00    +0.000 A 
ATOM     10  N   UNL     1       1.430   9.174  17.839  0.00  0.00    +0.000 N 
ATOM     11  N   UNL     1       1.819   7.534  19.445  0.00  0.00    +0.000 NA
ATOM     12  C   UNL     1       2.464   6.387  19.688  0.00  0.00    +0.000 A 
ATOM     13  N   UNL     1       2.164   5.500  20.663  0.00  0.00    +0.000 N 
ATOM     14  C   UNL     1       2.986   4.402  20.569  0.00  0.00    +0.000 A 
ATOM     15  C   UNL     1       3.824   4.607  19.497  0.00  0.00    +0.000 A 
ATOM     16  C   UNL     1       3.519   5.879  18.938  0.00  0.00    +0.000 A 
ATOM     17  H   UNL     1       1.814   9.505  16.966  0.00  0.00    +0.000 HD
ATOM     18  H   UNL     1       1.415   5.633  21.342  0.00  0.00    +0.000 HD
BRANCH   7  19
ATOM     19  O   UNL     1       4.924   6.191  17.027  0.00  0.00    +0.000 OA
BRANCH  19  21
ATOM     20  C   UNL     1       7.121   6.317  17.920  0.00  0.00    +0.000 C 
ATOM     21  C   UNL     1       6.079   7.019  17.075  0.00  0.00    +0.000 C 
ENDBRANCH  19  21
ENDBRANCH   7  19
ENDBRANCH   1  10
BRANCH   4  22
ATOM     22  C   UNL     1      -1.112  13.500  20.473  0.00  0.00    +0.000 C 
ATOM     23  O   UNL     1      -0.576  14.507  19.985  0.00  0.00    +0.000 OA
ATOM     24  N   UNL     1      -2.139  13.599  21.410  0.00  0.00    +0.000 N 
ATOM     25  C   UNL     1      -2.509  14.966  21.794  0.00  0.00    +0.000 C 
ATOM     26  C   UNL     1      -3.841  15.051  22.557  0.00  0.00    +0.000 C 
ATOM     27  N   UNL     1      -3.962  14.116  23.694  0.00  0.00    +0.000 NA
ATOM     28  C   UNL     1      -3.136  14.534  24.825  0.00  0.00    +0.000 C 
ATOM     29  C   UNL     1      -3.640  12.750  23.236  0.00  0.00    +0.000 C 
ATOM     30  C   UNL     1      -2.308  12.601  22.470  0.00  0.00    +0.000 C 
ENDBRANCH   4  22
BRANCH   6  31
ATOM     31  O   UNL     1      -1.676   9.786  17.469  0.00  0.00    +0.000 OA
BRANCH  31  32
ATOM     32  C   UNL     1      -2.666  10.523  16.745  0.00  0.00    +0.000 C 
ATOM     33  C   UNL     1      -2.771  10.154  15.274  0.00  0.00    +0.000 C 
ATOM     34  C   UNL     1      -4.050  10.347  17.381  0.00  0.00    +0.000 C 
ENDBRANCH  31  32
ENDBRANCH   6  31
TORSDOF 6
ENDMDL
MODEL 4
REMARK VINA RESULT:      -7.2      1.675      2.484
REMARK  Name = 
REMARK  10 active torsions:
REMARK  status: ('A' for Active; 'I' for Inactive)
REMARK    1  A    between atoms: C_1  and  C_2
REMARK    2  A    between atoms: C_2  and  O_3
REMARK    3  A    between atoms: O_3  and  C_4
REMARK    4  A    between atoms: N_7  and  C_8
REMARK    5  A    between atoms: C_11  and  C_12
REMARK    6  A    between atoms: N_17  and  C_18
REMARK    7  A    between atoms: C_22  and  O_23
REMARK    8  A    between atoms: O_23  and  C_24
REMARK    9  A    between atoms: C_24  and  C_25
REMARK   10  A    between atoms: C_24  and  C_26
REMARK                            x       y       z     vdW  Elec       q    Type
REMARK                         _______ _______ _______ _____ _____    ______ ____
ROOT
ATOM      1  C   UNL     1       1.017  10.105  18.870  0.00  0.00    +0.000 A 
ATOM      2  C   UNL     1       1.137   9.251  17.753  0.00  0.00    +0.000 A 
ATOM      3  C   UNL     1       1.653   7.966  17.863  0.00  0.00    +0.000 A 
ATOM      4  C   UNL     1       2.054   7.491  19.111  0.00  0.00    +0.000 A 
ATOM      5  C   UNL     1       1.818   8.269  20.250  0.00  0.00    +0.000 A 
ATOM      6  C   UNL     1       1.257   9.559  20.155  0.00  0.00    +0.000 A 
ENDROOT
BRANCH   1  10
ATOM      7  C   UNL     1       1.031  14.933  18.700  0.00  0.00    +0.000 A 
ATOM      8  N   UNL     1       0.473  13.720  18.895  0.00  0.00    +0.000 NA
ATOM      9  C   UNL     1       1.257  12.623  18.687  0.00  0.00    +0.000 A 
ATOM     10  N   UNL     1       0.582  11.418  18.554  0.00  0.00    +0.000 N 
ATOM     11  N   UNL     1       2.564  12.638  18.466  0.00  0.00    +0.000 NA
ATOM     12  C   UNL     1       3.075  13.863  18.291  0.00  0.00    +0.000 A 
ATOM     13  N   UNL     1       4.350  14.146  17.945  0.00  0.00    +0.000 N 
ATOM     14  C   UNL     1       4.502  15.502  17.780  0.00  0.00    +0.000 A 
ATOM     15  C   UNL     1       3.280  16.085  18.025  0.00  0.00    +0.000 A 
ATOM     16  C   UNL     1       2.364  15.054  18.375  0.00  0.00    +0.000 A 
ATOM     17  H   UNL     1      -0.411  11.567  18.655  0.00  0.00    +0.000 HD
ATOM     18  H   UNL     1       5.073  13.440  17.806  0.00  0.00    +0.000 HD
BRANCH   7  19
ATOM     19  O   UNL     1       0.225  16.067  18.720  0.00  0.00    +0.000 OA
BRANCH  19  21
ATOM     20  C   UNL     1       0.236  16.667  21.017  0.00  0.00    +0.000 C 
ATOM     21  C   UNL     1      -0.591  16.096  19.884  0.00  0.00    +0.000 C 
ENDBRANCH  19  21
ENDBRANCH   7  19
ENDBRANCH   1  10
BRANCH   4  22
ATOM     22  C   UNL     1       2.918   6.288  19.140  0.00  0.00    +0.000 C 
ATOM     23  O   UNL     1       2.803   5.555  20.135  0.00  0.00    +0.000 OA
ATOM     24  N   UNL     1       3.768   5.962  18.086  0.00  0.00    +0.000 N 
ATOM     25  C   UNL     1       4.531   4.720  18.255  0.00  0.00    +0.000 C 
ATOM     26  C   UNL     1       5.192   4.223  16.959  0.00  0.00    +0.000 C 
ATOM     27  N   UNL     1       5.973   5.245  16.232  0.00  0.00    +0.000 NA
ATOM     28  C   UNL     1       7.229   5.547  16.913  0.00  0.00    +0.000 C 
ATOM     29  C   UNL     1       5.136   6.446  16.036  0.00  0.00    +0.000 C 
ATOM     30  C   UNL     1       4.453   6.997  17.306  0.00  0.00    +0.000 C 
ENDBRANCH   4  22
BRANCH   6  31
ATOM     31  O   UNL     1       1.008  10.074  21.412  0.00  0.00    +0.000 OA
BRANCH  31  32
ATOM     32  C   UNL     1      -0.319  10.197  21.932  0.00  0.00    +0.000 C 
ATOM     33  C   UNL     1      -0.514   9.578  23.307  0.00  0.00    +0.000 C 
ATOM     34  C   UNL     1      -0.739  11.670  22.008  0.00  0.00    +0.000 C 
ENDBRANCH  31  32
ENDBRANCH   6  31
TORSDOF 6
ENDMDL
MODEL 5
REMARK VINA RESULT:      -7.2      3.615      8.809
REMARK  Name = 
REMARK  10 active torsions:
REMARK  status: ('A' for Active; 'I' for Inactive)
REMARK    1  A    between atoms: C_1  and  C_2
REMARK    2  A    between atoms: C_2  and  O_3
REMARK    3  A    between atoms: O_3  and  C_4
REMARK    4  A    between atoms: N_7  and  C_8
REMARK    5  A    between atoms: C_11  and  C_12
REMARK    6  A    between atoms: N_17  and  C_18
REMARK    7  A    between atoms: C_22  and  O_23
REMARK    8  A    between atoms: O_23  and  C_24
REMARK    9  A    between atoms: C_24  and  C_25
REMARK   10  A    between atoms: C_24  and  C_26
REMARK                            x       y       z     vdW  Elec       q    Type
REMARK                         _______ _______ _______ _____ _____    ______ ____
ROOT
ATOM      1  C   UNL     1       2.382   7.819  18.279  0.00  0.00    +0.000 A 
ATOM      2  C   UNL     1       2.115   9.146  17.879  0.00  0.00    +0.000 A 
ATOM      3  C   UNL     1       1.397  10.024  18.682  0.00  0.00    +0.000 A 
ATOM      4  C   UNL     1       0.935   9.597  19.926  0.00  0.00    +0.000 A 
ATOM      5  C   UNL     1       1.305   8.333  20.398  0.00  0.00    +0.000 A 
ATOM      6  C   UNL     1       2.066   7.448  19.610  0.00  0.00    +0.000 A 
ENDROOT
BRANCH   1  10
ATOM      7  C   UNL     1       5.975   5.759  15.791  0.00  0.00    +0.000 A 
ATOM      8  N   UNL     1       4.818   6.441  15.927  0.00  0.00    +0.000 NA
ATOM      9  C   UNL     1       4.351   6.648  17.193  0.00  0.00    +0.000 A 
ATOM     10  N   UNL     1       3.021   7.031  17.288  0.00  0.00    +0.000 N 
ATOM     11  N   UNL     1       5.008   6.380  18.312  0.00  0.00    +0.000 NA
ATOM     12  C   UNL     1       6.155   5.713  18.128  0.00  0.00    +0.000 A 
ATOM     13  N   UNL     1       6.953   5.227  19.103  0.00  0.00    +0.000 N 
ATOM     14  C   UNL     1       8.002   4.533  18.549  0.00  0.00    +0.000 A 
ATOM     15  C   UNL     1       7.852   4.584  17.182  0.00  0.00    +0.000 A 
ATOM     16  C   UNL     1       6.690   5.353  16.897  0.00  0.00    +0.000 A 
ATOM     17  H   UNL     1       2.619   7.110  16.365  0.00  0.00    +0.000 HD
ATOM     18  H   UNL     1       6.771   5.345  20.100  0.00  0.00    +0.000 HD
BRANCH   7  19
ATOM     19  O   UNL     1       6.391   5.367  14.523  0.00  0.00    +0.000 OA
BRANCH  19  21
ATOM     20  C   UNL     1       6.358   3.729  12.806  0.00  0.00    +0.000 C 
ATOM     21  C   UNL     1       5.752   4.163  14.123  0.00  0.00    +0.000 C 
ENDBRANCH  19  21
ENDBRANCH   7  19
ENDBRANCH   1  10
BRANCH   4  22
ATOM     22  C   UNL     1      -0.112  10.413  20.584  0.00  0.00    +0.000 C 
ATOM     23  O   UNL     1      -0.031  10.516  21.818  0.00  0.00    +0.000 OA
ATOM     24  N   UNL     1      -1.099  11.076  19.857  0.00  0.00    +0.000 N 
ATOM     25  C   UNL     1      -2.041  11.868  20.655  0.00  0.00    +0.000 C 
ATOM     26  C   UNL     1      -2.893  12.836  19.818  0.00  0.00    +0.000 C 
ATOM     27  N   UNL     1      -3.554  12.225  18.647  0.00  0.00    +0.000 NA
ATOM     28  C   UNL     1      -4.674  11.374  19.045  0.00  0.00    +0.000 C 
ATOM     29  C   UNL     1      -2.549  11.494  17.850  0.00  0.00    +0.000 C 
ATOM     30  C   UNL     1      -1.668  10.499  18.635  0.00  0.00    +0.000 C 
ENDBRANCH   4  22
BRANCH   6  31
ATOM     31  O   UNL     1       2.407   6.322  20.334  0.00  0.00    +0.000 OA
BRANCH  31  32
ATOM     32  C   UNL     1       1.622   5.126  20.290  0.00  0.00    +0.000 C 
ATOM     33  C   UNL     1       1.682   4.386  18.964  0.00  0.00    +0.000 C 
ATOM     34  C   UNL     1       2.047   4.156  21.398  0.00  0.00    +0.000 C 
ENDBRANCH  31  32
ENDBRANCH   6  31
TORSDOF 6
ENDMDL
MODEL 6
REMARK VINA RESULT:      -7.2      3.387      9.174
REMARK  Name = 
REMARK  10 active torsions:
REMARK  status: ('A' for Active; 'I' for Inactive)
REMARK    1  A    between atoms: C_1  and  C_2
REMARK    2  A    between atoms: C_2  and  O_3
REMARK    3  A    between atoms: O_3  and  C_4
REMARK    4  A    between atoms: N_7  and  C_8
REMARK    5  A    between atoms: C_11  and  C_12
REMARK    6  A    between atoms: N_17  and  C_18
REMARK    7  A    between atoms: C_22  and  O_23
REMARK    8  A    between atoms: O_23  and  C_24
REMARK    9  A    between atoms: C_24  and  C_25
REMARK   10  A    between atoms: C_24  and  C_26
REMARK                            x       y       z     vdW  Elec       q    Type
REMARK                         _______ _______ _______ _____ _____    ______ ____
ROOT
ATOM      1  C   UNL     1       1.403   8.911  19.215  0.00  0.00    +0.000 A 
ATOM      2  C   UNL     1       1.671   8.638  20.574  0.00  0.00    +0.000 A 
ATOM      3  C   UNL     1       0.936   9.220  21.598  0.00  0.00    +0.000 A 
ATOM      4  C   UNL     1      -0.109  10.090  21.287  0.00  0.00    +0.000 A 
ATOM      5  C   UNL     1      -0.478  10.268  19.950  0.00  0.00    +0.000 A 
ATOM      6  C   UNL     1       0.235   9.651  18.902  0.00  0.00    +0.000 A 
ENDROOT
BRANCH   1  10
ATOM      7  C   UNL     1       4.421   5.625  17.362  0.00  0.00    +0.000 A 
ATOM      8  N   UNL     1       4.050   6.866  17.741  0.00  0.00    +0.000 NA
ATOM      9  C   UNL     1       2.797   7.021  18.259  0.00  0.00    +0.000 A 
ATOM     10  N   UNL     1       2.326   8.325  18.311  0.00  0.00    +0.000 N 
ATOM     11  N   UNL     1       1.965   6.040  18.576  0.00  0.00    +0.000 NA
ATOM     12  C   UNL     1       2.379   4.826  18.192  0.00  0.00    +0.000 A 
ATOM     13  N   UNL     1       1.673   3.679  18.295  0.00  0.00    +0.000 N 
ATOM     14  C   UNL     1       2.376   2.641  17.732  0.00  0.00    +0.000 A 
ATOM     15  C   UNL     1       3.560   3.157  17.257  0.00  0.00    +0.000 A 
ATOM     16  C   UNL     1       3.587   4.546  17.563  0.00  0.00    +0.000 A 
ATOM     17  H   UNL     1       3.027   8.959  17.957  0.00  0.00    +0.000 HD
ATOM     18  H   UNL     1       0.742   3.619  18.709  0.00  0.00    +0.000 HD
BRANCH   7  19
ATOM     19  O   UNL     1       5.610   5.451  16.663  0.00  0.00    +0.000 OA
BRANCH  19  21
ATOM     20  C   UNL     1       5.909   4.404  14.553  0.00  0.00    +0.000 C 
ATOM     21  C   UNL     1       5.418   5.645  15.268  0.00  0.00    +0.000 C 
ENDBRANCH  19  21
ENDBRANCH   7  19
ENDBRANCH   1  10
BRANCH   4  22
ATOM     22  C   UNL     1      -0.623  10.957  22.373  0.00  0.00    +0.000 C 
ATOM     23  O   UNL     1      -0.779  10.416  23.478  0.00  0.00    +0.000 OA
ATOM     24  N   UNL     1      -0.862  12.316  22.183  0.00  0.00    +0.000 N 
ATOM     25  C   UNL     1      -1.339  13.041  23.366  0.00  0.00    +0.000 C 
ATOM     26  C   UNL     1      -1.274  14.570  23.218  0.00  0.00    +0.000 C 
ATOM     27  N   UNL     1      -1.880  15.097  21.978  0.00  0.00    +0.000 NA
ATOM     28  C   UNL     1      -3.338  15.032  22.022  0.00  0.00    +0.000 C 
ATOM     29  C   UNL     1      -1.318  14.375  20.819  0.00  0.00    +0.000 C 
ATOM     30  C   UNL     1      -1.365  12.835  20.907  0.00  0.00    +0.000 C 
ENDBRANCH   4  22
BRANCH   6  31
ATOM     31  O   UNL     1      -0.389   9.876  17.691  0.00  0.00    +0.000 OA
BRANCH  31  32
ATOM     32  C   UNL     1      -1.747  10.320  17.608  0.00  0.00    +0.000 C 
ATOM     33  C   UNL     1      -1.905  11.822  17.438  0.00  0.00    +0.000 C 
ATOM     34  C   UNL     1      -2.476   9.629  16.450  0.00  0.00    +0.000 C 
ENDBRANCH  31  32
ENDBRANCH   6  31
TORSDOF 6
ENDMDL
MODEL 7
REMARK VINA RESULT:      -7.1      1.613      2.451
REMARK  Name = 
REMARK  10 active torsions:
REMARK  status: ('A' for Active; 'I' for Inactive)
REMARK    1  A    between atoms: C_1  and  C_2
REMARK    2  A    between atoms: C_2  and  O_3
REMARK    3  A    between atoms: O_3  and  C_4
REMARK    4  A    between atoms: N_7  and  C_8
REMARK    5  A    between atoms: C_11  and  C_12
REMARK    6  A    between atoms: N_17  and  C_18
REMARK    7  A    between atoms: C_22  and  O_23
REMARK    8  A    between atoms: O_23  and  C_24
REMARK    9  A    between atoms: C_24  and  C_25
REMARK   10  A    between atoms: C_24  and  C_26
REMARK                            x       y       z     vdW  Elec       q    Type
REMARK                         _______ _______ _______ _____ _____    ______ ____
ROOT
ATOM      1  C   UNL     1       1.015  10.389  18.816  0.00  0.00    +0.000 A 
ATOM      2  C   UNL     1       1.763   9.835  17.754  0.00  0.00    +0.000 A 
ATOM      3  C   UNL     1       2.276   8.546  17.811  0.00  0.00    +0.000 A 
ATOM      4  C   UNL     1       2.040   7.761  18.940  0.00  0.00    +0.000 A 
ATOM      5  C   UNL     1       1.189   8.240  19.942  0.00  0.00    +0.000 A 
ATOM      6  C   UNL     1       0.630   9.532  19.876  0.00  0.00    +0.000 A 
ENDROOT
BRANCH   1  10
ATOM      7  C   UNL     1       1.446  15.198  18.985  0.00  0.00    +0.000 A 
ATOM      8  N   UNL     1       0.801  14.023  19.147  0.00  0.00    +0.000 NA
ATOM      9  C   UNL     1       1.462  12.885  18.788  0.00  0.00    +0.000 A 
ATOM     10  N   UNL     1       0.673  11.754  18.636  0.00  0.00    +0.000 N 
ATOM     11  N   UNL     1       2.740  12.809  18.444  0.00  0.00    +0.000 NA
ATOM     12  C   UNL     1       3.341  13.998  18.307  0.00  0.00    +0.000 A 
ATOM     13  N   UNL     1       4.600  14.202  17.861  0.00  0.00    +0.000 N 
ATOM     14  C   UNL     1       4.857  15.549  17.778  0.00  0.00    +0.000 A 
ATOM     15  C   UNL     1       3.719  16.210  18.180  0.00  0.00    +0.000 A 
ATOM     16  C   UNL     1       2.750  15.234  18.542  0.00  0.00    +0.000 A 
ATOM     17  H   UNL     1      -0.290  11.976  18.843  0.00  0.00    +0.000 HD
ATOM     18  H   UNL     1       5.241  13.451  17.604  0.00  0.00    +0.000 HD
BRANCH   7  19
ATOM     19  O   UNL     1       0.749  16.389  19.162  0.00  0.00    +0.000 OA
BRANCH  19  21
ATOM     20  C   UNL     1      -0.438  17.673  17.557  0.00  0.00    +0.000 C 
ATOM     21  C   UNL     1      -0.442  16.407  18.387  0.00  0.00    +0.000 C 
ENDBRANCH  19  21
ENDBRANCH   7  19
ENDBRANCH   1  10
BRANCH   4  22
ATOM     22  C   UNL     1       2.884   6.558  19.126  0.00  0.00    +0.000 C 
ATOM     23  O   UNL     1       2.739   5.948  20.196  0.00  0.00    +0.000 OA
ATOM     24  N   UNL     1       3.748   6.101  18.134  0.00  0.00    +0.000 N 
ATOM     25  C   UNL     1       4.489   4.878  18.462  0.00  0.00    +0.000 C 
ATOM     26  C   UNL     1       5.168   4.226  17.246  0.00  0.00    +0.000 C 
ATOM     27  N   UNL     1       5.977   5.145  16.421  0.00  0.00    +0.000 NA
ATOM     28  C   UNL     1       7.225   5.509  17.088  0.00  0.00    +0.000 C 
ATOM     29  C   UNL     1       5.163   6.326  16.070  0.00  0.00    +0.000 C 
ATOM     30  C   UNL     1       4.464   7.030  17.253  0.00  0.00    +0.000 C 
ENDBRANCH   4  22
BRANCH   6  31
ATOM     31  O   UNL     1      -0.265   9.727  20.910  0.00  0.00    +0.000 OA
BRANCH  31  32
ATOM     32  C   UNL     1       0.098  10.421  22.107  0.00  0.00    +0.000 C 
ATOM     33  C   UNL     1      -0.725  11.670  22.382  0.00  0.00    +0.000 C 
ATOM     34  C   UNL     1      -0.012   9.499  23.327  0.00  0.00    +0.000 C 
ENDBRANCH  31  32
ENDBRANCH   6  31
TORSDOF 6
ENDMDL
MODEL 8
REMARK VINA RESULT:      -7.1      3.204      9.517
REMARK  Name = 
REMARK  10 active torsions:
REMARK  status: ('A' for Active; 'I' for Inactive)
REMARK    1  A    between atoms: C_1  and  C_2
REMARK    2  A    between atoms: C_2  and  O_3
REMARK    3  A    between atoms: O_3  and  C_4
REMARK    4  A    between atoms: N_7  and  C_8
REMARK    5  A    between atoms: C_11  and  C_12
REMARK    6  A    between atoms: N_17  and  C_18
REMARK    7  A    between atoms: C_22  and  O_23
REMARK    8  A    between atoms: O_23  and  C_24
REMARK    9  A    between atoms: C_24  and  C_25
REMARK   10  A    between atoms: C_24  and  C_26
REMARK                            x       y       z     vdW  Elec       q    Type
REMARK                         _______ _______ _______ _____ _____    ______ ____
ROOT
ATOM      1  C   UNL     1       0.923   9.002  20.325  0.00  0.00    +0.000 A 
ATOM      2  C   UNL     1       0.914   8.910  21.734  0.00  0.00    +0.000 A 
ATOM      3  C   UNL     1       0.121   9.737  22.519  0.00  0.00    +0.000 A 
ATOM      4  C   UNL     1      -0.706  10.680  21.907  0.00  0.00    +0.000 A 
ATOM      5  C   UNL     1      -0.814  10.695  20.513  0.00  0.00    +0.000 A 
ATOM      6  C   UNL     1      -0.044   9.834  19.706  0.00  0.00    +0.000 A 
ENDROOT
BRANCH   1  10
ATOM      7  C   UNL     1       3.809   5.191  19.633  0.00  0.00    +0.000 A 
ATOM      8  N   UNL     1       3.514   6.507  19.677  0.00  0.00    +0.000 NA
ATOM      9  C   UNL     1       2.234   6.858  19.992  0.00  0.00    +0.000 A 
ATOM     10  N   UNL     1       1.878   8.165  19.693  0.00  0.00    +0.000 N 
ATOM     11  N   UNL     1       1.289   6.032  20.416  0.00  0.00    +0.000 NA
ATOM     12  C   UNL     1       1.629   4.738  20.366  0.00  0.00    +0.000 A 
ATOM     13  N   UNL     1       0.816   3.693  20.636  0.00  0.00    +0.000 N 
ATOM     14  C   UNL     1       1.478   2.511  20.408  0.00  0.00    +0.000 A 
ATOM     15  C   UNL     1       2.747   2.826  19.977  0.00  0.00    +0.000 A 
ATOM     16  C   UNL     1       2.866   4.244  19.966  0.00  0.00    +0.000 A 
ATOM     17  H   UNL     1       2.666   8.654  19.295  0.00  0.00    +0.000 HD
ATOM     18  H   UNL     1      -0.154   3.790  20.936  0.00  0.00    +0.000 HD
BRANCH   7  19
ATOM     19  O   UNL     1       5.045   4.784  19.139  0.00  0.00    +0.000 OA
BRANCH  19  21
ATOM     20  C   UNL     1       4.855   4.314  16.820  0.00  0.00    +0.000 C 
ATOM     21  C   UNL     1       5.288   5.334  17.852  0.00  0.00    +0.000 C 
ENDBRANCH  19  21
ENDBRANCH   7  19
ENDBRANCH   1  10
BRANCH   4  22
ATOM     22  C   UNL     1      -1.249  11.766  22.756  0.00  0.00    +0.000 C 
ATOM     23  O   UNL     1      -2.187  11.457  23.507  0.00  0.00    +0.000 OA
ATOM     24  N   UNL     1      -0.702  13.047  22.757  0.00  0.00    +0.000 N 
ATOM     25  C   UNL     1      -1.334  13.999  23.677  0.00  0.00    +0.000 C 
ATOM     26  C   UNL     1      -0.512  15.280  23.897  0.00  0.00    +0.000 C 
ATOM     27  N   UNL     1      -0.058  15.944  22.659  0.00  0.00    +0.000 NA
ATOM     28  C   UNL     1      -1.161  16.611  21.971  0.00  0.00    +0.000 C 
ATOM     29  C   UNL     1       0.623  14.954  21.801  0.00  0.00    +0.000 C 
ATOM     30  C   UNL     1      -0.158  13.649  21.536  0.00  0.00    +0.000 C 
ENDBRANCH   4  22
BRANCH   6  31
ATOM     31  O   UNL     1      -0.414   9.948  18.381  0.00  0.00    +0.000 OA
BRANCH  31  32
ATOM     32  C   UNL     1      -1.675  10.501  17.990  0.00  0.00    +0.000 C 
ATOM     33  C   UNL     1      -1.631  11.981  17.646  0.00  0.00    +0.000 C 
ATOM     34  C   UNL     1      -2.251   9.747  16.786  0.00  0.00    +0.000 C 
ENDBRANCH  31  32
ENDBRANCH   6  31
TORSDOF 6
ENDMDL
MODEL 9
REMARK VINA RESULT:      -7.0      2.722      9.355
REMARK  Name = 
REMARK  10 active torsions:
REMARK  status: ('A' for Active; 'I' for Inactive)
REMARK    1  A    between atoms: C_1  and  C_2
REMARK    2  A    between atoms: C_2  and  O_3
REMARK    3  A    between atoms: O_3  and  C_4
REMARK    4  A    between atoms: N_7  and  C_8
REMARK    5  A    between atoms: C_11  and  C_12
REMARK    6  A    between atoms: N_17  and  C_18
REMARK    7  A    between atoms: C_22  and  O_23
REMARK    8  A    between atoms: O_23  and  C_24
REMARK    9  A    between atoms: C_24  and  C_25
REMARK   10  A    between atoms: C_24  and  C_26
REMARK                            x       y       z     vdW  Elec       q    Type
REMARK                         _______ _______ _______ _____ _____    ______ ____
ROOT
ATOM      1  C   UNL     1       0.592  10.188  18.574  0.00  0.00    +0.000 A 
ATOM      2  C   UNL     1       1.238  10.824  19.656  0.00  0.00    +0.000 A 
ATOM      3  C   UNL     1       0.629  11.842  20.379  0.00  0.00    +0.000 A 
ATOM      4  C   UNL     1      -0.664  12.245  20.045  0.00  0.00    +0.000 A 
ATOM      5  C   UNL     1      -1.371  11.537  19.068  0.00  0.00    +0.000 A 
ATOM      6  C   UNL     1      -0.778  10.476  18.354  0.00  0.00    +0.000 A 
ENDROOT
BRANCH   1  10
ATOM      7  C   UNL     1       3.915   6.752  17.875  0.00  0.00    +0.000 A 
ATOM      8  N   UNL     1       3.296   7.923  17.615  0.00  0.00    +0.000 NA
ATOM      9  C   UNL     1       2.214   8.248  18.380  0.00  0.00    +0.000 A 
ATOM     10  N   UNL     1       1.405   9.258  17.877  0.00  0.00    +0.000 N 
ATOM     11  N   UNL     1       1.807   7.598  19.460  0.00  0.00    +0.000 NA
ATOM     12  C   UNL     1       2.457   6.449  19.684  0.00  0.00    +0.000 A 
ATOM     13  N   UNL     1       2.164   5.549  20.649  0.00  0.00    +0.000 N 
ATOM     14  C   UNL     1       2.988   4.455  20.536  0.00  0.00    +0.000 A 
ATOM     15  C   UNL     1       3.820   4.676  19.462  0.00  0.00    +0.000 A 
ATOM     16  C   UNL     1       3.508   5.954  18.922  0.00  0.00    +0.000 A 
ATOM     17  H   UNL     1       1.784   9.601  17.007  0.00  0.00    +0.000 HD
ATOM     18  H   UNL     1       1.418   5.671  21.334  0.00  0.00    +0.000 HD
BRANCH   7  19
ATOM     19  O   UNL     1       4.902   6.295  17.008  0.00  0.00    +0.000 OA
BRANCH  19  21
ATOM     20  C   UNL     1       7.102   6.199  17.895  0.00  0.00    +0.000 C 
ATOM     21  C   UNL     1       6.098   7.051  17.148  0.00  0.00    +0.000 C 
ENDBRANCH  19  21
ENDBRANCH   7  19
ENDBRANCH   1  10
BRANCH   4  22
ATOM     22  C   UNL     1      -1.135  13.543  20.580  0.00  0.00    +0.000 C 
ATOM     23  O   UNL     1      -2.023  13.489  21.446  0.00  0.00    +0.000 OA
ATOM     24  N   UNL     1      -0.576  14.755  20.179  0.00  0.00    +0.000 N 
ATOM     25  C   UNL     1      -1.133  15.947  20.827  0.00  0.00    +0.000 C 
ATOM     26  C   UNL     1      -0.285  17.213  20.618  0.00  0.00    +0.000 C 
ATOM     27  N   UNL     1       0.089  17.482  19.215  0.00  0.00    +0.000 NA
ATOM     28  C   UNL     1      -1.051  17.959  18.436  0.00  0.00    +0.000 C 
ATOM     29  C   UNL     1       0.699  16.270  18.635  0.00  0.00    +0.000 C 
ATOM     30  C   UNL     1      -0.112  14.967  18.805  0.00  0.00    +0.000 C 
ENDBRANCH   4  22
BRANCH   6  31
ATOM     31  O   UNL     1      -1.707   9.860  17.539  0.00  0.00    +0.000 OA
BRANCH  31  32
ATOM     32  C   UNL     1      -2.712  10.600  16.840  0.00  0.00    +0.000 C 
ATOM     33  C   UNL     1      -2.787  10.303  15.351  0.00  0.00    +0.000 C 
ATOM     34  C   UNL     1      -4.097  10.345  17.448  0.00  0.00    +0.000 C 
ENDBRANCH  31  32
ENDBRANCH   6  31
TORSDOF 6
ENDMDL
