MODEL 1
REMARK VINA RESULT:      -6.6      0.000      0.000
REMARK  Name = 
REMARK  7 active torsions:
REMARK  status: ('A' for Active; 'I' for Inactive)
REMARK    1  A    between atoms: C_2  and  C_3
REMARK    2  A    between atoms: C_3  and  N_4
REMARK    3  A    between atoms: C_5  and  C_6
REMARK    4  A    between atoms: C_8  and  C_9
REMARK    5  A    between atoms: N_13  and  C_14
REMARK    6  A    between atoms: C_14  and  C_15
REMARK    7  A    between atoms: C_18  and  C_19
REMARK                            x       y       z     vdW  Elec       q    Type
REMARK                         _______ _______ _______ _____ _____    ______ ____
ROOT
ATOM      1  N   UNL     1       1.921   4.619  19.381  0.00  0.00    +0.000 N 
ATOM      2  C   UNL     1       2.242   5.918  19.723  0.00  0.00    +0.000 A 
ATOM      3  C   UNL     1       1.569   6.711  20.793  0.00  0.00    +0.000 C 
ATOM      4  C   UNL     1       3.293   6.309  18.921  0.00  0.00    +0.000 A 
ATOM      5  C   UNL     1       3.682   5.210  18.108  0.00  0.00    +0.000 A 
ATOM      6  C   UNL     1       2.810   4.167  18.413  0.00  0.00    +0.000 A 
ATOM      7  C   UNL     1       2.787   2.762  17.902  0.00  0.00    +0.000 C 
ENDROOT
BRANCH   5   8
ATOM      8  C   UNL     1       4.835   5.146  17.199  0.00  0.00    +0.000 C 
ATOM      9  N   UNL     1       4.731   5.794  16.082  0.00  0.00    +0.000 NA
ATOM     10  N   UNL     1       5.670   5.650  15.064  0.00  0.00    +0.000 NA
ATOM     11  C   UNL     1       6.871   5.203  15.248  0.00  0.00    +0.000 C 
ATOM     12  N   UNL     1       7.796   5.101  14.245  0.00  0.00    +0.000 N 
ATOM     13  S   UNL     1       7.510   4.659  16.770  0.00  0.00    +0.000 S 
ATOM     14  C   UNL     1       5.973   4.247  17.586  0.00  0.00    +0.000 C 
ATOM     15  H   UNL     1       8.622   4.566  14.481  0.00  0.00    +0.000 HD
BRANCH  12  16
ATOM     16  C   UNL     1       7.425   5.166  12.847  0.00  0.00    +0.000 C 
ATOM     17  C   UNL     1       6.889   3.820  12.386  0.00  0.00    +0.000 C 
ENDBRANCH  12  16
ENDBRANCH   5   8
BRANCH   1  18
ATOM     18  C   UNL     1       0.825   3.829  19.943  0.00  0.00    +0.000 C 
BRANCH  18  20
ATOM     19  C   UNL     1       2.355   2.857  21.755  0.00  0.00    +0.000 C 
ATOM     20  C   UNL     1       1.210   2.888  21.057  0.00  0.00    +0.000 C 
ENDBRANCH  18  20
ENDBRANCH   1  18
TORSDOF 4
ENDMDL
MODEL 2
REMARK VINA RESULT:      -6.2      3.349      7.385
REMARK  Name = 
REMARK  7 active torsions:
REMARK  status: ('A' for Active; 'I' for Inactive)
REMARK    1  A    between atoms: C_2  and  C_3
REMARK    2  A    between atoms: C_3  and  N_4
REMARK    3  A    between atoms: C_5  and  C_6
REMARK    4  A    between atoms: C_8  and  C_9
REMARK    5  A    between atoms: N_13  and  C_14
REMARK    6  A    between atoms: C_14  and  C_15
REMARK    7  A    between atoms: C_18  and  C_19
REMARK                            x       y       z     vdW  Elec       q    Type
REMARK                         _______ _______ _______ _____ _____    ______ ____
ROOT
ATOM      1  N   UNL     1       4.286   4.638  17.199  0.00  0.00    +0.000 N 
ATOM      2  C   UNL     1       3.198   3.902  17.624  0.00  0.00    +0.000 A 
ATOM      3  C   UNL     1       3.083   2.417  17.535  0.00  0.00    +0.000 C 
ATOM      4  C   UNL     1       2.283   4.785  18.155  0.00  0.00    +0.000 A 
ATOM      5  C   UNL     1       2.838   6.093  18.124  0.00  0.00    +0.000 A 
ATOM      6  C   UNL     1       4.089   5.975  17.522  0.00  0.00    +0.000 A 
ATOM      7  C   UNL     1       5.133   7.018  17.279  0.00  0.00    +0.000 C 
ENDROOT
BRANCH   5   8
ATOM      8  C   UNL     1       2.259   7.315  18.701  0.00  0.00    +0.000 C 
ATOM      9  N   UNL     1       2.115   7.338  19.988  0.00  0.00    +0.000 NA
ATOM     10  N   UNL     1       1.406   8.352  20.626  0.00  0.00    +0.000 NA
ATOM     11  C   UNL     1       1.168   9.510  20.097  0.00  0.00    +0.000 C 
ATOM     12  N   UNL     1       0.501  10.511  20.749  0.00  0.00    +0.000 N 
ATOM     13  S   UNL     1       1.642   9.989  18.494  0.00  0.00    +0.000 S 
ATOM     14  C   UNL     1       1.779   8.371  17.748  0.00  0.00    +0.000 C 
ATOM     15  H   UNL     1       0.220  11.286  20.162  0.00  0.00    +0.000 HD
BRANCH  12  16
ATOM     16  C   UNL     1      -0.282  10.264  21.941  0.00  0.00    +0.000 C 
ATOM     17  C   UNL     1      -0.958  11.546  22.397  0.00  0.00    +0.000 C 
ENDBRANCH  12  16
ENDBRANCH   5   8
BRANCH   1  18
ATOM     18  C   UNL     1       5.469   4.108  16.519  0.00  0.00    +0.000 C 
BRANCH  18  20
ATOM     19  C   UNL     1       6.495   4.248  14.175  0.00  0.00    +0.000 C 
ATOM     20  C   UNL     1       5.451   4.210  15.015  0.00  0.00    +0.000 C 
ENDBRANCH  18  20
ENDBRANCH   1  18
TORSDOF 4
ENDMDL
MODEL 3
REMARK VINA RESULT:      -6.2      4.018      6.853
REMARK  Name = 
REMARK  7 active torsions:
REMARK  status: ('A' for Active; 'I' for Inactive)
REMARK    1  A    between atoms: C_2  and  C_3
REMARK    2  A    between atoms: C_3  and  N_4
REMARK    3  A    between atoms: C_5  and  C_6
REMARK    4  A    between atoms: C_8  and  C_9
REMARK    5  A    between atoms: N_13  and  C_14
REMARK    6  A    between atoms: C_14  and  C_15
REMARK    7  A    between atoms: C_18  and  C_19
REMARK                            x       y       z     vdW  Elec       q    Type
REMARK                         _______ _______ _______ _____ _____    ______ ____
ROOT
ATOM      1  N   UNL     1       4.135   4.817  17.235  0.00  0.00    +0.000 N 
ATOM      2  C   UNL     1       2.947   4.217  17.601  0.00  0.00    +0.000 A 
ATOM      3  C   UNL     1       2.695   2.746  17.597  0.00  0.00    +0.000 C 
ATOM      4  C   UNL     1       2.079   5.217  17.984  0.00  0.00    +0.000 A 
ATOM      5  C   UNL     1       2.761   6.463  17.922  0.00  0.00    +0.000 A 
ATOM      6  C   UNL     1       4.043   6.187  17.451  0.00  0.00    +0.000 A 
ATOM      7  C   UNL     1       5.202   7.108  17.241  0.00  0.00    +0.000 C 
ENDROOT
BRANCH   5   8
ATOM      8  C   UNL     1       2.256   7.772  18.361  0.00  0.00    +0.000 C 
ATOM      9  N   UNL     1       2.196   8.702  17.462  0.00  0.00    +0.000 NA
ATOM     10  N   UNL     1       1.921  10.026  17.797  0.00  0.00    +0.000 NA
ATOM     11  C   UNL     1       1.344  10.386  18.898  0.00  0.00    +0.000 C 
ATOM     12  N   UNL     1       1.047  11.687  19.199  0.00  0.00    +0.000 N 
ATOM     13  S   UNL     1       0.857   9.304  20.168  0.00  0.00    +0.000 S 
ATOM     14  C   UNL     1       1.970   7.949  19.824  0.00  0.00    +0.000 C 
ATOM     15  H   UNL     1       0.774  11.849  20.160  0.00  0.00    +0.000 HD
BRANCH  12  16
ATOM     16  C   UNL     1       1.639  12.797  18.483  0.00  0.00    +0.000 C 
ATOM     17  C   UNL     1       2.655  13.507  19.364  0.00  0.00    +0.000 C 
ENDBRANCH  12  16
ENDBRANCH   5   8
BRANCH   1  18
ATOM     18  C   UNL     1       5.316   4.132  16.706  0.00  0.00    +0.000 C 
BRANCH  18  20
ATOM     19  C   UNL     1       6.589   4.210  14.482  0.00  0.00    +0.000 C 
ATOM     20  C   UNL     1       5.460   4.156  15.205  0.00  0.00    +0.000 C 
ENDBRANCH  18  20
ENDBRANCH   1  18
TORSDOF 4
ENDMDL
MODEL 4
REMARK VINA RESULT:      -6.0      3.105      4.919
REMARK  Name = 
REMARK  7 active torsions:
REMARK  status: ('A' for Active; 'I' for Inactive)
REMARK    1  A    between atoms: C_2  and  C_3
REMARK    2  A    between atoms: C_3  and  N_4
REMARK    3  A    between atoms: C_5  and  C_6
REMARK    4  A    between atoms: C_8  and  C_9
REMARK    5  A    between atoms: N_13  and  C_14
REMARK    6  A    between atoms: C_14  and  C_15
REMARK    7  A    between atoms: C_18  and  C_19
REMARK                            x       y       z     vdW  Elec       q    Type
REMARK                         _______ _______ _______ _____ _____    ______ ____
ROOT
ATOM      1  N   UNL     1       0.824   9.547  19.986  0.00  0.00    +0.000 N 
ATOM      2  C   UNL     1       0.627   8.791  21.124  0.00  0.00    +0.000 A 
ATOM      3  C   UNL     1      -0.255   9.177  22.264  0.00  0.00    +0.000 C 
ATOM      4  C   UNL     1       1.365   7.635  20.986  0.00  0.00    +0.000 A 
ATOM      5  C   UNL     1       1.982   7.636  19.705  0.00  0.00    +0.000 A 
ATOM      6  C   UNL     1       1.630   8.841  19.101  0.00  0.00    +0.000 A 
ATOM      7  C   UNL     1       1.950   9.350  17.732  0.00  0.00    +0.000 C 
ENDROOT
BRANCH   5   8
ATOM      8  C   UNL     1       2.754   6.545  19.094  0.00  0.00    +0.000 C 
ATOM      9  N   UNL     1       3.664   6.888  18.237  0.00  0.00    +0.000 NA
ATOM     10  N   UNL     1       4.322   5.943  17.453  0.00  0.00    +0.000 NA
ATOM     11  C   UNL     1       4.389   4.684  17.746  0.00  0.00    +0.000 C 
ATOM     12  N   UNL     1       5.070   3.772  16.986  0.00  0.00    +0.000 N 
ATOM     13  S   UNL     1       3.638   3.940  19.126  0.00  0.00    +0.000 S 
ATOM     14  C   UNL     1       2.346   5.139  19.421  0.00  0.00    +0.000 C 
ATOM     15  H   UNL     1       4.887   2.804  17.219  0.00  0.00    +0.000 HD
BRANCH  12  16
ATOM     16  C   UNL     1       5.490   4.060  15.632  0.00  0.00    +0.000 C 
ATOM     17  C   UNL     1       6.957   4.460  15.612  0.00  0.00    +0.000 C 
ENDBRANCH  12  16
ENDBRANCH   5   8
BRANCH   1  18
ATOM     18  C   UNL     1       0.275  10.880  19.734  0.00  0.00    +0.000 C 
BRANCH  18  20
ATOM     19  C   UNL     1      -1.704  10.140  18.282  0.00  0.00    +0.000 C 
ATOM     20  C   UNL     1      -1.146  10.910  19.228  0.00  0.00    +0.000 C 
ENDBRANCH  18  20
ENDBRANCH   1  18
TORSDOF 4
ENDMDL
MODEL 5
REMARK VINA RESULT:      -6.0      4.007      6.144
REMARK  Name = 
REMARK  7 active torsions:
REMARK  status: ('A' for Active; 'I' for Inactive)
REMARK    1  A    between atoms: C_2  and  C_3
REMARK    2  A    between atoms: C_3  and  N_4
REMARK    3  A    between atoms: C_5  and  C_6
REMARK    4  A    between atoms: C_8  and  C_9
REMARK    5  A    between atoms: N_13  and  C_14
REMARK    6  A    between atoms: C_14  and  C_15
REMARK    7  A    between atoms: C_18  and  C_19
REMARK                            x       y       z     vdW  Elec       q    Type
REMARK                         _______ _______ _______ _____ _____    ______ ____
ROOT
ATOM      1  N   UNL     1       3.306   4.158  19.786  0.00  0.00    +0.000 N 
ATOM      2  C   UNL     1       2.311   4.074  20.739  0.00  0.00    +0.000 A 
ATOM      3  C   UNL     1       2.060   2.890  21.610  0.00  0.00    +0.000 C 
ATOM      4  C   UNL     1       1.638   5.277  20.741  0.00  0.00    +0.000 A 
ATOM      5  C   UNL     1       2.268   6.156  19.818  0.00  0.00    +0.000 A 
ATOM      6  C   UNL     1       3.306   5.433  19.234  0.00  0.00    +0.000 A 
ATOM      7  C   UNL     1       4.331   5.872  18.236  0.00  0.00    +0.000 C 
ENDROOT
BRANCH   5   8
ATOM      8  C   UNL     1       1.958   7.575  19.592  0.00  0.00    +0.000 C 
ATOM      9  N   UNL     1       2.308   8.071  18.448  0.00  0.00    +0.000 NA
ATOM     10  N   UNL     1       2.243   9.439  18.194  0.00  0.00    +0.000 NA
ATOM     11  C   UNL     1       1.509  10.264  18.869  0.00  0.00    +0.000 C 
ATOM     12  N   UNL     1       1.427  11.600  18.586  0.00  0.00    +0.000 N 
ATOM     13  S   UNL     1       0.520   9.832  20.232  0.00  0.00    +0.000 S 
ATOM     14  C   UNL     1       1.377   8.348  20.740  0.00  0.00    +0.000 C 
ATOM     15  H   UNL     1       0.973  12.158  19.299  0.00  0.00    +0.000 HD
BRANCH  12  16
ATOM     16  C   UNL     1       2.390  12.266  17.736  0.00  0.00    +0.000 C 
ATOM     17  C   UNL     1       2.850  13.563  18.382  0.00  0.00    +0.000 C 
ENDBRANCH  12  16
ENDBRANCH   5   8
BRANCH   1  18
ATOM     18  C   UNL     1       4.227   3.084  19.408  0.00  0.00    +0.000 C 
BRANCH  18  20
ATOM     19  C   UNL     1       2.554   2.183  17.687  0.00  0.00    +0.000 C 
ATOM     20  C   UNL     1       3.705   2.120  18.372  0.00  0.00    +0.000 C 
ENDBRANCH  18  20
ENDBRANCH   1  18
TORSDOF 4
ENDMDL
MODEL 6
REMARK VINA RESULT:      -5.9      3.814      6.786
REMARK  Name = 
REMARK  7 active torsions:
REMARK  status: ('A' for Active; 'I' for Inactive)
REMARK    1  A    between atoms: C_2  and  C_3
REMARK    2  A    between atoms: C_3  and  N_4
REMARK    3  A    between atoms: C_5  and  C_6
REMARK    4  A    between atoms: C_8  and  C_9
REMARK    5  A    between atoms: N_13  and  C_14
REMARK    6  A    between atoms: C_14  and  C_15
REMARK    7  A    between atoms: C_18  and  C_19
REMARK                            x       y       z     vdW  Elec       q    Type
REMARK                         _______ _______ _______ _____ _____    ______ ____
ROOT
ATOM      1  N   UNL     1       3.367   4.352  19.685  0.00  0.00    +0.000 N 
ATOM      2  C   UNL     1       2.429   4.239  20.691  0.00  0.00    +0.000 A 
ATOM      3  C   UNL     1       2.270   3.053  21.582  0.00  0.00    +0.000 C 
ATOM      4  C   UNL     1       1.712   5.416  20.723  0.00  0.00    +0.000 A 
ATOM      5  C   UNL     1       2.257   6.310  19.762  0.00  0.00    +0.000 A 
ATOM      6  C   UNL     1       3.289   5.623  19.127  0.00  0.00    +0.000 A 
ATOM      7  C   UNL     1       4.241   6.092  18.073  0.00  0.00    +0.000 C 
ENDROOT
BRANCH   5   8
ATOM      8  C   UNL     1       1.881   7.714  19.545  0.00  0.00    +0.000 C 
ATOM      9  N   UNL     1       1.473   8.373  20.584  0.00  0.00    +0.000 NA
ATOM     10  N   UNL     1       0.909   9.641  20.469  0.00  0.00    +0.000 NA
ATOM     11  C   UNL     1       1.080  10.417  19.446  0.00  0.00    +0.000 C 
ATOM     12  N   UNL     1       0.550  11.675  19.362  0.00  0.00    +0.000 N 
ATOM     13  S   UNL     1       1.990  10.005  18.024  0.00  0.00    +0.000 S 
ATOM     14  C   UNL     1       1.888   8.224  18.134  0.00  0.00    +0.000 C 
ATOM     15  H   UNL     1       0.599  12.096  18.443  0.00  0.00    +0.000 HD
BRANCH  12  16
ATOM     16  C   UNL     1      -0.507  12.125  20.242  0.00  0.00    +0.000 C 
ATOM     17  C   UNL     1      -1.845  12.075  19.521  0.00  0.00    +0.000 C 
ENDBRANCH  12  16
ENDBRANCH   5   8
BRANCH   1  18
ATOM     18  C   UNL     1       4.306   3.311  19.264  0.00  0.00    +0.000 C 
BRANCH  18  20
ATOM     19  C   UNL     1       2.547   2.277  17.713  0.00  0.00    +0.000 C 
ATOM     20  C   UNL     1       3.786   2.354  18.221  0.00  0.00    +0.000 C 
ENDBRANCH  18  20
ENDBRANCH   1  18
TORSDOF 4
ENDMDL
MODEL 7
REMARK VINA RESULT:      -5.9      3.486      6.971
REMARK  Name = 
REMARK  7 active torsions:
REMARK  status: ('A' for Active; 'I' for Inactive)
REMARK    1  A    between atoms: C_2  and  C_3
REMARK    2  A    between atoms: C_3  and  N_4
REMARK    3  A    between atoms: C_5  and  C_6
REMARK    4  A    between atoms: C_8  and  C_9
REMARK    5  A    between atoms: N_13  and  C_14
REMARK    6  A    between atoms: C_14  and  C_15
REMARK    7  A    between atoms: C_18  and  C_19
REMARK                            x       y       z     vdW  Elec       q    Type
REMARK                         _______ _______ _______ _____ _____    ______ ____
ROOT
ATOM      1  N   UNL     1       3.238   4.093  17.819  0.00  0.00    +0.000 N 
ATOM      2  C   UNL     1       4.140   4.868  17.115  0.00  0.00    +0.000 A 
ATOM      3  C   UNL     1       5.120   4.345  16.120  0.00  0.00    +0.000 C 
ATOM      4  C   UNL     1       3.937   6.179  17.486  0.00  0.00    +0.000 A 
ATOM      5  C   UNL     1       2.840   6.235  18.389  0.00  0.00    +0.000 A 
ATOM      6  C   UNL     1       2.422   4.920  18.581  0.00  0.00    +0.000 A 
ATOM      7  C   UNL     1       1.277   4.391  19.386  0.00  0.00    +0.000 C 
ENDROOT
BRANCH   5   8
ATOM      8  C   UNL     1       2.203   7.442  18.936  0.00  0.00    +0.000 C 
ATOM      9  N   UNL     1       2.072   7.496  20.223  0.00  0.00    +0.000 NA
ATOM     10  N   UNL     1       1.316   8.491  20.839  0.00  0.00    +0.000 NA
ATOM     11  C   UNL     1       1.014   9.618  20.279  0.00  0.00    +0.000 C 
ATOM     12  N   UNL     1       0.301  10.602  20.908  0.00  0.00    +0.000 N 
ATOM     13  S   UNL     1       1.445  10.073  18.657  0.00  0.00    +0.000 S 
ATOM     14  C   UNL     1       1.659   8.442  17.958  0.00  0.00    +0.000 C 
ATOM     15  H   UNL     1      -0.026  11.344  20.302  0.00  0.00    +0.000 HD
BRANCH  12  16
ATOM     16  C   UNL     1      -0.455  10.351  22.116  0.00  0.00    +0.000 C 
ATOM     17  C   UNL     1      -1.124  11.631  22.590  0.00  0.00    +0.000 C 
ENDBRANCH  12  16
ENDBRANCH   5   8
BRANCH   1  18
ATOM     18  C   UNL     1       3.141   2.633  17.776  0.00  0.00    +0.000 C 
BRANCH  18  20
ATOM     19  C   UNL     1       4.360   2.361  20.014  0.00  0.00    +0.000 C 
ATOM     20  C   UNL     1       3.936   1.901  18.828  0.00  0.00    +0.000 C 
ENDBRANCH  18  20
ENDBRANCH   1  18
TORSDOF 4
ENDMDL
MODEL 8
REMARK VINA RESULT:      -5.9      1.093      1.318
REMARK  Name = 
REMARK  7 active torsions:
REMARK  status: ('A' for Active; 'I' for Inactive)
REMARK    1  A    between atoms: C_2  and  C_3
REMARK    2  A    between atoms: C_3  and  N_4
REMARK    3  A    between atoms: C_5  and  C_6
REMARK    4  A    between atoms: C_8  and  C_9
REMARK    5  A    between atoms: N_13  and  C_14
REMARK    6  A    between atoms: C_14  and  C_15
REMARK    7  A    between atoms: C_18  and  C_19
REMARK                            x       y       z     vdW  Elec       q    Type
REMARK                         _______ _______ _______ _____ _____    ______ ____
ROOT
ATOM      1  N   UNL     1       2.653   4.601  20.450  0.00  0.00    +0.000 N 
ATOM      2  C   UNL     1       2.266   5.904  20.207  0.00  0.00    +0.000 A 
ATOM      3  C   UNL     1       1.247   6.653  20.997  0.00  0.00    +0.000 C 
ATOM      4  C   UNL     1       3.008   6.364  19.140  0.00  0.00    +0.000 A 
ATOM      5  C   UNL     1       3.926   5.352  18.751  0.00  0.00    +0.000 A 
ATOM      6  C   UNL     1       3.685   4.261  19.583  0.00  0.00    +0.000 A 
ATOM      7  C   UNL     1       4.389   2.943  19.658  0.00  0.00    +0.000 C 
ENDROOT
BRANCH   5   8
ATOM      8  C   UNL     1       4.989   5.461  17.742  0.00  0.00    +0.000 C 
ATOM      9  N   UNL     1       4.632   5.320  16.504  0.00  0.00    +0.000 NA
ATOM     10  N   UNL     1       5.570   5.210  15.481  0.00  0.00    +0.000 NA
ATOM     11  C   UNL     1       6.799   5.606  15.583  0.00  0.00    +0.000 C 
ATOM     12  N   UNL     1       7.700   5.525  14.557  0.00  0.00    +0.000 N 
ATOM     13  S   UNL     1       7.509   6.293  17.012  0.00  0.00    +0.000 S 
ATOM     14  C   UNL     1       6.400   5.606  18.233  0.00  0.00    +0.000 C 
ATOM     15  H   UNL     1       8.663   5.690  14.824  0.00  0.00    +0.000 HD
BRANCH  12  16
ATOM     16  C   UNL     1       7.468   4.699  13.392  0.00  0.00    +0.000 C 
ATOM     17  C   UNL     1       7.815   5.468  12.127  0.00  0.00    +0.000 C 
ENDBRANCH  12  16
ENDBRANCH   5   8
BRANCH   1  18
ATOM     18  C   UNL     1       2.081   3.708  21.459  0.00  0.00    +0.000 C 
BRANCH  18  20
ATOM     19  C   UNL     1       0.585   2.592  19.703  0.00  0.00    +0.000 C 
ATOM     20  C   UNL     1       1.002   2.778  20.964  0.00  0.00    +0.000 C 
ENDBRANCH  18  20
ENDBRANCH   1  18
TORSDOF 4
ENDMDL
MODEL 9
REMARK VINA RESULT:      -5.9      3.726      7.024
REMARK  Name = 
REMARK  7 active torsions:
REMARK  status: ('A' for Active; 'I' for Inactive)
REMARK    1  A    between atoms: C_2  and  C_3
REMARK    2  A    between atoms: C_3  and  N_4
REMARK    3  A    between atoms: C_5  and  C_6
REMARK    4  A    between atoms: C_8  and  C_9
REMARK    5  A    between atoms: N_13  and  C_14
REMARK    6  A    between atoms: C_14  and  C_15
REMARK    7  A    between atoms: C_18  and  C_19
REMARK                            x       y       z     vdW  Elec       q    Type
REMARK                         _______ _______ _______ _____ _____    ______ ____
ROOT
ATOM      1  N   UNL     1       3.346   4.370  18.952  0.00  0.00    +0.000 N 
ATOM      2  C   UNL     1       3.894   4.859  17.783  0.00  0.00    +0.000 A 
ATOM      3  C   UNL     1       4.648   4.044  16.787  0.00  0.00    +0.000 C 
ATOM      4  C   UNL     1       3.589   6.201  17.712  0.00  0.00    +0.000 A 
ATOM      5  C   UNL     1       2.774   6.545  18.826  0.00  0.00    +0.000 A 
ATOM      6  C   UNL     1       2.638   5.385  19.585  0.00  0.00    +0.000 A 
ATOM      7  C   UNL     1       1.846   5.148  20.831  0.00  0.00    +0.000 C 
ENDROOT
BRANCH   5   8
ATOM      8  C   UNL     1       2.120   7.836  19.079  0.00  0.00    +0.000 C 
ATOM      9  N   UNL     1       1.744   8.067  20.298  0.00  0.00    +0.000 NA
ATOM     10  N   UNL     1       0.947   9.162  20.621  0.00  0.00    +0.000 NA
ATOM     11  C   UNL     1       0.829  10.214  19.876  0.00  0.00    +0.000 C 
ATOM     12  N   UNL     1       0.070  11.298  20.223  0.00  0.00    +0.000 N 
ATOM     13  S   UNL     1       1.595  10.431  18.330  0.00  0.00    +0.000 S 
ATOM     14  C   UNL     1       1.839   8.715  17.896  0.00  0.00    +0.000 C 
ATOM     15  H   UNL     1      -0.086  11.963  19.476  0.00  0.00    +0.000 HD
BRANCH  12  16
ATOM     16  C   UNL     1      -0.921  11.239  21.276  0.00  0.00    +0.000 C 
ATOM     17  C   UNL     1      -0.688  12.359  22.277  0.00  0.00    +0.000 C 
ENDBRANCH  12  16
ENDBRANCH   5   8
BRANCH   1  18
ATOM     18  C   UNL     1       3.476   3.002  19.456  0.00  0.00    +0.000 C 
BRANCH  18  20
ATOM     19  C   UNL     1       1.167   2.312  18.584  0.00  0.00    +0.000 C 
ATOM     20  C   UNL     1       2.415   2.037  18.989  0.00  0.00    +0.000 C 
ENDBRANCH  18  20
ENDBRANCH   1  18
TORSDOF 4
ENDMDL
