MODEL 1
REMARK VINA RESULT:      -9.5      0.000      0.000
REMARK  Name = 
REMARK  6 active torsions:
REMARK  status: ('A' for Active; 'I' for Inactive)
REMARK    1  A    between atoms: C_1  and  C_2
REMARK    2  A    between atoms: C_6  and  N_7
REMARK    3  A    between atoms: C_8  and  C_10
REMARK    4  A    between atoms: C_10  and  N_11
REMARK    5  A    between atoms: C_10  and  C_24
REMARK    6  A    between atoms: C_12  and  C_14
REMARK                            x       y       z     vdW  Elec       q    Type
REMARK                         _______ _______ _______ _____ _____    ______ ____
ROOT
ATOM      1  C   UNL     1       3.996   5.192  19.418  0.00  0.00    +0.000 C 
ENDROOT
BRANCH   1   2
ATOM      2  C   UNL     1       2.868   4.167  19.676  0.00  0.00    +0.000 A 
ATOM      3  C   UNL     1       2.092   3.654  18.613  0.00  0.00    +0.000 A 
ATOM      4  C   UNL     1       0.976   2.827  18.860  0.00  0.00    +0.000 A 
ATOM      5  C   UNL     1       0.632   2.492  20.170  0.00  0.00    +0.000 A 
ATOM      6  C   UNL     1       1.415   2.956  21.227  0.00  0.00    +0.000 A 
ATOM      7  C   UNL     1       2.524   3.781  20.984  0.00  0.00    +0.000 A 
ENDBRANCH   1   2
BRANCH   1   9
ATOM      8  N   UNL     1       2.492   7.146  19.918  0.00  0.00    +0.000 N 
ATOM      9  C   UNL     1       3.331   6.544  18.960  0.00  0.00    +0.000 C 
ATOM     10  O   UNL     1       3.483   6.942  17.803  0.00  0.00    +0.000 OA
ATOM     11  H   UNL     1       2.332   6.637  20.779  0.00  0.00    +0.000 HD
BRANCH   8  17
ATOM     12  C   UNL     1      -0.521  10.664  21.821  0.00  0.00    +0.000 C 
ATOM     13  C   UNL     1       0.214  10.043  20.664  0.00  0.00    +0.000 A 
ATOM     14  C   UNL     1       0.067  10.601  19.390  0.00  0.00    +0.000 A 
ATOM     15  C   UNL     1       0.745  10.055  18.310  0.00  0.00    +0.000 A 
ATOM     16  C   UNL     1       1.557   8.932  18.482  0.00  0.00    +0.000 A 
ATOM     17  C   UNL     1       1.707   8.324  19.728  0.00  0.00    +0.000 A 
ATOM     18  C   UNL     1       1.051   8.914  20.830  0.00  0.00    +0.000 A 
ENDBRANCH   8  17
ENDBRANCH   1   9
BRANCH   1  19
ATOM     19  N   UNL     1       4.977   4.677  18.435  0.00  0.00    +0.000 N 
ATOM     20  C   UNL     1       6.192   5.282  18.081  0.00  0.00    +0.000 C 
ATOM     21  O   UNL     1       6.660   6.247  18.675  0.00  0.00    +0.000 OA
ATOM     22  H   UNL     1       4.654   4.009  17.740  0.00  0.00    +0.000 HD
BRANCH  20  23
ATOM     23  C   UNL     1       6.937   4.511  16.896  0.00  0.00    +0.000 C 
ATOM     24  C   UNL     1       7.504   5.331  15.656  0.00  0.00    +0.000 C 
ATOM     25  C   UNL     1       7.020   4.828  14.281  0.00  0.00    +0.000 A 
ATOM     26  C   UNL     1       7.738   4.961  13.086  0.00  0.00    +0.000 A 
ATOM     27  C   UNL     1       7.243   4.402  11.890  0.00  0.00    +0.000 A 
ATOM     28  C   UNL     1       6.025   3.721  11.878  0.00  0.00    +0.000 A 
ATOM     29  C   UNL     1       5.285   3.616  13.050  0.00  0.00    +0.000 A 
ATOM     30  C   UNL     1       5.779   4.167  14.236  0.00  0.00    +0.000 A 
ATOM     31  C   UNL     1       5.062   3.974  15.538  0.00  0.00    +0.000 C 
ATOM     32  N   UNL     1       6.025   3.400  16.493  0.00  0.00    +0.000 NA
ATOM     33  H   UNL     1       6.586   2.717  15.977  0.00  0.00    +0.000 HD
ENDBRANCH  20  23
ENDBRANCH   1  19
TORSDOF 5
ENDMDL
MODEL 2
REMARK VINA RESULT:      -9.2      3.750      6.994
REMARK  Name = 
REMARK  6 active torsions:
REMARK  status: ('A' for Active; 'I' for Inactive)
REMARK    1  A    between atoms: C_1  and  C_2
REMARK    2  A    between atoms: C_6  and  N_7
REMARK    3  A    between atoms: C_8  and  C_10
REMARK    4  A    between atoms: C_10  and  N_11
REMARK    5  A    between atoms: C_10  and  C_24
REMARK    6  A    between atoms: C_12  and  C_14
REMARK                            x       y       z     vdW  Elec       q    Type
REMARK                         _______ _______ _______ _____ _____    ______ ____
ROOT
ATOM      1  C   UNL     1       0.196  10.512  20.061  0.00  0.00    +0.000 C 
ENDROOT
BRANCH   1   2
ATOM      2  C   UNL     1      -0.897  10.654  18.976  0.00  0.00    +0.000 A 
ATOM      3  C   UNL     1      -1.998  11.519  19.160  0.00  0.00    +0.000 A 
ATOM      4  C   UNL     1      -3.064  11.547  18.236  0.00  0.00    +0.000 A 
ATOM      5  C   UNL     1      -3.034  10.720  17.112  0.00  0.00    +0.000 A 
ATOM      6  C   UNL     1      -1.933   9.892  16.896  0.00  0.00    +0.000 A 
ATOM      7  C   UNL     1      -0.872   9.862  17.815  0.00  0.00    +0.000 A 
ENDBRANCH   1   2
BRANCH   1   9
ATOM      8  N   UNL     1       1.161  12.511  18.875  0.00  0.00    +0.000 N 
ATOM      9  C   UNL     1       1.008  11.861  20.115  0.00  0.00    +0.000 C 
ATOM     10  O   UNL     1       1.538  12.216  21.170  0.00  0.00    +0.000 OA
ATOM     11  H   UNL     1       0.804  12.034  18.055  0.00  0.00    +0.000 HD
BRANCH   8  17
ATOM     12  C   UNL     1       5.550  14.673  17.811  0.00  0.00    +0.000 C 
ATOM     13  C   UNL     1       4.081  14.757  18.126  0.00  0.00    +0.000 A 
ATOM     14  C   UNL     1       3.484  16.017  18.238  0.00  0.00    +0.000 A 
ATOM     15  C   UNL     1       2.128  16.120  18.514  0.00  0.00    +0.000 A 
ATOM     16  C   UNL     1       1.357  14.972  18.706  0.00  0.00    +0.000 A 
ATOM     17  C   UNL     1       1.919  13.697  18.634  0.00  0.00    +0.000 A 
ATOM     18  C   UNL     1       3.288  13.599  18.307  0.00  0.00    +0.000 A 
ENDBRANCH   8  17
ENDBRANCH   1   9
BRANCH   1  19
ATOM     19  N   UNL     1       1.060   9.337  19.804  0.00  0.00    +0.000 N 
ATOM     20  C   UNL     1       1.122   8.169  20.578  0.00  0.00    +0.000 C 
ATOM     21  O   UNL     1       0.336   7.922  21.486  0.00  0.00    +0.000 OA
ATOM     22  H   UNL     1       1.881   9.464  19.219  0.00  0.00    +0.000 HD
BRANCH  20  23
ATOM     23  C   UNL     1       2.257   7.161  20.077  0.00  0.00    +0.000 C 
ATOM     24  C   UNL     1       2.299   6.719  18.550  0.00  0.00    +0.000 C 
ATOM     25  C   UNL     1       2.306   5.194  18.325  0.00  0.00    +0.000 A 
ATOM     26  C   UNL     1       2.878   4.554  17.218  0.00  0.00    +0.000 A 
ATOM     27  C   UNL     1       2.896   3.146  17.139  0.00  0.00    +0.000 A 
ATOM     28  C   UNL     1       2.333   2.372  18.155  0.00  0.00    +0.000 A 
ATOM     29  C   UNL     1       1.729   2.997  19.240  0.00  0.00    +0.000 A 
ATOM     30  C   UNL     1       1.715   4.393  19.318  0.00  0.00    +0.000 A 
ATOM     31  C   UNL     1       1.173   5.095  20.527  0.00  0.00    +0.000 C 
ATOM     32  N   UNL     1       2.222   6.004  21.020  0.00  0.00    +0.000 NA
ATOM     33  H   UNL     1       3.113   5.509  20.927  0.00  0.00    +0.000 HD
ENDBRANCH  20  23
ENDBRANCH   1  19
TORSDOF 5
ENDMDL
MODEL 3
REMARK VINA RESULT:      -9.1      3.762      6.963
REMARK  Name = 
REMARK  6 active torsions:
REMARK  status: ('A' for Active; 'I' for Inactive)
REMARK    1  A    between atoms: C_1  and  C_2
REMARK    2  A    between atoms: C_6  and  N_7
REMARK    3  A    between atoms: C_8  and  C_10
REMARK    4  A    between atoms: C_10  and  N_11
REMARK    5  A    between atoms: C_10  and  C_24
REMARK    6  A    between atoms: C_12  and  C_14
REMARK                            x       y       z     vdW  Elec       q    Type
REMARK                         _______ _______ _______ _____ _____    ______ ____
ROOT
ATOM      1  C   UNL     1       0.184  10.516  20.047  0.00  0.00    +0.000 C 
ENDROOT
BRANCH   1   2
ATOM      2  C   UNL     1      -0.914  10.658  18.966  0.00  0.00    +0.000 A 
ATOM      3  C   UNL     1      -2.019  11.515  19.158  0.00  0.00    +0.000 A 
ATOM      4  C   UNL     1      -3.088  11.542  18.237  0.00  0.00    +0.000 A 
ATOM      5  C   UNL     1      -3.057  10.722  17.109  0.00  0.00    +0.000 A 
ATOM      6  C   UNL     1      -1.952   9.902  16.884  0.00  0.00    +0.000 A 
ATOM      7  C   UNL     1      -0.888   9.873  17.800  0.00  0.00    +0.000 A 
ENDBRANCH   1   2
BRANCH   1   9
ATOM      8  N   UNL     1       1.199  12.481  18.848  0.00  0.00    +0.000 N 
ATOM      9  C   UNL     1       0.995  11.865  20.098  0.00  0.00    +0.000 C 
ATOM     10  O   UNL     1       1.482  12.248  21.163  0.00  0.00    +0.000 OA
ATOM     11  H   UNL     1       0.876  11.983  18.027  0.00  0.00    +0.000 HD
BRANCH   8  17
ATOM     12  C   UNL     1       1.463  17.476  18.604  0.00  0.00    +0.000 C 
ATOM     13  C   UNL     1       2.091  16.115  18.472  0.00  0.00    +0.000 A 
ATOM     14  C   UNL     1       3.420  16.021  18.049  0.00  0.00    +0.000 A 
ATOM     15  C   UNL     1       4.025  14.777  17.933  0.00  0.00    +0.000 A 
ATOM     16  C   UNL     1       3.306  13.614  18.212  0.00  0.00    +0.000 A 
ATOM     17  C   UNL     1       1.969  13.660  18.606  0.00  0.00    +0.000 A 
ATOM     18  C   UNL     1       1.375  14.930  18.767  0.00  0.00    +0.000 A 
ENDBRANCH   8  17
ENDBRANCH   1   9
BRANCH   1  19
ATOM     19  N   UNL     1       1.046   9.341  19.786  0.00  0.00    +0.000 N 
ATOM     20  C   UNL     1       1.138   8.187  20.579  0.00  0.00    +0.000 C 
ATOM     21  O   UNL     1       0.379   7.953  21.514  0.00  0.00    +0.000 OA
ATOM     22  H   UNL     1       1.850   9.462  19.175  0.00  0.00    +0.000 HD
BRANCH  20  23
ATOM     23  C   UNL     1       2.264   7.177  20.063  0.00  0.00    +0.000 C 
ATOM     24  C   UNL     1       2.277   6.724  18.539  0.00  0.00    +0.000 C 
ATOM     25  C   UNL     1       2.281   5.197  18.326  0.00  0.00    +0.000 A 
ATOM     26  C   UNL     1       2.832   4.549  17.213  0.00  0.00    +0.000 A 
ATOM     27  C   UNL     1       2.851   3.141  17.145  0.00  0.00    +0.000 A 
ATOM     28  C   UNL     1       2.308   2.374  18.177  0.00  0.00    +0.000 A 
ATOM     29  C   UNL     1       1.725   3.006  19.268  0.00  0.00    +0.000 A 
ATOM     30  C   UNL     1       1.710   4.403  19.336  0.00  0.00    +0.000 A 
ATOM     31  C   UNL     1       1.190   5.114  20.550  0.00  0.00    +0.000 C 
ATOM     32  N   UNL     1       2.248   6.027  21.016  0.00  0.00    +0.000 NA
ATOM     33  H   UNL     1       3.138   5.532  20.910  0.00  0.00    +0.000 HD
ENDBRANCH  20  23
ENDBRANCH   1  19
TORSDOF 5
ENDMDL
MODEL 4
REMARK VINA RESULT:      -9.0      3.862      6.945
REMARK  Name = 
REMARK  6 active torsions:
REMARK  status: ('A' for Active; 'I' for Inactive)
REMARK    1  A    between atoms: C_1  and  C_2
REMARK    2  A    between atoms: C_6  and  N_7
REMARK    3  A    between atoms: C_8  and  C_10
REMARK    4  A    between atoms: C_10  and  N_11
REMARK    5  A    between atoms: C_10  and  C_24
REMARK    6  A    between atoms: C_12  and  C_14
REMARK                            x       y       z     vdW  Elec       q    Type
REMARK                         _______ _______ _______ _____ _____    ______ ____
ROOT
ATOM      1  C   UNL     1       0.694  10.489  19.550  0.00  0.00    +0.000 C 
ENDROOT
BRANCH   1   2
ATOM      2  C   UNL     1      -0.655  10.484  18.794  0.00  0.00    +0.000 A 
ATOM      3  C   UNL     1      -0.828   9.723  17.617  0.00  0.00    +0.000 A 
ATOM      4  C   UNL     1      -2.010   9.823  16.852  0.00  0.00    +0.000 A 
ATOM      5  C   UNL     1      -3.035  10.676  17.261  0.00  0.00    +0.000 A 
ATOM      6  C   UNL     1      -2.896  11.401  18.444  0.00  0.00    +0.000 A 
ATOM      7  C   UNL     1      -1.721  11.304  19.206  0.00  0.00    +0.000 A 
ENDBRANCH   1   2
BRANCH   1   9
ATOM      8  N   UNL     1       1.293  12.926  19.730  0.00  0.00    +0.000 N 
ATOM      9  C   UNL     1       1.533  11.721  19.042  0.00  0.00    +0.000 C 
ATOM     10  O   UNL     1       2.249  11.607  18.044  0.00  0.00    +0.000 OA
ATOM     11  H   UNL     1       0.565  12.920  20.435  0.00  0.00    +0.000 HD
BRANCH   8  17
ATOM     12  C   UNL     1       0.718  17.554  17.906  0.00  0.00    +0.000 C 
ATOM     13  C   UNL     1       1.573  16.471  18.506  0.00  0.00    +0.000 A 
ATOM     14  C   UNL     1       2.937  16.711  18.695  0.00  0.00    +0.000 A 
ATOM     15  C   UNL     1       3.743  15.732  19.259  0.00  0.00    +0.000 A 
ATOM     16  C   UNL     1       3.204  14.495  19.617  0.00  0.00    +0.000 A 
ATOM     17  C   UNL     1       1.855  14.201  19.417  0.00  0.00    +0.000 A 
ATOM     18  C   UNL     1       1.033  15.219  18.887  0.00  0.00    +0.000 A 
ENDBRANCH   8  17
ENDBRANCH   1   9
BRANCH   1  19
ATOM     19  N   UNL     1       1.409   9.204  19.382  0.00  0.00    +0.000 N 
ATOM     20  C   UNL     1       1.454   8.152  20.310  0.00  0.00    +0.000 C 
ATOM     21  O   UNL     1       0.759   8.119  21.320  0.00  0.00    +0.000 OA
ATOM     22  H   UNL     1       2.165   9.160  18.703  0.00  0.00    +0.000 HD
BRANCH  20  23
ATOM     23  C   UNL     1       2.424   6.969  19.849  0.00  0.00    +0.000 C 
ATOM     24  C   UNL     1       2.281   6.356  18.388  0.00  0.00    +0.000 C 
ATOM     25  C   UNL     1       2.104   4.825  18.351  0.00  0.00    +0.000 A 
ATOM     26  C   UNL     1       2.502   4.003  17.290  0.00  0.00    +0.000 A 
ATOM     27  C   UNL     1       2.363   2.602  17.382  0.00  0.00    +0.000 A 
ATOM     28  C   UNL     1       1.814   2.018  18.525  0.00  0.00    +0.000 A 
ATOM     29  C   UNL     1       1.381   2.827  19.568  0.00  0.00    +0.000 A 
ATOM     30  C   UNL     1       1.523   4.215  19.477  0.00  0.00    +0.000 A 
ATOM     31  C   UNL     1       1.170   5.108  20.630  0.00  0.00    +0.000 C 
ATOM     32  N   UNL     1       2.350   5.937  20.926  0.00  0.00    +0.000 NA
ATOM     33  H   UNL     1       3.172   5.334  20.826  0.00  0.00    +0.000 HD
ENDBRANCH  20  23
ENDBRANCH   1  19
TORSDOF 5
ENDMDL
MODEL 5
REMARK VINA RESULT:      -8.9      3.882      6.954
REMARK  Name = 
REMARK  6 active torsions:
REMARK  status: ('A' for Active; 'I' for Inactive)
REMARK    1  A    between atoms: C_1  and  C_2
REMARK    2  A    between atoms: C_6  and  N_7
REMARK    3  A    between atoms: C_8  and  C_10
REMARK    4  A    between atoms: C_10  and  N_11
REMARK    5  A    between atoms: C_10  and  C_24
REMARK    6  A    between atoms: C_12  and  C_14
REMARK                            x       y       z     vdW  Elec       q    Type
REMARK                         _______ _______ _______ _____ _____    ______ ____
ROOT
ATOM      1  C   UNL     1       0.727  10.493  19.522  0.00  0.00    +0.000 C 
ENDROOT
BRANCH   1   2
ATOM      2  C   UNL     1      -0.624  10.504  18.769  0.00  0.00    +0.000 A 
ATOM      3  C   UNL     1      -0.808   9.746  17.592  0.00  0.00    +0.000 A 
ATOM      4  C   UNL     1      -1.989   9.861  16.829  0.00  0.00    +0.000 A 
ATOM      5  C   UNL     1      -3.004  10.726  17.241  0.00  0.00    +0.000 A 
ATOM      6  C   UNL     1      -2.853  11.449  18.424  0.00  0.00    +0.000 A 
ATOM      7  C   UNL     1      -1.678  11.337  19.184  0.00  0.00    +0.000 A 
ENDBRANCH   1   2
BRANCH   1   9
ATOM      8  N   UNL     1       1.342  12.923  19.733  0.00  0.00    +0.000 N 
ATOM      9  C   UNL     1       1.572  11.726  19.028  0.00  0.00    +0.000 C 
ATOM     10  O   UNL     1       2.284  11.620  18.027  0.00  0.00    +0.000 OA
ATOM     11  H   UNL     1       0.616  12.912  20.440  0.00  0.00    +0.000 HD
BRANCH   8  17
ATOM     12  C   UNL     1       5.260  16.036  19.912  0.00  0.00    +0.000 C 
ATOM     13  C   UNL     1       3.834  15.731  19.539  0.00  0.00    +0.000 A 
ATOM     14  C   UNL     1       3.058  16.736  18.953  0.00  0.00    +0.000 A 
ATOM     15  C   UNL     1       1.745  16.476  18.587  0.00  0.00    +0.000 A 
ATOM     16  C   UNL     1       1.183  15.220  18.824  0.00  0.00    +0.000 A 
ATOM     17  C   UNL     1       1.911  14.199  19.435  0.00  0.00    +0.000 A 
ATOM     18  C   UNL     1       3.260  14.457  19.761  0.00  0.00    +0.000 A 
ENDBRANCH   8  17
ENDBRANCH   1   9
BRANCH   1  19
ATOM     19  N   UNL     1       1.434   9.205  19.338  0.00  0.00    +0.000 N 
ATOM     20  C   UNL     1       1.499   8.153  20.265  0.00  0.00    +0.000 C 
ATOM     21  O   UNL     1       0.829   8.122  21.292  0.00  0.00    +0.000 OA
ATOM     22  H   UNL     1       2.173   9.159  18.641  0.00  0.00    +0.000 HD
BRANCH  20  23
ATOM     23  C   UNL     1       2.454   6.968  19.781  0.00  0.00    +0.000 C 
ATOM     24  C   UNL     1       2.234   6.312  18.349  0.00  0.00    +0.000 C 
ATOM     25  C   UNL     1       2.073   4.779  18.364  0.00  0.00    +0.000 A 
ATOM     26  C   UNL     1       2.418   3.931  17.305  0.00  0.00    +0.000 A 
ATOM     27  C   UNL     1       2.301   2.532  17.444  0.00  0.00    +0.000 A 
ATOM     28  C   UNL     1       1.826   1.976  18.632  0.00  0.00    +0.000 A 
ATOM     29  C   UNL     1       1.445   2.809  19.677  0.00  0.00    +0.000 A 
ATOM     30  C   UNL     1       1.565   4.196  19.539  0.00  0.00    +0.000 A 
ATOM     31  C   UNL     1       1.269   5.117  20.685  0.00  0.00    +0.000 C 
ATOM     32  N   UNL     1       2.455   5.966  20.888  0.00  0.00    +0.000 NA
ATOM     33  H   UNL     1       3.277   5.368  20.757  0.00  0.00    +0.000 HD
ENDBRANCH  20  23
ENDBRANCH   1  19
TORSDOF 5
ENDMDL
MODEL 6
REMARK VINA RESULT:      -8.9      1.618      8.798
REMARK  Name = 
REMARK  6 active torsions:
REMARK  status: ('A' for Active; 'I' for Inactive)
REMARK    1  A    between atoms: C_1  and  C_2
REMARK    2  A    between atoms: C_6  and  N_7
REMARK    3  A    between atoms: C_8  and  C_10
REMARK    4  A    between atoms: C_10  and  N_11
REMARK    5  A    between atoms: C_10  and  C_24
REMARK    6  A    between atoms: C_12  and  C_14
REMARK                            x       y       z     vdW  Elec       q    Type
REMARK                         _______ _______ _______ _____ _____    ______ ____
ROOT
ATOM      1  C   UNL     1       1.899   6.362  18.621  0.00  0.00    +0.000 C 
ENDROOT
BRANCH   1   2
ATOM      2  C   UNL     1       1.839   5.070  19.469  0.00  0.00    +0.000 A 
ATOM      3  C   UNL     1       1.178   3.916  18.992  0.00  0.00    +0.000 A 
ATOM      4  C   UNL     1       1.003   2.785  19.817  0.00  0.00    +0.000 A 
ATOM      5  C   UNL     1       1.498   2.790  21.122  0.00  0.00    +0.000 A 
ATOM      6  C   UNL     1       2.190   3.906  21.591  0.00  0.00    +0.000 A 
ATOM      7  C   UNL     1       2.364   5.033  20.772  0.00  0.00    +0.000 A 
ENDBRANCH   1   2
BRANCH   1   9
ATOM      8  N   UNL     1       3.763   5.155  17.437  0.00  0.00    +0.000 N 
ATOM      9  C   UNL     1       3.295   6.403  17.893  0.00  0.00    +0.000 C 
ATOM     10  O   UNL     1       3.935   7.456  17.851  0.00  0.00    +0.000 OA
ATOM     11  H   UNL     1       3.209   4.339  17.670  0.00  0.00    +0.000 HD
BRANCH   8  17
ATOM     12  C   UNL     1       6.408   3.965  13.355  0.00  0.00    +0.000 C 
ATOM     13  C   UNL     1       6.323   4.302  14.819  0.00  0.00    +0.000 A 
ATOM     14  C   UNL     1       7.495   4.304  15.582  0.00  0.00    +0.000 A 
ATOM     15  C   UNL     1       7.445   4.625  16.932  0.00  0.00    +0.000 A 
ATOM     16  C   UNL     1       6.224   4.923  17.541  0.00  0.00    +0.000 A 
ATOM     17  C   UNL     1       5.028   4.903  16.824  0.00  0.00    +0.000 A 
ATOM     18  C   UNL     1       5.094   4.621  15.443  0.00  0.00    +0.000 A 
ENDBRANCH   8  17
ENDBRANCH   1   9
BRANCH   1  19
ATOM     19  N   UNL     1       1.654   7.562  19.452  0.00  0.00    +0.000 N 
ATOM     20  C   UNL     1       1.362   8.852  18.982  0.00  0.00    +0.000 C 
ATOM     21  O   UNL     1       1.118   9.098  17.806  0.00  0.00    +0.000 OA
ATOM     22  H   UNL     1       1.999   7.563  20.409  0.00  0.00    +0.000 HD
BRANCH  20  23
ATOM     23  C   UNL     1       1.280   9.929  20.159  0.00  0.00    +0.000 C 
ATOM     24  C   UNL     1       0.384   9.633  21.439  0.00  0.00    +0.000 C 
ATOM     25  C   UNL     1      -0.645  10.733  21.769  0.00  0.00    +0.000 A 
ATOM     26  C   UNL     1      -1.132  11.010  23.052  0.00  0.00    +0.000 A 
ATOM     27  C   UNL     1      -2.018  12.087  23.261  0.00  0.00    +0.000 A 
ATOM     28  C   UNL     1      -2.433  12.882  22.192  0.00  0.00    +0.000 A 
ATOM     29  C   UNL     1      -1.986  12.593  20.908  0.00  0.00    +0.000 A 
ATOM     30  C   UNL     1      -1.104  11.527  20.702  0.00  0.00    +0.000 A 
ATOM     31  C   UNL     1      -0.515  11.259  19.349  0.00  0.00    +0.000 C 
ATOM     32  N   UNL     1       0.949  11.229  19.502  0.00  0.00    +0.000 NA
ATOM     33  H   UNL     1       1.197  11.974  20.159  0.00  0.00    +0.000 HD
ENDBRANCH  20  23
ENDBRANCH   1  19
TORSDOF 5
ENDMDL
MODEL 7
REMARK VINA RESULT:      -8.9      1.486      8.605
REMARK  Name = 
REMARK  6 active torsions:
REMARK  status: ('A' for Active; 'I' for Inactive)
REMARK    1  A    between atoms: C_1  and  C_2
REMARK    2  A    between atoms: C_6  and  N_7
REMARK    3  A    between atoms: C_8  and  C_10
REMARK    4  A    between atoms: C_10  and  N_11
REMARK    5  A    between atoms: C_10  and  C_24
REMARK    6  A    between atoms: C_12  and  C_14
REMARK                            x       y       z     vdW  Elec       q    Type
REMARK                         _______ _______ _______ _____ _____    ______ ____
ROOT
ATOM      1  C   UNL     1       2.202   5.956  18.766  0.00  0.00    +0.000 C 
ENDROOT
BRANCH   1   2
ATOM      2  C   UNL     1       1.912   4.725  19.657  0.00  0.00    +0.000 A 
ATOM      3  C   UNL     1       2.257   4.720  21.026  0.00  0.00    +0.000 A 
ATOM      4  C   UNL     1       2.120   3.552  21.807  0.00  0.00    +0.000 A 
ATOM      5  C   UNL     1       1.624   2.382  21.230  0.00  0.00    +0.000 A 
ATOM      6  C   UNL     1       1.239   2.385  19.890  0.00  0.00    +0.000 A 
ATOM      7  C   UNL     1       1.376   3.545  19.111  0.00  0.00    +0.000 A 
ENDBRANCH   1   2
BRANCH   1   9
ATOM      8  N   UNL     1       3.818   5.535  16.884  0.00  0.00    +0.000 N 
ATOM      9  C   UNL     1       3.686   5.846  18.251  0.00  0.00    +0.000 C 
ATOM     10  O   UNL     1       4.621   5.929  19.051  0.00  0.00    +0.000 OA
ATOM     11  H   UNL     1       2.967   5.342  16.369  0.00  0.00    +0.000 HD
BRANCH   8  17
ATOM     12  C   UNL     1       6.221   3.621  12.930  0.00  0.00    +0.000 C 
ATOM     13  C   UNL     1       6.222   4.342  14.251  0.00  0.00    +0.000 A 
ATOM     14  C   UNL     1       7.444   4.720  14.815  0.00  0.00    +0.000 A 
ATOM     15  C   UNL     1       7.470   5.397  16.026  0.00  0.00    +0.000 A 
ATOM     16  C   UNL     1       6.281   5.683  16.700  0.00  0.00    +0.000 A 
ATOM     17  C   UNL     1       5.042   5.297  16.189  0.00  0.00    +0.000 A 
ATOM     18  C   UNL     1       5.022   4.650  14.935  0.00  0.00    +0.000 A 
ENDBRANCH   8  17
ENDBRANCH   1   9
BRANCH   1  19
ATOM     19  N   UNL     1       1.941   7.219  19.493  0.00  0.00    +0.000 N 
ATOM     20  C   UNL     1       1.789   8.490  18.919  0.00  0.00    +0.000 C 
ATOM     21  O   UNL     1       1.697   8.674  17.710  0.00  0.00    +0.000 OA
ATOM     22  H   UNL     1       2.174   7.261  20.482  0.00  0.00    +0.000 HD
BRANCH  20  23
ATOM     23  C   UNL     1       1.644   9.644  20.015  0.00  0.00    +0.000 C 
ATOM     24  C   UNL     1       0.814   9.370  21.343  0.00  0.00    +0.000 C 
ATOM     25  C   UNL     1      -0.300  10.398  21.626  0.00  0.00    +0.000 A 
ATOM     26  C   UNL     1      -0.774  10.729  22.901  0.00  0.00    +0.000 A 
ATOM     27  C   UNL     1      -1.747  11.737  23.061  0.00  0.00    +0.000 A 
ATOM     28  C   UNL     1      -2.261  12.408  21.950  0.00  0.00    +0.000 A 
ATOM     29  C   UNL     1      -1.826  12.061  20.677  0.00  0.00    +0.000 A 
ATOM     30  C   UNL     1      -0.858  11.064  20.520  0.00  0.00    +0.000 A 
ATOM     31  C   UNL     1      -0.286  10.745  19.171  0.00  0.00    +0.000 C 
ATOM     32  N   UNL     1       1.179  10.855  19.274  0.00  0.00    +0.000 NA
ATOM     33  H   UNL     1       1.377  11.667  19.865  0.00  0.00    +0.000 HD
ENDBRANCH  20  23
ENDBRANCH   1  19
TORSDOF 5
ENDMDL
MODEL 8
REMARK VINA RESULT:      -8.8      3.863      7.062
REMARK  Name = 
REMARK  6 active torsions:
REMARK  status: ('A' for Active; 'I' for Inactive)
REMARK    1  A    between atoms: C_1  and  C_2
REMARK    2  A    between atoms: C_6  and  N_7
REMARK    3  A    between atoms: C_8  and  C_10
REMARK    4  A    between atoms: C_10  and  N_11
REMARK    5  A    between atoms: C_10  and  C_24
REMARK    6  A    between atoms: C_12  and  C_14
REMARK                            x       y       z     vdW  Elec       q    Type
REMARK                         _______ _______ _______ _____ _____    ______ ____
ROOT
ATOM      1  C   UNL     1       0.435  10.634  19.420  0.00  0.00    +0.000 C 
ENDROOT
BRANCH   1   2
ATOM      2  C   UNL     1      -0.866  10.592  18.585  0.00  0.00    +0.000 A 
ATOM      3  C   UNL     1      -2.014  11.309  18.989  0.00  0.00    +0.000 A 
ATOM      4  C   UNL     1      -3.241  11.164  18.306  0.00  0.00    +0.000 A 
ATOM      5  C   UNL     1      -3.330  10.311  17.206  0.00  0.00    +0.000 A 
ATOM      6  C   UNL     1      -2.193   9.630  16.770  0.00  0.00    +0.000 A 
ATOM      7  C   UNL     1      -0.972   9.772  17.448  0.00  0.00    +0.000 A 
ENDBRANCH   1   2
BRANCH   1   9
ATOM      8  N   UNL     1       0.703  13.135  19.417  0.00  0.00    +0.000 N 
ATOM      9  C   UNL     1       1.250  11.910  18.989  0.00  0.00    +0.000 C 
ATOM     10  O   UNL     1       2.225  11.794  18.243  0.00  0.00    +0.000 OA
ATOM     11  H   UNL     1      -0.189  13.102  19.897  0.00  0.00    +0.000 HD
BRANCH   8  17
ATOM     12  C   UNL     1      -0.207  17.856  18.016  0.00  0.00    +0.000 C 
ATOM     13  C   UNL     1       0.745  16.752  18.390  0.00  0.00    +0.000 A 
ATOM     14  C   UNL     1       2.120  17.003  18.355  0.00  0.00    +0.000 A 
ATOM     15  C   UNL     1       3.017  16.005  18.709  0.00  0.00    +0.000 A 
ATOM     16  C   UNL     1       2.556  14.740  19.076  0.00  0.00    +0.000 A 
ATOM     17  C   UNL     1       1.194  14.437  19.093  0.00  0.00    +0.000 A 
ATOM     18  C   UNL     1       0.287  15.470  18.778  0.00  0.00    +0.000 A 
ENDBRANCH   8  17
ENDBRANCH   1   9
BRANCH   1  19
ATOM     19  N   UNL     1       1.212   9.382  19.267  0.00  0.00    +0.000 N 
ATOM     20  C   UNL     1       1.324   8.355  20.215  0.00  0.00    +0.000 C 
ATOM     21  O   UNL     1       0.647   8.308  21.238  0.00  0.00    +0.000 OA
ATOM     22  H   UNL     1       1.958   9.362  18.577  0.00  0.00    +0.000 HD
BRANCH  20  23
ATOM     23  C   UNL     1       2.345   7.212  19.763  0.00  0.00    +0.000 C 
ATOM     24  C   UNL     1       2.197   6.545  18.327  0.00  0.00    +0.000 C 
ATOM     25  C   UNL     1       2.104   5.006  18.342  0.00  0.00    +0.000 A 
ATOM     26  C   UNL     1       2.518   4.173  17.296  0.00  0.00    +0.000 A 
ATOM     27  C   UNL     1       2.459   2.771  17.435  0.00  0.00    +0.000 A 
ATOM     28  C   UNL     1       1.976   2.195  18.611  0.00  0.00    +0.000 A 
ATOM     29  C   UNL     1       1.527   3.012  19.641  0.00  0.00    +0.000 A 
ATOM     30  C   UNL     1       1.589   4.402  19.503  0.00  0.00    +0.000 A 
ATOM     31  C   UNL     1       1.219   5.311  20.638  0.00  0.00    +0.000 C 
ATOM     32  N   UNL     1       2.359   6.213  20.873  0.00  0.00    +0.000 NA
ATOM     33  H   UNL     1       3.209   5.653  20.768  0.00  0.00    +0.000 HD
ENDBRANCH  20  23
ENDBRANCH   1  19
TORSDOF 5
ENDMDL
MODEL 9
REMARK VINA RESULT:      -8.7      1.180      1.748
REMARK  Name = 
REMARK  6 active torsions:
REMARK  status: ('A' for Active; 'I' for Inactive)
REMARK    1  A    between atoms: C_1  and  C_2
REMARK    2  A    between atoms: C_6  and  N_7
REMARK    3  A    between atoms: C_8  and  C_10
REMARK    4  A    between atoms: C_10  and  N_11
REMARK    5  A    between atoms: C_10  and  C_24
REMARK    6  A    between atoms: C_12  and  C_14
REMARK                            x       y       z     vdW  Elec       q    Type
REMARK                         _______ _______ _______ _____ _____    ______ ____
ROOT
ATOM      1  C   UNL     1       3.640   6.086  19.040  0.00  0.00    +0.000 C 
ENDROOT
BRANCH   1   2
ATOM      2  C   UNL     1       2.511   5.049  19.243  0.00  0.00    +0.000 A 
ATOM      3  C   UNL     1       2.068   4.699  20.538  0.00  0.00    +0.000 A 
ATOM      4  C   UNL     1       1.138   3.655  20.730  0.00  0.00    +0.000 A 
ATOM      5  C   UNL     1       0.631   2.960  19.632  0.00  0.00    +0.000 A 
ATOM      6  C   UNL     1       1.028   3.324  18.345  0.00  0.00    +0.000 A 
ATOM      7  C   UNL     1       1.954   4.361  18.151  0.00  0.00    +0.000 A 
ENDBRANCH   1   2
BRANCH   1   9
ATOM      8  N   UNL     1       2.082   8.052  19.243  0.00  0.00    +0.000 N 
ATOM      9  C   UNL     1       3.003   7.383  18.413  0.00  0.00    +0.000 C 
ATOM     10  O   UNL     1       3.246   7.682  17.242  0.00  0.00    +0.000 OA
ATOM     11  H   UNL     1       1.856   7.617  20.130  0.00  0.00    +0.000 HD
BRANCH   8  17
ATOM     12  C   UNL     1      -1.976   9.986  17.038  0.00  0.00    +0.000 C 
ATOM     13  C   UNL     1      -0.683  10.145  17.790  0.00  0.00    +0.000 A 
ATOM     14  C   UNL     1      -0.223  11.433  18.081  0.00  0.00    +0.000 A 
ATOM     15  C   UNL     1       0.960  11.605  18.785  0.00  0.00    +0.000 A 
ATOM     16  C   UNL     1       1.711  10.498  19.185  0.00  0.00    +0.000 A 
ATOM     17  C   UNL     1       1.306   9.197  18.888  0.00  0.00    +0.000 A 
ATOM     18  C   UNL     1       0.078   9.029  18.213  0.00  0.00    +0.000 A 
ENDBRANCH   8  17
ENDBRANCH   1   9
BRANCH   1  19
ATOM     19  N   UNL     1       4.737   5.533  18.215  0.00  0.00    +0.000 N 
ATOM     20  C   UNL     1       6.082   5.414  18.594  0.00  0.00    +0.000 C 
ATOM     21  O   UNL     1       6.478   5.616  19.738  0.00  0.00    +0.000 OA
ATOM     22  H   UNL     1       4.610   5.502  17.206  0.00  0.00    +0.000 HD
BRANCH  20  23
ATOM     23  C   UNL     1       7.011   4.888  17.405  0.00  0.00    +0.000 C 
ATOM     24  C   UNL     1       7.310   5.833  16.161  0.00  0.00    +0.000 C 
ATOM     25  C   UNL     1       6.983   5.209  14.789  0.00  0.00    +0.000 A 
ATOM     26  C   UNL     1       7.625   5.541  13.590  0.00  0.00    +0.000 A 
ATOM     27  C   UNL     1       7.304   4.860  12.398  0.00  0.00    +0.000 A 
ATOM     28  C   UNL     1       6.334   3.857  12.393  0.00  0.00    +0.000 A 
ATOM     29  C   UNL     1       5.664   3.545  13.570  0.00  0.00    +0.000 A 
ATOM     30  C   UNL     1       5.985   4.218  14.753  0.00  0.00    +0.000 A 
ATOM     31  C   UNL     1       5.362   3.829  16.060  0.00  0.00    +0.000 C 
ATOM     32  N   UNL     1       6.455   3.559  17.009  0.00  0.00    +0.000 NA
ATOM     33  H   UNL     1       7.187   3.066  16.490  0.00  0.00    +0.000 HD
ENDBRANCH  20  23
ENDBRANCH   1  19
TORSDOF 5
ENDMDL
