MODEL 1
REMARK VINA RESULT:      -8.4      0.000      0.000
REMARK  Name = 
REMARK  9 active torsions:
REMARK  status: ('A' for Active; 'I' for Inactive)
REMARK    1  A    between atoms: C_1  and  C_2
REMARK    2  A    between atoms: C_4  and  O_5
REMARK    3  A    between atoms: O_5  and  C_6
REMARK    4  A    between atoms: C_6  and  C_7
REMARK    5  A    between atoms: C_6  and  C_8
REMARK    6  A    between atoms: N_10  and  C_11
REMARK    7  A    between atoms: C_11  and  C_12
REMARK    8  A    between atoms: C_12  and  O_13
REMARK    9  A    between atoms: C_12  and  C_14
REMARK                            x       y       z     vdW  Elec       q    Type
REMARK                         _______ _______ _______ _____ _____    ______ ____
ROOT
ATOM      1  O   UNL     1      -0.007   9.930  18.992  0.00  0.00    +0.000 OA
ENDROOT
BRANCH   1   5
ATOM      2  C   UNL     1      -3.143   9.887  15.141  0.00  0.00    +0.000 C 
ATOM      3  C   UNL     1      -2.753  10.334  16.520  0.00  0.00    +0.000 A 
ATOM      4  C   UNL     1      -1.570   9.879  17.118  0.00  0.00    +0.000 A 
ATOM      5  C   UNL     1      -1.174  10.330  18.390  0.00  0.00    +0.000 A 
ATOM      6  C   UNL     1      -2.011  11.200  19.111  0.00  0.00    +0.000 A 
ATOM      7  C   UNL     1      -1.748  11.707  20.457  0.00  0.00    +0.000 A 
ATOM      8  C   UNL     1      -2.603  12.548  21.046  0.00  0.00    +0.000 A 
ATOM      9  C   UNL     1      -3.837  13.020  20.421  0.00  0.00    +0.000 A 
ATOM     10  O   UNL     1      -4.599  13.795  20.985  0.00  0.00    +0.000 OA
ATOM     11  O   UNL     1      -4.083  12.526  19.146  0.00  0.00    +0.000 OA
ATOM     12  C   UNL     1      -3.194  11.634  18.499  0.00  0.00    +0.000 A 
ATOM     13  C   UNL     1      -3.568  11.223  17.221  0.00  0.00    +0.000 A 
ATOM     14  C   UNL     1      -2.179  12.957  22.410  0.00  0.00    +0.000 C 
ATOM     15  C   UNL     1      -0.861  12.204  22.610  0.00  0.00    +0.000 C 
ATOM     16  C   UNL     1      -0.586  11.400  21.331  0.00  0.00    +0.000 C 
ENDBRANCH   1   5
BRANCH   1  17
ATOM     17  C   UNL     1       1.114   9.662  18.146  0.00  0.00    +0.000 C 
ATOM     18  C   UNL     1       2.021  10.887  18.162  0.00  0.00    +0.000 C 
BRANCH  17  19
ATOM     19  C   UNL     1       1.922   8.466  18.655  0.00  0.00    +0.000 C 
ATOM     20  O   UNL     1       1.892   8.109  19.831  0.00  0.00    +0.000 OA
ATOM     21  N   UNL     1       2.642   7.801  17.684  0.00  0.00    +0.000 N 
ATOM     22  H   UNL     1       2.873   8.335  16.848  0.00  0.00    +0.000 HD
BRANCH  21  23
ATOM     23  C   UNL     1       3.547   6.739  18.080  0.00  0.00    +0.000 C 
BRANCH  23  24
ATOM     24  C   UNL     1       3.055   5.336  17.685  0.00  0.00    +0.000 C 
BRANCH  24  25
ATOM     25  C   UNL     1       2.457   4.557  18.843  0.00  0.00    +0.000 A 
ATOM     26  C   UNL     1       1.454   3.609  18.586  0.00  0.00    +0.000 A 
ATOM     27  C   UNL     1       0.827   2.932  19.634  0.00  0.00    +0.000 A 
ATOM     28  C   UNL     1       1.203   3.179  20.952  0.00  0.00    +0.000 A 
ATOM     29  C   UNL     1       2.225   4.084  21.222  0.00  0.00    +0.000 A 
ATOM     30  C   UNL     1       2.856   4.760  20.176  0.00  0.00    +0.000 A 
ENDBRANCH  24  25
BRANCH  24  31
ATOM     31  O   UNL     1       4.150   4.607  17.121  0.00  0.00    +0.000 OA
ATOM     32  H   UNL     1       4.809   4.483  17.826  0.00  0.00    +0.000 HD
ENDBRANCH  24  31
ENDBRANCH  23  24
ENDBRANCH  21  23
ENDBRANCH  17  19
ENDBRANCH   1  17
TORSDOF 7
ENDMDL
MODEL 2
REMARK VINA RESULT:      -8.3      1.446      1.877
REMARK  Name = 
REMARK  9 active torsions:
REMARK  status: ('A' for Active; 'I' for Inactive)
REMARK    1  A    between atoms: C_1  and  C_2
REMARK    2  A    between atoms: C_4  and  O_5
REMARK    3  A    between atoms: O_5  and  C_6
REMARK    4  A    between atoms: C_6  and  C_7
REMARK    5  A    between atoms: C_6  and  C_8
REMARK    6  A    between atoms: N_10  and  C_11
REMARK    7  A    between atoms: C_11  and  C_12
REMARK    8  A    between atoms: C_12  and  O_13
REMARK    9  A    between atoms: C_12  and  C_14
REMARK                            x       y       z     vdW  Elec       q    Type
REMARK                         _______ _______ _______ _____ _____    ______ ____
ROOT
ATOM      1  O   UNL     1      -0.659  10.646  19.250  0.00  0.00    +0.000 OA
ENDROOT
BRANCH   1   5
ATOM      2  C   UNL     1      -2.988   9.803  14.946  0.00  0.00    +0.000 C 
ATOM      3  C   UNL     1      -2.939  10.391  16.325  0.00  0.00    +0.000 A 
ATOM      4  C   UNL     1      -1.822  10.199  17.152  0.00  0.00    +0.000 A 
ATOM      5  C   UNL     1      -1.748  10.786  18.428  0.00  0.00    +0.000 A 
ATOM      6  C   UNL     1      -2.840  11.523  18.918  0.00  0.00    +0.000 A 
ATOM      7  C   UNL     1      -2.919  12.145  20.239  0.00  0.00    +0.000 A 
ATOM      8  C   UNL     1      -3.999  12.843  20.600  0.00  0.00    +0.000 A 
ATOM      9  C   UNL     1      -5.163  13.040  19.738  0.00  0.00    +0.000 A 
ATOM     10  O   UNL     1      -6.137  13.689  20.096  0.00  0.00    +0.000 OA
ATOM     11  O   UNL     1      -5.083  12.439  18.488  0.00  0.00    +0.000 OA
ATOM     12  C   UNL     1      -3.951  11.693  18.081  0.00  0.00    +0.000 A 
ATOM     13  C   UNL     1      -4.009  11.150  16.799  0.00  0.00    +0.000 A 
ATOM     14  C   UNL     1      -3.907  13.399  21.975  0.00  0.00    +0.000 C 
ATOM     15  C   UNL     1      -2.537  12.918  22.459  0.00  0.00    +0.000 C 
ATOM     16  C   UNL     1      -1.898  12.110  21.320  0.00  0.00    +0.000 C 
ENDBRANCH   1   5
BRANCH   1  17
ATOM     17  C   UNL     1       0.606  11.092  18.753  0.00  0.00    +0.000 C 
ATOM     18  C   UNL     1       1.324  11.824  19.880  0.00  0.00    +0.000 C 
BRANCH  17  19
ATOM     19  C   UNL     1       1.480   9.914  18.317  0.00  0.00    +0.000 C 
ATOM     20  O   UNL     1       2.076   9.904  17.242  0.00  0.00    +0.000 OA
ATOM     21  N   UNL     1       1.578   8.896  19.242  0.00  0.00    +0.000 N 
ATOM     22  H   UNL     1       0.823   8.829  19.923  0.00  0.00    +0.000 HD
BRANCH  21  23
ATOM     23  C   UNL     1       2.269   7.674  18.877  0.00  0.00    +0.000 C 
BRANCH  23  24
ATOM     24  C   UNL     1       2.389   6.668  20.035  0.00  0.00    +0.000 C 
BRANCH  24  25
ATOM     25  C   UNL     1       1.958   5.261  19.660  0.00  0.00    +0.000 A 
ATOM     26  C   UNL     1       2.125   4.825  18.336  0.00  0.00    +0.000 A 
ATOM     27  C   UNL     1       1.668   3.566  17.937  0.00  0.00    +0.000 A 
ATOM     28  C   UNL     1       1.055   2.720  18.857  0.00  0.00    +0.000 A 
ATOM     29  C   UNL     1       0.920   3.120  20.183  0.00  0.00    +0.000 A 
ATOM     30  C   UNL     1       1.379   4.376  20.585  0.00  0.00    +0.000 A 
ENDBRANCH  24  25
BRANCH  24  31
ATOM     31  O   UNL     1       1.605   7.141  21.136  0.00  0.00    +0.000 OA
ATOM     32  H   UNL     1       0.929   7.739  20.774  0.00  0.00    +0.000 HD
ENDBRANCH  24  31
ENDBRANCH  23  24
ENDBRANCH  21  23
ENDBRANCH  17  19
ENDBRANCH   1  17
TORSDOF 7
ENDMDL
MODEL 3
REMARK VINA RESULT:      -8.2      2.676      9.109
REMARK  Name = 
REMARK  9 active torsions:
REMARK  status: ('A' for Active; 'I' for Inactive)
REMARK    1  A    between atoms: C_1  and  C_2
REMARK    2  A    between atoms: C_4  and  O_5
REMARK    3  A    between atoms: O_5  and  C_6
REMARK    4  A    between atoms: C_6  and  C_7
REMARK    5  A    between atoms: C_6  and  C_8
REMARK    6  A    between atoms: N_10  and  C_11
REMARK    7  A    between atoms: C_11  and  C_12
REMARK    8  A    between atoms: C_12  and  O_13
REMARK    9  A    between atoms: C_12  and  C_14
REMARK                            x       y       z     vdW  Elec       q    Type
REMARK                         _______ _______ _______ _____ _____    ______ ____
ROOT
ATOM      1  O   UNL     1       2.519   6.952  18.117  0.00  0.00    +0.000 OA
ENDROOT
BRANCH   1   5
ATOM      2  C   UNL     1       7.364   7.366  17.111  0.00  0.00    +0.000 C 
ATOM      3  C   UNL     1       6.197   6.623  17.691  0.00  0.00    +0.000 A 
ATOM      4  C   UNL     1       4.906   7.171  17.660  0.00  0.00    +0.000 A 
ATOM      5  C   UNL     1       3.799   6.461  18.160  0.00  0.00    +0.000 A 
ATOM      6  C   UNL     1       3.993   5.208  18.767  0.00  0.00    +0.000 A 
ATOM      7  C   UNL     1       2.945   4.386  19.368  0.00  0.00    +0.000 A 
ATOM      8  C   UNL     1       3.234   3.197  19.903  0.00  0.00    +0.000 A 
ATOM      9  C   UNL     1       4.581   2.628  19.936  0.00  0.00    +0.000 A 
ATOM     10  O   UNL     1       4.814   1.532  20.430  0.00  0.00    +0.000 OA
ATOM     11  O   UNL     1       5.572   3.420  19.369  0.00  0.00    +0.000 OA
ATOM     12  C   UNL     1       5.292   4.684  18.797  0.00  0.00    +0.000 A 
ATOM     13  C   UNL     1       6.385   5.365  18.263  0.00  0.00    +0.000 A 
ATOM     14  C   UNL     1       2.049   2.502  20.470  0.00  0.00    +0.000 C 
ATOM     15  C   UNL     1       0.906   3.486  20.207  0.00  0.00    +0.000 C 
ATOM     16  C   UNL     1       1.497   4.704  19.483  0.00  0.00    +0.000 C 
ENDBRANCH   1   5
BRANCH   1  17
ATOM     17  C   UNL     1       2.312   8.298  18.554  0.00  0.00    +0.000 C 
ATOM     18  C   UNL     1       1.409   8.990  17.540  0.00  0.00    +0.000 C 
BRANCH  17  19
ATOM     19  C   UNL     1       1.618   8.340  19.917  0.00  0.00    +0.000 C 
ATOM     20  O   UNL     1       1.897   7.553  20.818  0.00  0.00    +0.000 OA
ATOM     21  N   UNL     1       0.693   9.354  20.062  0.00  0.00    +0.000 N 
ATOM     22  H   UNL     1       0.294   9.728  19.203  0.00  0.00    +0.000 HD
BRANCH  21  23
ATOM     23  C   UNL     1      -0.119   9.402  21.263  0.00  0.00    +0.000 C 
BRANCH  23  24
ATOM     24  C   UNL     1      -0.020  10.740  22.016  0.00  0.00    +0.000 C 
BRANCH  24  25
ATOM     25  C   UNL     1      -1.288  11.572  21.939  0.00  0.00    +0.000 A 
ATOM     26  C   UNL     1      -2.054  11.762  23.100  0.00  0.00    +0.000 A 
ATOM     27  C   UNL     1      -3.266  12.454  23.049  0.00  0.00    +0.000 A 
ATOM     28  C   UNL     1      -3.722  12.981  21.844  0.00  0.00    +0.000 A 
ATOM     29  C   UNL     1      -2.954  12.838  20.692  0.00  0.00    +0.000 A 
ATOM     30  C   UNL     1      -1.741  12.150  20.741  0.00  0.00    +0.000 A 
ENDBRANCH  24  25
BRANCH  24  31
ATOM     31  O   UNL     1       1.084  11.483  21.489  0.00  0.00    +0.000 OA
ATOM     32  H   UNL     1       1.774  10.841  21.245  0.00  0.00    +0.000 HD
ENDBRANCH  24  31
ENDBRANCH  23  24
ENDBRANCH  21  23
ENDBRANCH  17  19
ENDBRANCH   1  17
TORSDOF 7
ENDMDL
MODEL 4
REMARK VINA RESULT:      -8.2      1.286      1.598
REMARK  Name = 
REMARK  9 active torsions:
REMARK  status: ('A' for Active; 'I' for Inactive)
REMARK    1  A    between atoms: C_1  and  C_2
REMARK    2  A    between atoms: C_4  and  O_5
REMARK    3  A    between atoms: O_5  and  C_6
REMARK    4  A    between atoms: C_6  and  C_7
REMARK    5  A    between atoms: C_6  and  C_8
REMARK    6  A    between atoms: N_10  and  C_11
REMARK    7  A    between atoms: C_11  and  C_12
REMARK    8  A    between atoms: C_12  and  O_13
REMARK    9  A    between atoms: C_12  and  C_14
REMARK                            x       y       z     vdW  Elec       q    Type
REMARK                         _______ _______ _______ _____ _____    ______ ____
ROOT
ATOM      1  O   UNL     1      -0.920  11.204  19.193  0.00  0.00    +0.000 OA
ENDROOT
BRANCH   1   5
ATOM      2  C   UNL     1      -2.987   9.923  14.863  0.00  0.00    +0.000 C 
ATOM      3  C   UNL     1      -3.059  10.551  16.224  0.00  0.00    +0.000 A 
ATOM      4  C   UNL     1      -1.951  10.540  17.083  0.00  0.00    +0.000 A 
ATOM      5  C   UNL     1      -1.995  11.168  18.341  0.00  0.00    +0.000 A 
ATOM      6  C   UNL     1      -3.192  11.760  18.781  0.00  0.00    +0.000 A 
ATOM      7  C   UNL     1      -3.393  12.402  20.078  0.00  0.00    +0.000 A 
ATOM      8  C   UNL     1      -4.568  12.953  20.391  0.00  0.00    +0.000 A 
ATOM      9  C   UNL     1      -5.724  12.963  19.495  0.00  0.00    +0.000 A 
ATOM     10  O   UNL     1      -6.788  13.480  19.808  0.00  0.00    +0.000 OA
ATOM     11  O   UNL     1      -5.526  12.343  18.267  0.00  0.00    +0.000 OA
ATOM     12  C   UNL     1      -4.291  11.750  17.911  0.00  0.00    +0.000 A 
ATOM     13  C   UNL     1      -4.237  11.168  16.647  0.00  0.00    +0.000 A 
ATOM     14  C   UNL     1      -4.593  13.556  21.749  0.00  0.00    +0.000 C 
ATOM     15  C   UNL     1      -3.185  13.284  22.281  0.00  0.00    +0.000 C 
ATOM     16  C   UNL     1      -2.408  12.540  21.184  0.00  0.00    +0.000 C 
ENDBRANCH   1   5
BRANCH   1  17
ATOM     17  C   UNL     1       0.353  10.819  18.668  0.00  0.00    +0.000 C 
ATOM     18  C   UNL     1       1.343  11.939  18.963  0.00  0.00    +0.000 C 
BRANCH  17  19
ATOM     19  C   UNL     1       0.867   9.541  19.335  0.00  0.00    +0.000 C 
ATOM     20  O   UNL     1       0.492   9.189  20.450  0.00  0.00    +0.000 OA
ATOM     21  N   UNL     1       1.745   8.803  18.567  0.00  0.00    +0.000 N 
ATOM     22  H   UNL     1       2.243   9.309  17.837  0.00  0.00    +0.000 HD
BRANCH  21  23
ATOM     23  C   UNL     1       2.397   7.648  19.154  0.00  0.00    +0.000 C 
BRANCH  23  24
ATOM     24  C   UNL     1       2.489   6.445  18.199  0.00  0.00    +0.000 C 
BRANCH  24  25
ATOM     25  C   UNL     1       1.998   5.147  18.813  0.00  0.00    +0.000 A 
ATOM     26  C   UNL     1       1.735   4.051  17.977  0.00  0.00    +0.000 A 
ATOM     27  C   UNL     1       1.206   2.867  18.497  0.00  0.00    +0.000 A 
ATOM     28  C   UNL     1       0.949   2.755  19.861  0.00  0.00    +0.000 A 
ATOM     29  C   UNL     1       1.245   3.817  20.710  0.00  0.00    +0.000 A 
ATOM     30  C   UNL     1       1.776   5.000  20.193  0.00  0.00    +0.000 A 
ENDBRANCH  24  25
BRANCH  24  31
ATOM     31  O   UNL     1       3.849   6.301  17.775  0.00  0.00    +0.000 OA
ATOM     32  H   UNL     1       4.017   6.987  17.105  0.00  0.00    +0.000 HD
ENDBRANCH  24  31
ENDBRANCH  23  24
ENDBRANCH  21  23
ENDBRANCH  17  19
ENDBRANCH   1  17
TORSDOF 7
ENDMDL
MODEL 5
REMARK VINA RESULT:      -8.0      1.239      3.592
REMARK  Name = 
REMARK  9 active torsions:
REMARK  status: ('A' for Active; 'I' for Inactive)
REMARK    1  A    between atoms: C_1  and  C_2
REMARK    2  A    between atoms: C_4  and  O_5
REMARK    3  A    between atoms: O_5  and  C_6
REMARK    4  A    between atoms: C_6  and  C_7
REMARK    5  A    between atoms: C_6  and  C_8
REMARK    6  A    between atoms: N_10  and  C_11
REMARK    7  A    between atoms: C_11  and  C_12
REMARK    8  A    between atoms: C_12  and  O_13
REMARK    9  A    between atoms: C_12  and  C_14
REMARK                            x       y       z     vdW  Elec       q    Type
REMARK                         _______ _______ _______ _____ _____    ______ ____
ROOT
ATOM      1  O   UNL     1      -0.190   9.971  18.852  0.00  0.00    +0.000 OA
ENDROOT
BRANCH   1   5
ATOM      2  C   UNL     1      -1.074  12.784  22.848  0.00  0.00    +0.000 C 
ATOM      3  C   UNL     1      -1.457  12.255  21.497  0.00  0.00    +0.000 A 
ATOM      4  C   UNL     1      -0.608  11.386  20.796  0.00  0.00    +0.000 A 
ATOM      5  C   UNL     1      -0.981  10.848  19.551  0.00  0.00    +0.000 A 
ATOM      6  C   UNL     1      -2.195  11.239  18.960  0.00  0.00    +0.000 A 
ATOM      7  C   UNL     1      -2.683  10.799  17.654  0.00  0.00    +0.000 A 
ATOM      8  C   UNL     1      -3.864  11.217  17.192  0.00  0.00    +0.000 A 
ATOM      9  C   UNL     1      -4.747  12.124  17.924  0.00  0.00    +0.000 A 
ATOM     10  O   UNL     1      -5.827  12.486  17.475  0.00  0.00    +0.000 OA
ATOM     11  O   UNL     1      -4.272  12.544  19.160  0.00  0.00    +0.000 OA
ATOM     12  C   UNL     1      -3.023  12.117  19.672  0.00  0.00    +0.000 A 
ATOM     13  C   UNL     1      -2.677  12.617  20.926  0.00  0.00    +0.000 A 
ATOM     14  C   UNL     1      -4.197  10.672  15.850  0.00  0.00    +0.000 C 
ATOM     15  C   UNL     1      -2.982   9.807  15.510  0.00  0.00    +0.000 C 
ATOM     16  C   UNL     1      -2.006   9.889  16.693  0.00  0.00    +0.000 C 
ENDBRANCH   1   5
BRANCH   1  17
ATOM     17  C   UNL     1       1.061   9.600  19.436  0.00  0.00    +0.000 C 
ATOM     18  C   UNL     1       0.778   8.637  20.583  0.00  0.00    +0.000 C 
BRANCH  17  19
ATOM     19  C   UNL     1       1.958   8.884  18.424  0.00  0.00    +0.000 C 
ATOM     20  O   UNL     1       2.197   9.355  17.314  0.00  0.00    +0.000 OA
ATOM     21  N   UNL     1       2.505   7.701  18.874  0.00  0.00    +0.000 N 
ATOM     22  H   UNL     1       2.012   7.235  19.634  0.00  0.00    +0.000 HD
BRANCH  21  23
ATOM     23  C   UNL     1       3.259   6.875  17.950  0.00  0.00    +0.000 C 
BRANCH  23  24
ATOM     24  C   UNL     1       3.752   5.555  18.569  0.00  0.00    +0.000 C 
BRANCH  24  25
ATOM     25  C   UNL     1       2.626   4.640  19.014  0.00  0.00    +0.000 A 
ATOM     26  C   UNL     1       2.334   4.529  20.383  0.00  0.00    +0.000 A 
ATOM     27  C   UNL     1       1.359   3.637  20.834  0.00  0.00    +0.000 A 
ATOM     28  C   UNL     1       0.649   2.856  19.926  0.00  0.00    +0.000 A 
ATOM     29  C   UNL     1       0.896   2.985  18.562  0.00  0.00    +0.000 A 
ATOM     30  C   UNL     1       1.868   3.878  18.108  0.00  0.00    +0.000 A 
ENDBRANCH  24  25
BRANCH  24  31
ATOM     31  O   UNL     1       4.602   5.859  19.679  0.00  0.00    +0.000 OA
ATOM     32  H   UNL     1       4.904   5.013  20.053  0.00  0.00    +0.000 HD
ENDBRANCH  24  31
ENDBRANCH  23  24
ENDBRANCH  21  23
ENDBRANCH  17  19
ENDBRANCH   1  17
TORSDOF 7
ENDMDL
MODEL 6
REMARK VINA RESULT:      -8.0      2.508      9.004
REMARK  Name = 
REMARK  9 active torsions:
REMARK  status: ('A' for Active; 'I' for Inactive)
REMARK    1  A    between atoms: C_1  and  C_2
REMARK    2  A    between atoms: C_4  and  O_5
REMARK    3  A    between atoms: O_5  and  C_6
REMARK    4  A    between atoms: C_6  and  C_7
REMARK    5  A    between atoms: C_6  and  C_8
REMARK    6  A    between atoms: N_10  and  C_11
REMARK    7  A    between atoms: C_11  and  C_12
REMARK    8  A    between atoms: C_12  and  O_13
REMARK    9  A    between atoms: C_12  and  C_14
REMARK                            x       y       z     vdW  Elec       q    Type
REMARK                         _______ _______ _______ _____ _____    ______ ____
ROOT
ATOM      1  O   UNL     1       2.391   6.900  18.341  0.00  0.00    +0.000 OA
ENDROOT
BRANCH   1   5
ATOM      2  C   UNL     1       7.148   7.310  16.975  0.00  0.00    +0.000 C 
ATOM      3  C   UNL     1       6.028   6.571  17.646  0.00  0.00    +0.000 A 
ATOM      4  C   UNL     1       4.738   7.117  17.707  0.00  0.00    +0.000 A 
ATOM      5  C   UNL     1       3.672   6.411  18.292  0.00  0.00    +0.000 A 
ATOM      6  C   UNL     1       3.912   5.162  18.893  0.00  0.00    +0.000 A 
ATOM      7  C   UNL     1       2.912   4.344  19.577  0.00  0.00    +0.000 A 
ATOM      8  C   UNL     1       3.242   3.159  20.097  0.00  0.00    +0.000 A 
ATOM      9  C   UNL     1       4.588   2.592  20.035  0.00  0.00    +0.000 A 
ATOM     10  O   UNL     1       4.859   1.500  20.518  0.00  0.00    +0.000 OA
ATOM     11  O   UNL     1       5.534   3.380  19.390  0.00  0.00    +0.000 OA
ATOM     12  C   UNL     1       5.211   4.639  18.830  0.00  0.00    +0.000 A 
ATOM     13  C   UNL     1       6.260   5.317  18.212  0.00  0.00    +0.000 A 
ATOM     14  C   UNL     1       2.103   2.469  20.757  0.00  0.00    +0.000 C 
ATOM     15  C   UNL     1       0.943   3.449  20.572  0.00  0.00    +0.000 C 
ATOM     16  C   UNL     1       1.477   4.662  19.796  0.00  0.00    +0.000 C 
ENDBRANCH   1   5
BRANCH   1  17
ATOM     17  C   UNL     1       2.215   8.248  18.789  0.00  0.00    +0.000 C 
ATOM     18  C   UNL     1       1.328   8.967  17.780  0.00  0.00    +0.000 C 
BRANCH  17  19
ATOM     19  C   UNL     1       1.522   8.295  20.152  0.00  0.00    +0.000 C 
ATOM     20  O   UNL     1       1.711   7.439  21.012  0.00  0.00    +0.000 OA
ATOM     21  N   UNL     1       0.711   9.394  20.348  0.00  0.00    +0.000 N 
ATOM     22  H   UNL     1       0.358   9.851  19.508  0.00  0.00    +0.000 HD
BRANCH  21  23
ATOM     23  C   UNL     1      -0.099   9.468  21.549  0.00  0.00    +0.000 C 
BRANCH  23  24
ATOM     24  C   UNL     1      -0.805  10.823  21.729  0.00  0.00    +0.000 C 
BRANCH  24  25
ATOM     25  C   UNL     1      -0.597  11.772  20.563  0.00  0.00    +0.000 A 
ATOM     26  C   UNL     1      -1.422  11.662  19.433  0.00  0.00    +0.000 A 
ATOM     27  C   UNL     1      -1.208  12.465  18.311  0.00  0.00    +0.000 A 
ATOM     28  C   UNL     1      -0.177  13.402  18.307  0.00  0.00    +0.000 A 
ATOM     29  C   UNL     1       0.624  13.554  19.435  0.00  0.00    +0.000 A 
ATOM     30  C   UNL     1       0.409  12.755  20.559  0.00  0.00    +0.000 A 
ENDBRANCH  24  25
BRANCH  24  31
ATOM     31  O   UNL     1      -0.338  11.427  22.940  0.00  0.00    +0.000 OA
ATOM     32  H   UNL     1      -1.008  11.256  23.625  0.00  0.00    +0.000 HD
ENDBRANCH  24  31
ENDBRANCH  23  24
ENDBRANCH  21  23
ENDBRANCH  17  19
ENDBRANCH   1  17
TORSDOF 7
ENDMDL
MODEL 7
REMARK VINA RESULT:      -7.9      1.958      9.027
REMARK  Name = 
REMARK  9 active torsions:
REMARK  status: ('A' for Active; 'I' for Inactive)
REMARK    1  A    between atoms: C_1  and  C_2
REMARK    2  A    between atoms: C_4  and  O_5
REMARK    3  A    between atoms: O_5  and  C_6
REMARK    4  A    between atoms: C_6  and  C_7
REMARK    5  A    between atoms: C_6  and  C_8
REMARK    6  A    between atoms: N_10  and  C_11
REMARK    7  A    between atoms: C_11  and  C_12
REMARK    8  A    between atoms: C_12  and  O_13
REMARK    9  A    between atoms: C_12  and  C_14
REMARK                            x       y       z     vdW  Elec       q    Type
REMARK                         _______ _______ _______ _____ _____    ______ ____
ROOT
ATOM      1  O   UNL     1       2.554   7.183  19.747  0.00  0.00    +0.000 OA
ENDROOT
BRANCH   1   5
ATOM      2  C   UNL     1       1.344   2.838  21.825  0.00  0.00    +0.000 C 
ATOM      3  C   UNL     1       2.025   3.646  20.759  0.00  0.00    +0.000 A 
ATOM      4  C   UNL     1       1.927   5.044  20.742  0.00  0.00    +0.000 A 
ATOM      5  C   UNL     1       2.601   5.812  19.775  0.00  0.00    +0.000 A 
ATOM      6  C   UNL     1       3.331   5.167  18.761  0.00  0.00    +0.000 A 
ATOM      7  C   UNL     1       4.037   5.835  17.669  0.00  0.00    +0.000 A 
ATOM      8  C   UNL     1       4.720   5.127  16.766  0.00  0.00    +0.000 A 
ATOM      9  C   UNL     1       4.820   3.669  16.784  0.00  0.00    +0.000 A 
ATOM     10  O   UNL     1       5.457   3.047  15.944  0.00  0.00    +0.000 OA
ATOM     11  O   UNL     1       4.139   3.041  17.821  0.00  0.00    +0.000 OA
ATOM     12  C   UNL     1       3.407   3.768  18.790  0.00  0.00    +0.000 A 
ATOM     13  C   UNL     1       2.777   3.007  19.773  0.00  0.00    +0.000 A 
ATOM     14  C   UNL     1       5.371   5.969  15.728  0.00  0.00    +0.000 C 
ATOM     15  C   UNL     1       4.970   7.391  16.127  0.00  0.00    +0.000 C 
ATOM     16  C   UNL     1       4.110   7.295  17.395  0.00  0.00    +0.000 C 
ENDBRANCH   1   5
BRANCH   1  17
ATOM     17  C   UNL     1       1.344   7.812  20.178  0.00  0.00    +0.000 C 
ATOM     18  C   UNL     1       1.578   8.379  21.573  0.00  0.00    +0.000 C 
BRANCH  17  19
ATOM     19  C   UNL     1       0.956   8.967  19.253  0.00  0.00    +0.000 C 
ATOM     20  O   UNL     1       1.305   9.007  18.075  0.00  0.00    +0.000 OA
ATOM     21  N   UNL     1       0.154   9.927  19.834  0.00  0.00    +0.000 N 
ATOM     22  H   UNL     1       0.192   9.994  20.850  0.00  0.00    +0.000 HD
BRANCH  21  23
ATOM     23  C   UNL     1      -0.159  11.131  19.088  0.00  0.00    +0.000 C 
BRANCH  23  24
ATOM     24  C   UNL     1      -1.650  11.510  19.133  0.00  0.00    +0.000 C 
BRANCH  24  25
ATOM     25  C   UNL     1      -2.405  11.138  17.870  0.00  0.00    +0.000 A 
ATOM     26  C   UNL     1      -3.700  11.643  17.673  0.00  0.00    +0.000 A 
ATOM     27  C   UNL     1      -4.454  11.258  16.561  0.00  0.00    +0.000 A 
ATOM     28  C   UNL     1      -3.920  10.379  15.623  0.00  0.00    +0.000 A 
ATOM     29  C   UNL     1      -2.622   9.903  15.781  0.00  0.00    +0.000 A 
ATOM     30  C   UNL     1      -1.865  10.288  16.889  0.00  0.00    +0.000 A 
ENDBRANCH  24  25
BRANCH  24  31
ATOM     31  O   UNL     1      -1.758  12.917  19.370  0.00  0.00    +0.000 OA
ATOM     32  H   UNL     1      -1.940  13.037  20.319  0.00  0.00    +0.000 HD
ENDBRANCH  24  31
ENDBRANCH  23  24
ENDBRANCH  21  23
ENDBRANCH  17  19
ENDBRANCH   1  17
TORSDOF 7
ENDMDL
MODEL 8
REMARK VINA RESULT:      -7.9      2.261      8.919
REMARK  Name = 
REMARK  9 active torsions:
REMARK  status: ('A' for Active; 'I' for Inactive)
REMARK    1  A    between atoms: C_1  and  C_2
REMARK    2  A    between atoms: C_4  and  O_5
REMARK    3  A    between atoms: O_5  and  C_6
REMARK    4  A    between atoms: C_6  and  C_7
REMARK    5  A    between atoms: C_6  and  C_8
REMARK    6  A    between atoms: N_10  and  C_11
REMARK    7  A    between atoms: C_11  and  C_12
REMARK    8  A    between atoms: C_12  and  O_13
REMARK    9  A    between atoms: C_12  and  C_14
REMARK                            x       y       z     vdW  Elec       q    Type
REMARK                         _______ _______ _______ _____ _____    ______ ____
ROOT
ATOM      1  O   UNL     1       2.456   6.860  18.264  0.00  0.00    +0.000 OA
ENDROOT
BRANCH   1   5
ATOM      2  C   UNL     1       7.254   7.234  17.039  0.00  0.00    +0.000 C 
ATOM      3  C   UNL     1       6.109   6.504  17.678  0.00  0.00    +0.000 A 
ATOM      4  C   UNL     1       4.822   7.059  17.699  0.00  0.00    +0.000 A 
ATOM      5  C   UNL     1       3.734   6.361  18.255  0.00  0.00    +0.000 A 
ATOM      6  C   UNL     1       3.947   5.113  18.865  0.00  0.00    +0.000 A 
ATOM      7  C   UNL     1       2.922   4.303  19.521  0.00  0.00    +0.000 A 
ATOM      8  C   UNL     1       3.228   3.118  20.054  0.00  0.00    +0.000 A 
ATOM      9  C   UNL     1       4.572   2.541  20.033  0.00  0.00    +0.000 A 
ATOM     10  O   UNL     1       4.821   1.449  20.527  0.00  0.00    +0.000 OA
ATOM     11  O   UNL     1       5.542   3.321  19.415  0.00  0.00    +0.000 OA
ATOM     12  C   UNL     1       5.244   4.581  18.843  0.00  0.00    +0.000 A 
ATOM     13  C   UNL     1       6.315   5.250  18.254  0.00  0.00    +0.000 A 
ATOM     14  C   UNL     1       2.065   2.437  20.681  0.00  0.00    +0.000 C 
ATOM     15  C   UNL     1       0.918   3.424  20.459  0.00  0.00    +0.000 C 
ATOM     16  C   UNL     1       1.483   4.632  19.697  0.00  0.00    +0.000 C 
ENDBRANCH   1   5
BRANCH   1  17
ATOM     17  C   UNL     1       2.284   8.233  18.626  0.00  0.00    +0.000 C 
ATOM     18  C   UNL     1       1.343   8.873  17.612  0.00  0.00    +0.000 C 
BRANCH  17  19
ATOM     19  C   UNL     1       1.654   8.369  20.013  0.00  0.00    +0.000 C 
ATOM     20  O   UNL     1       1.446   7.397  20.735  0.00  0.00    +0.000 OA
ATOM     21  N   UNL     1       1.384   9.666  20.399  0.00  0.00    +0.000 N 
ATOM     22  H   UNL     1       1.274  10.347  19.650  0.00  0.00    +0.000 HD
BRANCH  21  23
ATOM     23  C   UNL     1       0.664   9.898  21.636  0.00  0.00    +0.000 C 
BRANCH  23  24
ATOM     24  C   UNL     1      -0.435  10.969  21.513  0.00  0.00    +0.000 C 
BRANCH  24  25
ATOM     25  C   UNL     1      -0.890  11.207  20.085  0.00  0.00    +0.000 A 
ATOM     26  C   UNL     1      -0.616  12.441  19.475  0.00  0.00    +0.000 A 
ATOM     27  C   UNL     1      -1.088  12.723  18.191  0.00  0.00    +0.000 A 
ATOM     28  C   UNL     1      -1.826  11.772  17.492  0.00  0.00    +0.000 A 
ATOM     29  C   UNL     1      -2.070  10.527  18.065  0.00  0.00    +0.000 A 
ATOM     30  C   UNL     1      -1.596  10.242  19.346  0.00  0.00    +0.000 A 
ENDBRANCH  24  25
BRANCH  24  31
ATOM     31  O   UNL     1       0.051  12.191  22.080  0.00  0.00    +0.000 OA
ATOM     32  H   UNL     1      -0.671  12.570  22.611  0.00  0.00    +0.000 HD
ENDBRANCH  24  31
ENDBRANCH  23  24
ENDBRANCH  21  23
ENDBRANCH  17  19
ENDBRANCH   1  17
TORSDOF 7
ENDMDL
MODEL 9
REMARK VINA RESULT:      -7.8      2.016      8.997
REMARK  Name = 
REMARK  9 active torsions:
REMARK  status: ('A' for Active; 'I' for Inactive)
REMARK    1  A    between atoms: C_1  and  C_2
REMARK    2  A    between atoms: C_4  and  O_5
REMARK    3  A    between atoms: O_5  and  C_6
REMARK    4  A    between atoms: C_6  and  C_7
REMARK    5  A    between atoms: C_6  and  C_8
REMARK    6  A    between atoms: N_10  and  C_11
REMARK    7  A    between atoms: C_11  and  C_12
REMARK    8  A    between atoms: C_12  and  O_13
REMARK    9  A    between atoms: C_12  and  C_14
REMARK                            x       y       z     vdW  Elec       q    Type
REMARK                         _______ _______ _______ _____ _____    ______ ____
ROOT
ATOM      1  O   UNL     1       2.431   6.916  18.719  0.00  0.00    +0.000 OA
ENDROOT
BRANCH   1   5
ATOM      2  C   UNL     1       7.045   7.159  16.898  0.00  0.00    +0.000 C 
ATOM      3  C   UNL     1       5.966   6.453  17.665  0.00  0.00    +0.000 A 
ATOM      4  C   UNL     1       4.712   7.050  17.861  0.00  0.00    +0.000 A 
ATOM      5  C   UNL     1       3.679   6.376  18.538  0.00  0.00    +0.000 A 
ATOM      6  C   UNL     1       3.924   5.107  19.093  0.00  0.00    +0.000 A 
ATOM      7  C   UNL     1       2.962   4.317  19.859  0.00  0.00    +0.000 A 
ATOM      8  C   UNL     1       3.291   3.111  20.327  0.00  0.00    +0.000 A 
ATOM      9  C   UNL     1       4.599   2.490  20.124  0.00  0.00    +0.000 A 
ATOM     10  O   UNL     1       4.870   1.380  20.562  0.00  0.00    +0.000 OA
ATOM     11  O   UNL     1       5.510   3.252  19.402  0.00  0.00    +0.000 OA
ATOM     12  C   UNL     1       5.187   4.534  18.895  0.00  0.00    +0.000 A 
ATOM     13  C   UNL     1       6.198   5.181  18.187  0.00  0.00    +0.000 A 
ATOM     14  C   UNL     1       2.194   2.454  21.085  0.00  0.00    +0.000 C 
ATOM     15  C   UNL     1       1.063   3.484  21.030  0.00  0.00    +0.000 C 
ATOM     16  C   UNL     1       1.570   4.689  20.224  0.00  0.00    +0.000 C 
ENDBRANCH   1   5
BRANCH   1  17
ATOM     17  C   UNL     1       2.334   8.340  18.805  0.00  0.00    +0.000 C 
ATOM     18  C   UNL     1       1.928   8.868  17.434  0.00  0.00    +0.000 C 
BRANCH  17  19
ATOM     19  C   UNL     1       1.265   8.766  19.814  0.00  0.00    +0.000 C 
ATOM     20  O   UNL     1       1.096   8.172  20.877  0.00  0.00    +0.000 OA
ATOM     21  N   UNL     1       0.545   9.886  19.454  0.00  0.00    +0.000 N 
ATOM     22  H   UNL     1       0.513  10.103  18.459  0.00  0.00    +0.000 HD
BRANCH  21  23
ATOM     23  C   UNL     1      -0.581  10.294  20.271  0.00  0.00    +0.000 C 
BRANCH  23  24
ATOM     24  C   UNL     1      -1.295  11.553  19.747  0.00  0.00    +0.000 C 
BRANCH  24  25
ATOM     25  C   UNL     1      -2.257  11.270  18.607  0.00  0.00    +0.000 A 
ATOM     26  C   UNL     1      -1.793  10.583  17.474  0.00  0.00    +0.000 A 
ATOM     27  C   UNL     1      -2.628  10.375  16.373  0.00  0.00    +0.000 A 
ATOM     28  C   UNL     1      -3.942  10.835  16.395  0.00  0.00    +0.000 A 
ATOM     29  C   UNL     1      -4.431  11.481  17.527  0.00  0.00    +0.000 A 
ATOM     30  C   UNL     1      -3.599  11.686  18.629  0.00  0.00    +0.000 A 
ENDBRANCH  24  25
BRANCH  24  31
ATOM     31  O   UNL     1      -0.307  12.500  19.328  0.00  0.00    +0.000 OA
ATOM     32  H   UNL     1      -0.316  13.230  19.970  0.00  0.00    +0.000 HD
ENDBRANCH  24  31
ENDBRANCH  23  24
ENDBRANCH  21  23
ENDBRANCH  17  19
ENDBRANCH   1  17
TORSDOF 7
ENDMDL
