MODEL 1
REMARK VINA RESULT:      -7.3      0.000      0.000
REMARK  Name = 
REMARK  6 active torsions:
REMARK  status: ('A' for Active; 'I' for Inactive)
REMARK    1  A    between atoms: C_1  and  O_2
REMARK    2  A    between atoms: O_2  and  C_3
REMARK    3  A    between atoms: C_7  and  C_8
REMARK    4  A    between atoms: C_8  and  C_9
REMARK    5  A    between atoms: C_9  and  C_10
REMARK    6  A    between atoms: C_12  and  O_13
REMARK                            x       y       z     vdW  Elec       q    Type
REMARK                         _______ _______ _______ _____ _____    ______ ____
ROOT
ATOM      1  C   UNL     1       6.267   3.985  15.981  0.00  0.00    +0.000 C 
ENDROOT
BRANCH   1   2
ATOM      2  C   UNL     1       6.975   5.087  16.750  0.00  0.00    +0.000 A 
ATOM      3  C   UNL     1       7.316   4.816  18.164  0.00  0.00    +0.000 A 
ATOM      4  C   UNL     1       7.816   5.821  18.889  0.00  0.00    +0.000 A 
ATOM      5  C   UNL     1       8.060   7.146  18.233  0.00  0.00    +0.000 A 
ATOM      6  O   UNL     1       8.488   8.116  18.848  0.00  0.00    +0.000 OA
ATOM      7  N   UNL     1       7.783   7.199  16.887  0.00  0.00    +0.000 N 
ATOM      8  N   UNL     1       7.206   6.210  16.143  0.00  0.00    +0.000 NA
ATOM      9  H   UNL     1       7.949   8.085  16.418  0.00  0.00    +0.000 HD
BRANCH   4  10
ATOM     10  O   UNL     1       8.129   5.683  20.230  0.00  0.00    +0.000 OA
ATOM     11  H   UNL     1       9.091   5.619  20.334  0.00  0.00    +0.000 HD
ENDBRANCH   4  10
ENDBRANCH   1   2
BRANCH   1  12
ATOM     12  C   UNL     1       4.806   4.369  15.744  0.00  0.00    +0.000 C 
BRANCH  12  17
ATOM     13  C   UNL     1       2.936   3.484  18.956  0.00  0.00    +0.000 A 
ATOM     14  C   UNL     1       2.559   4.754  19.399  0.00  0.00    +0.000 A 
ATOM     15  C   UNL     1       2.915   5.891  18.675  0.00  0.00    +0.000 A 
ATOM     16  C   UNL     1       3.647   5.767  17.496  0.00  0.00    +0.000 A 
ATOM     17  C   UNL     1       4.040   4.503  17.037  0.00  0.00    +0.000 A 
ATOM     18  C   UNL     1       3.685   3.365  17.781  0.00  0.00    +0.000 A 
BRANCH  13  20
ATOM     19  C   UNL     1       1.472   2.736  20.676  0.00  0.00    +0.000 C 
ATOM     20  O   UNL     1       2.503   2.451  19.741  0.00  0.00    +0.000 OA
ENDBRANCH  13  20
ENDBRANCH  12  17
ENDBRANCH   1  12
TORSDOF 5
ENDMDL
MODEL 2
REMARK VINA RESULT:      -7.2      1.041      1.728
REMARK  Name = 
REMARK  6 active torsions:
REMARK  status: ('A' for Active; 'I' for Inactive)
REMARK    1  A    between atoms: C_1  and  O_2
REMARK    2  A    between atoms: O_2  and  C_3
REMARK    3  A    between atoms: C_7  and  C_8
REMARK    4  A    between atoms: C_8  and  C_9
REMARK    5  A    between atoms: C_9  and  C_10
REMARK    6  A    between atoms: C_12  and  O_13
REMARK                            x       y       z     vdW  Elec       q    Type
REMARK                         _______ _______ _______ _____ _____    ______ ____
ROOT
ATOM      1  C   UNL     1       5.823   3.891  16.112  0.00  0.00    +0.000 C 
ENDROOT
BRANCH   1   2
ATOM      2  C   UNL     1       6.651   4.956  16.808  0.00  0.00    +0.000 A 
ATOM      3  C   UNL     1       6.989   4.729  18.231  0.00  0.00    +0.000 A 
ATOM      4  C   UNL     1       7.599   5.717  18.892  0.00  0.00    +0.000 A 
ATOM      5  C   UNL     1       7.961   6.973  18.161  0.00  0.00    +0.000 A 
ATOM      6  O   UNL     1       8.493   7.928  18.715  0.00  0.00    +0.000 OA
ATOM      7  N   UNL     1       7.665   6.982  16.818  0.00  0.00    +0.000 N 
ATOM      8  N   UNL     1       6.980   6.016  16.138  0.00  0.00    +0.000 NA
ATOM      9  H   UNL     1       7.909   7.820  16.299  0.00  0.00    +0.000 HD
BRANCH   4  10
ATOM     10  O   UNL     1       7.923   5.620  20.235  0.00  0.00    +0.000 OA
ATOM     11  H   UNL     1       8.115   6.503  20.587  0.00  0.00    +0.000 HD
ENDBRANCH   4  10
ENDBRANCH   1   2
BRANCH   1  12
ATOM     12  C   UNL     1       4.346   4.288  16.118  0.00  0.00    +0.000 C 
BRANCH  12  17
ATOM     13  C   UNL     1       2.009   3.761  19.095  0.00  0.00    +0.000 A 
ATOM     14  C   UNL     1       2.241   2.414  19.377  0.00  0.00    +0.000 A 
ATOM     15  C   UNL     1       3.136   1.673  18.606  0.00  0.00    +0.000 A 
ATOM     16  C   UNL     1       3.812   2.278  17.548  0.00  0.00    +0.000 A 
ATOM     17  C   UNL     1       3.589   3.627  17.245  0.00  0.00    +0.000 A 
ATOM     18  C   UNL     1       2.677   4.360  18.022  0.00  0.00    +0.000 A 
BRANCH  13  20
ATOM     19  C   UNL     1       1.643   5.423  20.757  0.00  0.00    +0.000 C 
ATOM     20  O   UNL     1       1.130   4.381  19.940  0.00  0.00    +0.000 OA
ENDBRANCH  13  20
ENDBRANCH  12  17
ENDBRANCH   1  12
TORSDOF 5
ENDMDL
MODEL 3
REMARK VINA RESULT:      -7.2      3.997      7.981
REMARK  Name = 
REMARK  6 active torsions:
REMARK  status: ('A' for Active; 'I' for Inactive)
REMARK    1  A    between atoms: C_1  and  O_2
REMARK    2  A    between atoms: O_2  and  C_3
REMARK    3  A    between atoms: C_7  and  C_8
REMARK    4  A    between atoms: C_8  and  C_9
REMARK    5  A    between atoms: C_9  and  C_10
REMARK    6  A    between atoms: C_12  and  O_13
REMARK                            x       y       z     vdW  Elec       q    Type
REMARK                         _______ _______ _______ _____ _____    ______ ____
ROOT
ATOM      1  C   UNL     1       8.432   8.081  18.705  0.00  0.00    +0.000 C 
ENDROOT
BRANCH   1   2
ATOM      2  C   UNL     1       7.739   6.973  17.932  0.00  0.00    +0.000 A 
ATOM      3  C   UNL     1       7.144   5.869  18.716  0.00  0.00    +0.000 A 
ATOM      4  C   UNL     1       6.652   4.823  18.046  0.00  0.00    +0.000 A 
ATOM      5  C   UNL     1       6.672   4.837  16.549  0.00  0.00    +0.000 A 
ATOM      6  O   UNL     1       6.265   3.898  15.875  0.00  0.00    +0.000 OA
ATOM      7  N   UNL     1       7.170   5.984  15.975  0.00  0.00    +0.000 N 
ATOM      8  N   UNL     1       7.742   7.033  16.636  0.00  0.00    +0.000 NA
ATOM      9  H   UNL     1       7.186   6.021  14.960  0.00  0.00    +0.000 HD
BRANCH   4  10
ATOM     10  O   UNL     1       6.110   3.722  18.686  0.00  0.00    +0.000 OA
ATOM     11  H   UNL     1       5.179   3.624  18.433  0.00  0.00    +0.000 HD
ENDBRANCH   4  10
ENDBRANCH   1   2
BRANCH   1  12
ATOM     12  C   UNL     1       8.338   9.397  17.932  0.00  0.00    +0.000 C 
BRANCH  12  17
ATOM     13  C   UNL     1      10.375  12.582  18.485  0.00  0.00    +0.000 A 
ATOM     14  C   UNL     1      10.584  12.525  19.865  0.00  0.00    +0.000 A 
ATOM     15  C   UNL     1      10.061  11.473  20.616  0.00  0.00    +0.000 A 
ATOM     16  C   UNL     1       9.329  10.465  19.992  0.00  0.00    +0.000 A 
ATOM     17  C   UNL     1       9.104  10.506  18.610  0.00  0.00    +0.000 A 
ATOM     18  C   UNL     1       9.626  11.577  17.865  0.00  0.00    +0.000 A 
BRANCH  13  20
ATOM     19  C   UNL     1      11.520  13.418  16.575  0.00  0.00    +0.000 C 
ATOM     20  O   UNL     1      10.961  13.649  17.861  0.00  0.00    +0.000 OA
ENDBRANCH  13  20
ENDBRANCH  12  17
ENDBRANCH   1  12
TORSDOF 5
ENDMDL
MODEL 4
REMARK VINA RESULT:      -7.0      3.784      5.418
REMARK  Name = 
REMARK  6 active torsions:
REMARK  status: ('A' for Active; 'I' for Inactive)
REMARK    1  A    between atoms: C_1  and  O_2
REMARK    2  A    between atoms: O_2  and  C_3
REMARK    3  A    between atoms: C_7  and  C_8
REMARK    4  A    between atoms: C_8  and  C_9
REMARK    5  A    between atoms: C_9  and  C_10
REMARK    6  A    between atoms: C_12  and  O_13
REMARK                            x       y       z     vdW  Elec       q    Type
REMARK                         _______ _______ _______ _____ _____    ______ ____
ROOT
ATOM      1  C   UNL     1       2.537   5.050  17.919  0.00  0.00    +0.000 C 
ENDROOT
BRANCH   1   2
ATOM      2  C   UNL     1       3.210   3.999  18.784  0.00  0.00    +0.000 A 
ATOM      3  C   UNL     1       2.532   3.623  20.045  0.00  0.00    +0.000 A 
ATOM      4  C   UNL     1       3.176   2.802  20.879  0.00  0.00    +0.000 A 
ATOM      5  C   UNL     1       4.515   2.259  20.483  0.00  0.00    +0.000 A 
ATOM      6  O   UNL     1       5.172   1.527  21.214  0.00  0.00    +0.000 OA
ATOM      7  N   UNL     1       4.957   2.629  19.234  0.00  0.00    +0.000 N 
ATOM      8  N   UNL     1       4.351   3.520  18.396  0.00  0.00    +0.000 NA
ATOM      9  H   UNL     1       5.859   2.265  18.939  0.00  0.00    +0.000 HD
BRANCH   4  10
ATOM     10  O   UNL     1       2.648   2.422  22.101  0.00  0.00    +0.000 OA
ATOM     11  H   UNL     1       3.144   2.848  22.817  0.00  0.00    +0.000 HD
ENDBRANCH   4  10
ENDBRANCH   1   2
BRANCH   1  12
ATOM     12  C   UNL     1       3.316   6.364  17.991  0.00  0.00    +0.000 C 
BRANCH  12  17
ATOM     13  C   UNL     1       1.311   8.456  20.481  0.00  0.00    +0.000 A 
ATOM     14  C   UNL     1       0.899   9.512  19.666  0.00  0.00    +0.000 A 
ATOM     15  C   UNL     1       1.275   9.559  18.324  0.00  0.00    +0.000 A 
ATOM     16  C   UNL     1       2.062   8.543  17.784  0.00  0.00    +0.000 A 
ATOM     17  C   UNL     1       2.490   7.478  18.586  0.00  0.00    +0.000 A 
ATOM     18  C   UNL     1       2.114   7.447  19.940  0.00  0.00    +0.000 A 
BRANCH  13  20
ATOM     19  C   UNL     1       0.387   9.773  22.234  0.00  0.00    +0.000 C 
ATOM     20  O   UNL     1       0.854   8.514  21.769  0.00  0.00    +0.000 OA
ENDBRANCH  13  20
ENDBRANCH  12  17
ENDBRANCH   1  12
TORSDOF 5
ENDMDL
MODEL 5
REMARK VINA RESULT:      -7.0      2.028      2.911
REMARK  Name = 
REMARK  6 active torsions:
REMARK  status: ('A' for Active; 'I' for Inactive)
REMARK    1  A    between atoms: C_1  and  O_2
REMARK    2  A    between atoms: O_2  and  C_3
REMARK    3  A    between atoms: C_7  and  C_8
REMARK    4  A    between atoms: C_8  and  C_9
REMARK    5  A    between atoms: C_9  and  C_10
REMARK    6  A    between atoms: C_12  and  O_13
REMARK                            x       y       z     vdW  Elec       q    Type
REMARK                         _______ _______ _______ _____ _____    ______ ____
ROOT
ATOM      1  C   UNL     1       3.775   6.771  18.269  0.00  0.00    +0.000 C 
ENDROOT
BRANCH   1   2
ATOM      2  C   UNL     1       4.836   6.167  17.367  0.00  0.00    +0.000 A 
ATOM      3  C   UNL     1       5.843   5.288  18.001  0.00  0.00    +0.000 A 
ATOM      4  C   UNL     1       6.860   4.858  17.247  0.00  0.00    +0.000 A 
ATOM      5  C   UNL     1       6.905   5.234  15.797  0.00  0.00    +0.000 A 
ATOM      6  O   UNL     1       7.824   4.900  15.059  0.00  0.00    +0.000 OA
ATOM      7  N   UNL     1       5.838   5.973  15.345  0.00  0.00    +0.000 N 
ATOM      8  N   UNL     1       4.827   6.482  16.109  0.00  0.00    +0.000 NA
ATOM      9  H   UNL     1       5.842   6.233  14.362  0.00  0.00    +0.000 HD
BRANCH   4  10
ATOM     10  O   UNL     1       7.875   4.066  17.753  0.00  0.00    +0.000 OA
ATOM     11  H   UNL     1       8.326   4.534  18.472  0.00  0.00    +0.000 HD
ENDBRANCH   4  10
ENDBRANCH   1   2
BRANCH   1  12
ATOM     12  C   UNL     1       2.387   6.298  17.835  0.00  0.00    +0.000 C 
BRANCH  12  17
ATOM     13  C   UNL     1       1.464   3.145  19.786  0.00  0.00    +0.000 A 
ATOM     14  C   UNL     1       1.778   2.156  18.851  0.00  0.00    +0.000 A 
ATOM     15  C   UNL     1       2.271   2.501  17.594  0.00  0.00    +0.000 A 
ATOM     16  C   UNL     1       2.462   3.842  17.263  0.00  0.00    +0.000 A 
ATOM     17  C   UNL     1       2.150   4.849  18.184  0.00  0.00    +0.000 A 
ATOM     18  C   UNL     1       1.642   4.490  19.444  0.00  0.00    +0.000 A 
BRANCH  13  20
ATOM     19  C   UNL     1       1.930   2.694  22.074  0.00  0.00    +0.000 C 
ATOM     20  O   UNL     1       1.014   2.675  20.989  0.00  0.00    +0.000 OA
ENDBRANCH  13  20
ENDBRANCH  12  17
ENDBRANCH   1  12
TORSDOF 5
ENDMDL
MODEL 6
REMARK VINA RESULT:      -6.9      2.737      3.411
REMARK  Name = 
REMARK  6 active torsions:
REMARK  status: ('A' for Active; 'I' for Inactive)
REMARK    1  A    between atoms: C_1  and  O_2
REMARK    2  A    between atoms: O_2  and  C_3
REMARK    3  A    between atoms: C_7  and  C_8
REMARK    4  A    between atoms: C_8  and  C_9
REMARK    5  A    between atoms: C_9  and  C_10
REMARK    6  A    between atoms: C_12  and  O_13
REMARK                            x       y       z     vdW  Elec       q    Type
REMARK                         _______ _______ _______ _____ _____    ______ ____
ROOT
ATOM      1  C   UNL     1       6.384   4.394  17.876  0.00  0.00    +0.000 C 
ENDROOT
BRANCH   1   2
ATOM      2  C   UNL     1       6.665   4.656  16.407  0.00  0.00    +0.000 A 
ATOM      3  C   UNL     1       6.029   3.751  15.424  0.00  0.00    +0.000 A 
ATOM      4  C   UNL     1       6.373   3.885  14.140  0.00  0.00    +0.000 A 
ATOM      5  C   UNL     1       7.332   4.966  13.747  0.00  0.00    +0.000 A 
ATOM      6  O   UNL     1       7.712   5.123  12.593  0.00  0.00    +0.000 OA
ATOM      7  N   UNL     1       7.752   5.783  14.771  0.00  0.00    +0.000 N 
ATOM      8  N   UNL     1       7.471   5.623  16.098  0.00  0.00    +0.000 NA
ATOM      9  H   UNL     1       8.397   6.530  14.528  0.00  0.00    +0.000 HD
BRANCH   4  10
ATOM     10  O   UNL     1       5.867   3.063  13.148  0.00  0.00    +0.000 OA
ATOM     11  H   UNL     1       6.128   2.145  13.321  0.00  0.00    +0.000 HD
ENDBRANCH   4  10
ENDBRANCH   1   2
BRANCH   1  12
ATOM     12  C   UNL     1       5.395   5.429  18.413  0.00  0.00    +0.000 C 
BRANCH  12  17
ATOM     13  C   UNL     1       2.452   3.298  19.595  0.00  0.00    +0.000 A 
ATOM     14  C   UNL     1       1.437   3.762  18.756  0.00  0.00    +0.000 A 
ATOM     15  C   UNL     1       1.694   4.765  17.823  0.00  0.00    +0.000 A 
ATOM     16  C   UNL     1       2.973   5.309  17.716  0.00  0.00    +0.000 A 
ATOM     17  C   UNL     1       4.004   4.861  18.552  0.00  0.00    +0.000 A 
ATOM     18  C   UNL     1       3.730   3.857  19.496  0.00  0.00    +0.000 A 
BRANCH  13  20
ATOM     19  C   UNL     1       1.449   2.678  21.661  0.00  0.00    +0.000 C 
ATOM     20  O   UNL     1       2.078   2.295  20.447  0.00  0.00    +0.000 OA
ENDBRANCH  13  20
ENDBRANCH  12  17
ENDBRANCH   1  12
TORSDOF 5
ENDMDL
MODEL 7
REMARK VINA RESULT:      -6.9      3.576      4.708
REMARK  Name = 
REMARK  6 active torsions:
REMARK  status: ('A' for Active; 'I' for Inactive)
REMARK    1  A    between atoms: C_1  and  O_2
REMARK    2  A    between atoms: O_2  and  C_3
REMARK    3  A    between atoms: C_7  and  C_8
REMARK    4  A    between atoms: C_8  and  C_9
REMARK    5  A    between atoms: C_9  and  C_10
REMARK    6  A    between atoms: C_12  and  O_13
REMARK                            x       y       z     vdW  Elec       q    Type
REMARK                         _______ _______ _______ _____ _____    ______ ____
ROOT
ATOM      1  C   UNL     1       2.908   5.086  18.372  0.00  0.00    +0.000 C 
ENDROOT
BRANCH   1   2
ATOM      2  C   UNL     1       4.378   4.946  18.016  0.00  0.00    +0.000 A 
ATOM      3  C   UNL     1       4.817   5.506  16.719  0.00  0.00    +0.000 A 
ATOM      4  C   UNL     1       6.074   5.272  16.332  0.00  0.00    +0.000 A 
ATOM      5  C   UNL     1       6.990   4.511  17.240  0.00  0.00    +0.000 A 
ATOM      6  O   UNL     1       8.144   4.237  16.933  0.00  0.00    +0.000 OA
ATOM      7  N   UNL     1       6.452   4.148  18.453  0.00  0.00    +0.000 N 
ATOM      8  N   UNL     1       5.153   4.313  18.840  0.00  0.00    +0.000 NA
ATOM      9  H   UNL     1       7.057   3.638  19.090  0.00  0.00    +0.000 HD
BRANCH   4  10
ATOM     10  O   UNL     1       6.571   5.718  15.119  0.00  0.00    +0.000 OA
ATOM     11  H   UNL     1       5.937   5.516  14.414  0.00  0.00    +0.000 HD
ENDBRANCH   4  10
ENDBRANCH   1   2
BRANCH   1  12
ATOM     12  C   UNL     1       2.759   5.855  19.685  0.00  0.00    +0.000 C 
BRANCH  12  17
ATOM     13  C   UNL     1       1.029   9.205  20.307  0.00  0.00    +0.000 A 
ATOM     14  C   UNL     1       1.109   9.782  19.037  0.00  0.00    +0.000 A 
ATOM     15  C   UNL     1       1.727   9.102  17.989  0.00  0.00    +0.000 A 
ATOM     16  C   UNL     1       2.266   7.835  18.200  0.00  0.00    +0.000 A 
ATOM     17  C   UNL     1       2.202   7.241  19.467  0.00  0.00    +0.000 A 
ATOM     18  C   UNL     1       1.586   7.940  20.519  0.00  0.00    +0.000 A 
BRANCH  13  20
ATOM     19  C   UNL     1       0.218   9.398  22.534  0.00  0.00    +0.000 C 
ATOM     20  O   UNL     1       0.376   9.962  21.240  0.00  0.00    +0.000 OA
ENDBRANCH  13  20
ENDBRANCH  12  17
ENDBRANCH   1  12
TORSDOF 5
ENDMDL
MODEL 8
REMARK VINA RESULT:      -6.9      3.900      5.049
REMARK  Name = 
REMARK  6 active torsions:
REMARK  status: ('A' for Active; 'I' for Inactive)
REMARK    1  A    between atoms: C_1  and  O_2
REMARK    2  A    between atoms: O_2  and  C_3
REMARK    3  A    between atoms: C_7  and  C_8
REMARK    4  A    between atoms: C_8  and  C_9
REMARK    5  A    between atoms: C_9  and  C_10
REMARK    6  A    between atoms: C_12  and  O_13
REMARK                            x       y       z     vdW  Elec       q    Type
REMARK                         _______ _______ _______ _____ _____    ______ ____
ROOT
ATOM      1  C   UNL     1       3.129   6.054  17.984  0.00  0.00    +0.000 C 
ENDROOT
BRANCH   1   2
ATOM      2  C   UNL     1       4.574   5.591  17.928  0.00  0.00    +0.000 A 
ATOM      3  C   UNL     1       5.540   6.470  17.232  0.00  0.00    +0.000 A 
ATOM      4  C   UNL     1       6.784   6.014  17.057  0.00  0.00    +0.000 A 
ATOM      5  C   UNL     1       7.158   4.675  17.615  0.00  0.00    +0.000 A 
ATOM      6  O   UNL     1       8.272   4.187  17.464  0.00  0.00    +0.000 OA
ATOM      7  N   UNL     1       6.169   4.032  18.322  0.00  0.00    +0.000 N 
ATOM      8  N   UNL     1       4.874   4.444  18.453  0.00  0.00    +0.000 NA
ATOM      9  H   UNL     1       6.402   3.126  18.718  0.00  0.00    +0.000 HD
BRANCH   4  10
ATOM     10  O   UNL     1       7.751   6.740  16.384  0.00  0.00    +0.000 OA
ATOM     11  H   UNL     1       8.392   6.133  15.982  0.00  0.00    +0.000 HD
ENDBRANCH   4  10
ENDBRANCH   1   2
BRANCH   1  12
ATOM     12  C   UNL     1       3.042   7.543  17.649  0.00  0.00    +0.000 C 
BRANCH  12  17
ATOM     13  C   UNL     1       0.468  10.059  18.932  0.00  0.00    +0.000 A 
ATOM     14  C   UNL     1       0.354   9.661  20.266  0.00  0.00    +0.000 A 
ATOM     15  C   UNL     1       1.092   8.581  20.748  0.00  0.00    +0.000 A 
ATOM     16  C   UNL     1       1.956   7.892  19.900  0.00  0.00    +0.000 A 
ATOM     17  C   UNL     1       2.082   8.271  18.557  0.00  0.00    +0.000 A 
ATOM     18  C   UNL     1       1.325   9.355  18.079  0.00  0.00    +0.000 A 
BRANCH  13  20
ATOM     19  C   UNL     1      -1.655  10.915  18.287  0.00  0.00    +0.000 C 
ATOM     20  O   UNL     1      -0.287  11.147  18.591  0.00  0.00    +0.000 OA
ENDBRANCH  13  20
ENDBRANCH  12  17
ENDBRANCH   1  12
TORSDOF 5
ENDMDL
MODEL 9
REMARK VINA RESULT:      -6.8      1.908      2.863
REMARK  Name = 
REMARK  6 active torsions:
REMARK  status: ('A' for Active; 'I' for Inactive)
REMARK    1  A    between atoms: C_1  and  O_2
REMARK    2  A    between atoms: O_2  and  C_3
REMARK    3  A    between atoms: C_7  and  C_8
REMARK    4  A    between atoms: C_8  and  C_9
REMARK    5  A    between atoms: C_9  and  C_10
REMARK    6  A    between atoms: C_12  and  O_13
REMARK                            x       y       z     vdW  Elec       q    Type
REMARK                         _______ _______ _______ _____ _____    ______ ____
ROOT
ATOM      1  C   UNL     1       3.834   7.501  17.831  0.00  0.00    +0.000 C 
ENDROOT
BRANCH   1   2
ATOM      2  C   UNL     1       4.871   6.641  17.131  0.00  0.00    +0.000 A 
ATOM      3  C   UNL     1       5.713   5.769  17.980  0.00  0.00    +0.000 A 
ATOM      4  C   UNL     1       6.717   5.110  17.394  0.00  0.00    +0.000 A 
ATOM      5  C   UNL     1       6.910   5.236  15.914  0.00  0.00    +0.000 A 
ATOM      6  O   UNL     1       7.829   4.683  15.321  0.00  0.00    +0.000 OA
ATOM      7  N   UNL     1       5.979   6.007  15.260  0.00  0.00    +0.000 N 
ATOM      8  N   UNL     1       4.989   6.745  15.844  0.00  0.00    +0.000 NA
ATOM      9  H   UNL     1       6.084   6.100  14.253  0.00  0.00    +0.000 HD
BRANCH   4  10
ATOM     10  O   UNL     1       7.586   4.301  18.105  0.00  0.00    +0.000 OA
ATOM     11  H   UNL     1       7.101   3.547  18.473  0.00  0.00    +0.000 HD
ENDBRANCH   4  10
ENDBRANCH   1   2
BRANCH   1  12
ATOM     12  C   UNL     1       2.460   6.834  17.751  0.00  0.00    +0.000 C 
BRANCH  12  17
ATOM     13  C   UNL     1       2.244   3.258  19.079  0.00  0.00    +0.000 A 
ATOM     14  C   UNL     1       2.063   3.495  20.443  0.00  0.00    +0.000 A 
ATOM     15  C   UNL     1       2.022   4.798  20.936  0.00  0.00    +0.000 A 
ATOM     16  C   UNL     1       2.157   5.878  20.066  0.00  0.00    +0.000 A 
ATOM     17  C   UNL     1       2.346   5.663  18.695  0.00  0.00    +0.000 A 
ATOM     18  C   UNL     1       2.396   4.344  18.211  0.00  0.00    +0.000 A 
BRANCH  13  20
ATOM     19  C   UNL     1       3.499   1.329  18.479  0.00  0.00    +0.000 C 
ATOM     20  O   UNL     1       2.239   1.938  18.720  0.00  0.00    +0.000 OA
ENDBRANCH  13  20
ENDBRANCH  12  17
ENDBRANCH   1  12
TORSDOF 5
ENDMDL
