MODEL 1
REMARK VINA RESULT:      -8.6      0.000      0.000
REMARK  Name = 
REMARK  4 active torsions:
REMARK  status: ('A' for Active; 'I' for Inactive)
REMARK    1  A    between atoms: C_4  and  C_5
REMARK    2  A    between atoms: C_5  and  N_6
REMARK    3  A    between atoms: N_11  and  C_12
REMARK    4  A    between atoms: C_18  and  C_19
REMARK                            x       y       z     vdW  Elec       q    Type
REMARK                         _______ _______ _______ _____ _____    ______ ____
ROOT
ATOM      1  N   UNL     1       6.145   4.495  14.960  0.00  0.00    +0.000 NA
ATOM      2  C   UNL     1       4.913   5.276  15.130  0.00  0.00    +0.000 C 
ATOM      3  C   UNL     1       5.279   6.532  15.902  0.00  0.00    +0.000 C 
ATOM      4  C   UNL     1       6.602   6.229  16.593  0.00  0.00    +0.000 C 
ATOM      5  C   UNL     1       6.515   6.150  18.114  0.00  0.00    +0.000 C 
ATOM      6  N   UNL     1       6.230   4.754  18.410  0.00  0.00    +0.000 N 
ATOM      7  C   UNL     1       6.697   3.886  17.328  0.00  0.00    +0.000 C 
ATOM      8  C   UNL     1       6.994   4.822  16.127  0.00  0.00    +0.000 C 
ENDROOT
BRANCH   6   9
ATOM      9  C   UNL     1       5.085   4.403  19.109  0.00  0.00    +0.000 A 
ATOM     10  N   UNL     1       4.944   3.122  19.559  0.00  0.00    +0.000 NA
ATOM     11  C   UNL     1       3.842   2.764  20.251  0.00  0.00    +0.000 A 
ATOM     12  N   UNL     1       2.794   3.526  20.582  0.00  0.00    +0.000 NA
ATOM     13  C   UNL     1       2.947   4.765  20.102  0.00  0.00    +0.000 A 
ATOM     14  O   UNL     1       2.033   5.761  20.267  0.00  0.00    +0.000 OA
ATOM     15  C   UNL     1       2.575   6.834  19.609  0.00  0.00    +0.000 A 
ATOM     16  N   UNL     1       3.751   6.602  19.053  0.00  0.00    +0.000 NA
ATOM     17  C   UNL     1       4.006   5.280  19.372  0.00  0.00    +0.000 A 
BRANCH  15  18
ATOM     18  C   UNL     1       1.770   8.053  19.586  0.00  0.00    +0.000 A 
ATOM     19  C   UNL     1       1.646   8.837  18.427  0.00  0.00    +0.000 A 
ATOM     20  C   UNL     1       0.902  10.020  18.438  0.00  0.00    +0.000 A 
ATOM     21  C   UNL     1       0.268  10.433  19.607  0.00  0.00    +0.000 A 
ATOM     22  C   UNL     1       0.367   9.660  20.762  0.00  0.00    +0.000 A 
ATOM     23  C   UNL     1       1.109   8.476  20.750  0.00  0.00    +0.000 A 
ENDBRANCH  15  18
ENDBRANCH   6   9
BRANCH   1  24
ATOM     24  C   UNL     1       6.823   4.746  13.682  0.00  0.00    +0.000 C 
BRANCH  24  28
ATOM     25  C   UNL     1       6.093   1.615  10.773  0.00  0.00    +0.000 A 
ATOM     26  C   UNL     1       7.397   2.013  11.065  0.00  0.00    +0.000 A 
ATOM     27  C   UNL     1       7.629   3.037  11.988  0.00  0.00    +0.000 A 
ATOM     28  C   UNL     1       6.561   3.683  12.627  0.00  0.00    +0.000 A 
ATOM     29  C   UNL     1       5.253   3.278  12.314  0.00  0.00    +0.000 A 
ATOM     30  C   UNL     1       5.021   2.251  11.395  0.00  0.00    +0.000 A 
ENDBRANCH  24  28
ENDBRANCH   1  24
TORSDOF 4
ENDMDL
MODEL 2
REMARK VINA RESULT:      -8.4      2.924      5.573
REMARK  Name = 
REMARK  4 active torsions:
REMARK  status: ('A' for Active; 'I' for Inactive)
REMARK    1  A    between atoms: C_4  and  C_5
REMARK    2  A    between atoms: C_5  and  N_6
REMARK    3  A    between atoms: N_11  and  C_12
REMARK    4  A    between atoms: C_18  and  C_19
REMARK                            x       y       z     vdW  Elec       q    Type
REMARK                         _______ _______ _______ _____ _____    ______ ____
ROOT
ATOM      1  N   UNL     1       7.049   7.481  17.987  0.00  0.00    +0.000 NA
ATOM      2  C   UNL     1       7.368   6.335  18.848  0.00  0.00    +0.000 C 
ATOM      3  C   UNL     1       7.313   5.089  17.979  0.00  0.00    +0.000 C 
ATOM      4  C   UNL     1       6.488   5.468  16.757  0.00  0.00    +0.000 C 
ATOM      5  C   UNL     1       5.141   4.756  16.660  0.00  0.00    +0.000 C 
ATOM      6  N   UNL     1       4.200   5.620  17.357  0.00  0.00    +0.000 N 
ATOM      7  C   UNL     1       4.669   7.006  17.360  0.00  0.00    +0.000 C 
ATOM      8  C   UNL     1       6.158   6.954  16.929  0.00  0.00    +0.000 C 
ENDROOT
BRANCH   6   9
ATOM      9  C   UNL     1       3.488   5.147  18.448  0.00  0.00    +0.000 A 
ATOM     10  N   UNL     1       3.497   3.809  18.723  0.00  0.00    +0.000 NA
ATOM     11  C   UNL     1       2.819   3.331  19.787  0.00  0.00    +0.000 A 
ATOM     12  N   UNL     1       2.086   4.016  20.672  0.00  0.00    +0.000 NA
ATOM     13  C   UNL     1       2.072   5.317  20.359  0.00  0.00    +0.000 A 
ATOM     14  O   UNL     1       1.395   6.260  21.071  0.00  0.00    +0.000 OA
ATOM     15  C   UNL     1       1.633   7.430  20.398  0.00  0.00    +0.000 A 
ATOM     16  N   UNL     1       2.405   7.305  19.334  0.00  0.00    +0.000 NA
ATOM     17  C   UNL     1       2.703   5.954  19.304  0.00  0.00    +0.000 A 
BRANCH  15  18
ATOM     18  C   UNL     1       0.978   8.625  20.927  0.00  0.00    +0.000 A 
ATOM     19  C   UNL     1       0.553   8.706  22.263  0.00  0.00    +0.000 A 
ATOM     20  C   UNL     1      -0.105   9.845  22.737  0.00  0.00    +0.000 A 
ATOM     21  C   UNL     1      -0.343  10.919  21.883  0.00  0.00    +0.000 A 
ATOM     22  C   UNL     1       0.085  10.861  20.558  0.00  0.00    +0.000 A 
ATOM     23  C   UNL     1       0.745   9.723  20.085  0.00  0.00    +0.000 A 
ENDBRANCH  15  18
ENDBRANCH   6   9
BRANCH   1  24
ATOM     24  C   UNL     1       8.238   8.149  17.441  0.00  0.00    +0.000 C 
BRANCH  24  28
ATOM     25  C   UNL     1       9.253  11.952  19.259  0.00  0.00    +0.000 A 
ATOM     26  C   UNL     1       9.505  10.759  19.936  0.00  0.00    +0.000 A 
ATOM     27  C   UNL     1       9.158   9.536  19.357  0.00  0.00    +0.000 A 
ATOM     28  C   UNL     1       8.547   9.485  18.095  0.00  0.00    +0.000 A 
ATOM     29  C   UNL     1       8.291  10.696  17.430  0.00  0.00    +0.000 A 
ATOM     30  C   UNL     1       8.642  11.920  18.007  0.00  0.00    +0.000 A 
ENDBRANCH  24  28
ENDBRANCH   1  24
TORSDOF 4
ENDMDL
MODEL 3
REMARK VINA RESULT:      -8.3      1.938      8.791
REMARK  Name = 
REMARK  4 active torsions:
REMARK  status: ('A' for Active; 'I' for Inactive)
REMARK    1  A    between atoms: C_4  and  C_5
REMARK    2  A    between atoms: C_5  and  N_6
REMARK    3  A    between atoms: N_11  and  C_12
REMARK    4  A    between atoms: C_18  and  C_19
REMARK                            x       y       z     vdW  Elec       q    Type
REMARK                         _______ _______ _______ _____ _____    ______ ____
ROOT
ATOM      1  N   UNL     1       1.848   6.702  20.450  0.00  0.00    +0.000 NA
ATOM      2  C   UNL     1       2.371   7.512  19.343  0.00  0.00    +0.000 C 
ATOM      3  C   UNL     1       2.116   6.740  18.059  0.00  0.00    +0.000 C 
ATOM      4  C   UNL     1       1.902   5.292  18.478  0.00  0.00    +0.000 C 
ATOM      5  C   UNL     1       2.999   4.335  18.021  0.00  0.00    +0.000 C 
ATOM      6  N   UNL     1       3.976   4.329  19.100  0.00  0.00    +0.000 N 
ATOM      7  C   UNL     1       3.350   4.697  20.371  0.00  0.00    +0.000 C 
ATOM      8  C   UNL     1       1.965   5.294  20.008  0.00  0.00    +0.000 C 
ENDROOT
BRANCH   6   9
ATOM      9  C   UNL     1       5.289   4.705  18.863  0.00  0.00    +0.000 A 
ATOM     10  N   UNL     1       6.051   5.162  19.900  0.00  0.00    +0.000 NA
ATOM     11  C   UNL     1       7.334   5.521  19.690  0.00  0.00    +0.000 A 
ATOM     12  N   UNL     1       8.019   5.501  18.541  0.00  0.00    +0.000 NA
ATOM     13  C   UNL     1       7.237   5.079  17.540  0.00  0.00    +0.000 A 
ATOM     14  O   UNL     1       7.654   4.968  16.248  0.00  0.00    +0.000 OA
ATOM     15  C   UNL     1       6.548   4.530  15.570  0.00  0.00    +0.000 A 
ATOM     16  N   UNL     1       5.477   4.348  16.323  0.00  0.00    +0.000 NA
ATOM     17  C   UNL     1       5.911   4.686  17.592  0.00  0.00    +0.000 A 
BRANCH  15  18
ATOM     18  C   UNL     1       6.698   4.363  14.126  0.00  0.00    +0.000 A 
ATOM     19  C   UNL     1       7.593   5.146  13.379  0.00  0.00    +0.000 A 
ATOM     20  C   UNL     1       7.693   4.995  11.993  0.00  0.00    +0.000 A 
ATOM     21  C   UNL     1       6.902   4.057  11.336  0.00  0.00    +0.000 A 
ATOM     22  C   UNL     1       6.018   3.261  12.062  0.00  0.00    +0.000 A 
ATOM     23  C   UNL     1       5.921   3.411  13.448  0.00  0.00    +0.000 A 
ENDBRANCH  15  18
ENDBRANCH   6   9
BRANCH   1  24
ATOM     24  C   UNL     1       0.477   7.059  20.837  0.00  0.00    +0.000 C 
BRANCH  24  28
ATOM     25  C   UNL     1      -0.140  11.218  21.894  0.00  0.00    +0.000 A 
ATOM     26  C   UNL     1       0.218  10.869  20.593  0.00  0.00    +0.000 A 
ATOM     27  C   UNL     1       0.437   9.530  20.260  0.00  0.00    +0.000 A 
ATOM     28  C   UNL     1       0.308   8.519  21.224  0.00  0.00    +0.000 A 
ATOM     29  C   UNL     1      -0.044   8.888  22.533  0.00  0.00    +0.000 A 
ATOM     30  C   UNL     1      -0.268  10.227  22.866  0.00  0.00    +0.000 A 
ENDBRANCH  24  28
ENDBRANCH   1  24
TORSDOF 4
ENDMDL
MODEL 4
REMARK VINA RESULT:      -8.1      2.778      7.841
REMARK  Name = 
REMARK  4 active torsions:
REMARK  status: ('A' for Active; 'I' for Inactive)
REMARK    1  A    between atoms: C_4  and  C_5
REMARK    2  A    between atoms: C_5  and  N_6
REMARK    3  A    between atoms: N_11  and  C_12
REMARK    4  A    between atoms: C_18  and  C_19
REMARK                            x       y       z     vdW  Elec       q    Type
REMARK                         _______ _______ _______ _____ _____    ______ ____
ROOT
ATOM      1  N   UNL     1       2.685   6.277  19.687  0.00  0.00    +0.000 NA
ATOM      2  C   UNL     1       2.294   6.279  18.272  0.00  0.00    +0.000 C 
ATOM      3  C   UNL     1       2.078   4.832  17.861  0.00  0.00    +0.000 C 
ATOM      4  C   UNL     1       2.819   3.990  18.890  0.00  0.00    +0.000 C 
ATOM      5  C   UNL     1       4.031   3.243  18.339  0.00  0.00    +0.000 C 
ATOM      6  N   UNL     1       5.154   4.152  18.517  0.00  0.00    +0.000 N 
ATOM      7  C   UNL     1       4.894   5.094  19.605  0.00  0.00    +0.000 C 
ATOM      8  C   UNL     1       3.377   4.988  19.911  0.00  0.00    +0.000 C 
ENDROOT
BRANCH   6   9
ATOM      9  C   UNL     1       5.898   4.571  17.425  0.00  0.00    +0.000 A 
ATOM     10  N   UNL     1       5.971   3.772  16.320  0.00  0.00    +0.000 NA
ATOM     11  C   UNL     1       6.681   4.169  15.243  0.00  0.00    +0.000 A 
ATOM     12  N   UNL     1       7.375   5.302  15.085  0.00  0.00    +0.000 NA
ATOM     13  C   UNL     1       7.309   6.048  16.194  0.00  0.00    +0.000 A 
ATOM     14  O   UNL     1       7.931   7.251  16.336  0.00  0.00    +0.000 OA
ATOM     15  C   UNL     1       7.620   7.647  17.610  0.00  0.00    +0.000 A 
ATOM     16  N   UNL     1       6.852   6.803  18.276  0.00  0.00    +0.000 NA
ATOM     17  C   UNL     1       6.636   5.777  17.373  0.00  0.00    +0.000 A 
BRANCH  15  18
ATOM     18  C   UNL     1       8.203   8.911  18.056  0.00  0.00    +0.000 A 
ATOM     19  C   UNL     1       8.982   8.996  19.221  0.00  0.00    +0.000 A 
ATOM     20  C   UNL     1       9.499  10.222  19.649  0.00  0.00    +0.000 A 
ATOM     21  C   UNL     1       9.246  11.379  18.916  0.00  0.00    +0.000 A 
ATOM     22  C   UNL     1       8.487  11.310  17.749  0.00  0.00    +0.000 A 
ATOM     23  C   UNL     1       7.973  10.084  17.320  0.00  0.00    +0.000 A 
ENDBRANCH  15  18
ENDBRANCH   6   9
BRANCH   1  24
ATOM     24  C   UNL     1       1.557   6.477  20.604  0.00  0.00    +0.000 C 
BRANCH  24  28
ATOM     25  C   UNL     1       0.146  10.572  20.814  0.00  0.00    +0.000 A 
ATOM     26  C   UNL     1       1.013  10.178  19.795  0.00  0.00    +0.000 A 
ATOM     27  C   UNL     1       1.482   8.863  19.742  0.00  0.00    +0.000 A 
ATOM     28  C   UNL     1       1.099   7.923  20.710  0.00  0.00    +0.000 A 
ATOM     29  C   UNL     1       0.233   8.337  21.735  0.00  0.00    +0.000 A 
ATOM     30  C   UNL     1      -0.241   9.652  21.786  0.00  0.00    +0.000 A 
ENDBRANCH  24  28
ENDBRANCH   1  24
TORSDOF 4
ENDMDL
MODEL 5
REMARK VINA RESULT:      -8.1      1.931      8.790
REMARK  Name = 
REMARK  4 active torsions:
REMARK  status: ('A' for Active; 'I' for Inactive)
REMARK    1  A    between atoms: C_4  and  C_5
REMARK    2  A    between atoms: C_5  and  N_6
REMARK    3  A    between atoms: N_11  and  C_12
REMARK    4  A    between atoms: C_18  and  C_19
REMARK                            x       y       z     vdW  Elec       q    Type
REMARK                         _______ _______ _______ _____ _____    ______ ____
ROOT
ATOM      1  N   UNL     1       1.889   6.692  20.408  0.00  0.00    +0.000 NA
ATOM      2  C   UNL     1       2.342   7.410  19.210  0.00  0.00    +0.000 C 
ATOM      3  C   UNL     1       2.085   6.504  18.017  0.00  0.00    +0.000 C 
ATOM      4  C   UNL     1       1.949   5.097  18.582  0.00  0.00    +0.000 C 
ATOM      5  C   UNL     1       3.075   4.146  18.185  0.00  0.00    +0.000 C 
ATOM      6  N   UNL     1       4.082   4.289  19.226  0.00  0.00    +0.000 N 
ATOM      7  C   UNL     1       3.477   4.754  20.475  0.00  0.00    +0.000 C 
ATOM      8  C   UNL     1       2.057   5.253  20.102  0.00  0.00    +0.000 C 
ENDROOT
BRANCH   6   9
ATOM      9  C   UNL     1       5.369   4.694  18.909  0.00  0.00    +0.000 A 
ATOM     10  N   UNL     1       6.173   5.192  19.894  0.00  0.00    +0.000 NA
ATOM     11  C   UNL     1       7.433   5.582  19.606  0.00  0.00    +0.000 A 
ATOM     12  N   UNL     1       8.054   5.555  18.422  0.00  0.00    +0.000 NA
ATOM     13  C   UNL     1       7.231   5.091  17.474  0.00  0.00    +0.000 A 
ATOM     14  O   UNL     1       7.580   4.964  16.164  0.00  0.00    +0.000 OA
ATOM     15  C   UNL     1       6.451   4.482  15.556  0.00  0.00    +0.000 A 
ATOM     16  N   UNL     1       5.428   4.288  16.370  0.00  0.00    +0.000 NA
ATOM     17  C   UNL     1       5.921   4.665  17.607  0.00  0.00    +0.000 A 
BRANCH  15  18
ATOM     18  C   UNL     1       6.526   4.289  14.109  0.00  0.00    +0.000 A 
ATOM     19  C   UNL     1       5.669   3.404  13.435  0.00  0.00    +0.000 A 
ATOM     20  C   UNL     1       5.784   3.206  12.056  0.00  0.00    +0.000 A 
ATOM     21  C   UNL     1       6.756   3.893  11.333  0.00  0.00    +0.000 A 
ATOM     22  C   UNL     1       7.605   4.786  11.983  0.00  0.00    +0.000 A 
ATOM     23  C   UNL     1       7.488   4.985  13.361  0.00  0.00    +0.000 A 
ENDBRANCH  15  18
ENDBRANCH   6   9
BRANCH   1  24
ATOM     24  C   UNL     1       0.515   7.028  20.804  0.00  0.00    +0.000 C 
BRANCH  24  28
ATOM     25  C   UNL     1       0.081  11.196  21.914  0.00  0.00    +0.000 A 
ATOM     26  C   UNL     1      -0.352  10.190  22.777  0.00  0.00    +0.000 A 
ATOM     27  C   UNL     1      -0.229   8.848  22.408  0.00  0.00    +0.000 A 
ATOM     28  C   UNL     1       0.320   8.490  21.168  0.00  0.00    +0.000 A 
ATOM     29  C   UNL     1       0.742   9.516  20.306  0.00  0.00    +0.000 A 
ATOM     30  C   UNL     1       0.625  10.859  20.676  0.00  0.00    +0.000 A 
ENDBRANCH  24  28
ENDBRANCH   1  24
TORSDOF 4
ENDMDL
MODEL 6
REMARK VINA RESULT:      -8.1      0.990      1.746
REMARK  Name = 
REMARK  4 active torsions:
REMARK  status: ('A' for Active; 'I' for Inactive)
REMARK    1  A    between atoms: C_4  and  C_5
REMARK    2  A    between atoms: C_5  and  N_6
REMARK    3  A    between atoms: N_11  and  C_12
REMARK    4  A    between atoms: C_18  and  C_19
REMARK                            x       y       z     vdW  Elec       q    Type
REMARK                         _______ _______ _______ _____ _____    ______ ____
ROOT
ATOM      1  N   UNL     1       5.116   5.130  15.695  0.00  0.00    +0.000 NA
ATOM      2  C   UNL     1       4.702   6.288  16.496  0.00  0.00    +0.000 C 
ATOM      3  C   UNL     1       5.765   6.505  17.560  0.00  0.00    +0.000 C 
ATOM      4  C   UNL     1       6.518   5.186  17.673  0.00  0.00    +0.000 C 
ATOM      5  C   UNL     1       6.320   4.460  19.001  0.00  0.00    +0.000 C 
ATOM      6  N   UNL     1       5.168   3.594  18.796  0.00  0.00    +0.000 N 
ATOM      7  C   UNL     1       5.002   3.276  17.377  0.00  0.00    +0.000 C 
ATOM      8  C   UNL     1       5.906   4.272  16.606  0.00  0.00    +0.000 C 
ENDROOT
BRANCH   6   9
ATOM      9  C   UNL     1       4.042   3.721  19.594  0.00  0.00    +0.000 A 
ATOM     10  N   UNL     1       3.604   2.642  20.308  0.00  0.00    +0.000 NA
ATOM     11  C   UNL     1       2.517   2.750  21.100  0.00  0.00    +0.000 A 
ATOM     12  N   UNL     1       1.749   3.826  21.302  0.00  0.00    +0.000 NA
ATOM     13  C   UNL     1       2.184   4.856  20.567  0.00  0.00    +0.000 A 
ATOM     14  O   UNL     1       1.591   6.082  20.554  0.00  0.00    +0.000 OA
ATOM     15  C   UNL     1       2.337   6.811  19.665  0.00  0.00    +0.000 A 
ATOM     16  N   UNL     1       3.349   6.154  19.128  0.00  0.00    +0.000 NA
ATOM     17  C   UNL     1       3.269   4.900  19.708  0.00  0.00    +0.000 A 
BRANCH  15  18
ATOM     18  C   UNL     1       1.891   8.181  19.417  0.00  0.00    +0.000 A 
ATOM     19  C   UNL     1       1.131   8.894  20.358  0.00  0.00    +0.000 A 
ATOM     20  C   UNL     1       0.684  10.189  20.083  0.00  0.00    +0.000 A 
ATOM     21  C   UNL     1       0.993  10.790  18.865  0.00  0.00    +0.000 A 
ATOM     22  C   UNL     1       1.759  10.102  17.926  0.00  0.00    +0.000 A 
ATOM     23  C   UNL     1       2.208   8.808  18.202  0.00  0.00    +0.000 A 
ENDBRANCH  15  18
ENDBRANCH   6   9
BRANCH   1  24
ATOM     24  C   UNL     1       5.858   5.496  14.481  0.00  0.00    +0.000 C 
BRANCH  24  28
ATOM     25  C   UNL     1       5.948   2.464  11.384  0.00  0.00    +0.000 A 
ATOM     26  C   UNL     1       4.733   2.870  11.935  0.00  0.00    +0.000 A 
ATOM     27  C   UNL     1       4.709   3.833  12.948  0.00  0.00    +0.000 A 
ATOM     28  C   UNL     1       5.898   4.399  13.430  0.00  0.00    +0.000 A 
ATOM     29  C   UNL     1       7.114   3.972  12.872  0.00  0.00    +0.000 A 
ATOM     30  C   UNL     1       7.139   3.012  11.855  0.00  0.00    +0.000 A 
ENDBRANCH  24  28
ENDBRANCH   1  24
TORSDOF 4
ENDMDL
MODEL 7
REMARK VINA RESULT:      -8.0      4.467     11.081
REMARK  Name = 
REMARK  4 active torsions:
REMARK  status: ('A' for Active; 'I' for Inactive)
REMARK    1  A    between atoms: C_4  and  C_5
REMARK    2  A    between atoms: C_5  and  N_6
REMARK    3  A    between atoms: N_11  and  C_12
REMARK    4  A    between atoms: C_18  and  C_19
REMARK                            x       y       z     vdW  Elec       q    Type
REMARK                         _______ _______ _______ _____ _____    ______ ____
ROOT
ATOM      1  N   UNL     1      -3.376  11.681  19.032  0.00  0.00    +0.000 NA
ATOM      2  C   UNL     1      -2.858  12.058  20.353  0.00  0.00    +0.000 C 
ATOM      3  C   UNL     1      -1.683  12.995  20.126  0.00  0.00    +0.000 C 
ATOM      4  C   UNL     1      -1.228  12.756  18.692  0.00  0.00    +0.000 C 
ATOM      5  C   UNL     1       0.149  12.113  18.567  0.00  0.00    +0.000 C 
ATOM      6  N   UNL     1      -0.097  10.678  18.552  0.00  0.00    +0.000 N 
ATOM      7  C   UNL     1      -1.451  10.388  18.078  0.00  0.00    +0.000 C 
ATOM      8  C   UNL     1      -2.216  11.737  18.114  0.00  0.00    +0.000 C 
ENDROOT
BRANCH   6   9
ATOM      9  C   UNL     1       0.470   9.858  19.514  0.00  0.00    +0.000 A 
ATOM     10  N   UNL     1       0.210  10.096  20.834  0.00  0.00    +0.000 NA
ATOM     11  C   UNL     1       0.744   9.301  21.784  0.00  0.00    +0.000 A 
ATOM     12  N   UNL     1       1.548   8.245  21.618  0.00  0.00    +0.000 NA
ATOM     13  C   UNL     1       1.808   8.055  20.320  0.00  0.00    +0.000 A 
ATOM     14  O   UNL     1       2.611   7.063  19.844  0.00  0.00    +0.000 OA
ATOM     15  C   UNL     1       2.615   7.250  18.487  0.00  0.00    +0.000 A 
ATOM     16  N   UNL     1       1.881   8.265  18.069  0.00  0.00    +0.000 NA
ATOM     17  C   UNL     1       1.348   8.784  19.236  0.00  0.00    +0.000 A 
BRANCH  15  18
ATOM     18  C   UNL     1       3.449   6.334  17.711  0.00  0.00    +0.000 A 
ATOM     19  C   UNL     1       3.227   4.947  17.715  0.00  0.00    +0.000 A 
ATOM     20  C   UNL     1       4.060   4.087  16.994  0.00  0.00    +0.000 A 
ATOM     21  C   UNL     1       5.124   4.601  16.258  0.00  0.00    +0.000 A 
ATOM     22  C   UNL     1       5.350   5.976  16.231  0.00  0.00    +0.000 A 
ATOM     23  C   UNL     1       4.515   6.836  16.949  0.00  0.00    +0.000 A 
ENDBRANCH  15  18
ENDBRANCH   6   9
BRANCH   1  24
ATOM     24  C   UNL     1      -4.492  12.520  18.581  0.00  0.00    +0.000 C 
BRANCH  24  28
ATOM     25  C   UNL     1      -7.854  12.368  21.314  0.00  0.00    +0.000 A 
ATOM     26  C   UNL     1      -7.502  11.243  20.569  0.00  0.00    +0.000 A 
ATOM     27  C   UNL     1      -6.431  11.302  19.674  0.00  0.00    +0.000 A 
ATOM     28  C   UNL     1      -5.700  12.486  19.503  0.00  0.00    +0.000 A 
ATOM     29  C   UNL     1      -6.073  13.613  20.253  0.00  0.00    +0.000 A 
ATOM     30  C   UNL     1      -7.141  13.555  21.154  0.00  0.00    +0.000 A 
ENDBRANCH  24  28
ENDBRANCH   1  24
TORSDOF 4
ENDMDL
MODEL 8
REMARK VINA RESULT:      -7.9      1.175      1.963
REMARK  Name = 
REMARK  4 active torsions:
REMARK  status: ('A' for Active; 'I' for Inactive)
REMARK    1  A    between atoms: C_4  and  C_5
REMARK    2  A    between atoms: C_5  and  N_6
REMARK    3  A    between atoms: N_11  and  C_12
REMARK    4  A    between atoms: C_18  and  C_19
REMARK                            x       y       z     vdW  Elec       q    Type
REMARK                         _______ _______ _______ _____ _____    ______ ____
ROOT
ATOM      1  N   UNL     1       5.781   5.028  16.081  0.00  0.00    +0.000 NA
ATOM      2  C   UNL     1       4.832   6.094  16.424  0.00  0.00    +0.000 C 
ATOM      3  C   UNL     1       5.333   6.751  17.700  0.00  0.00    +0.000 C 
ATOM      4  C   UNL     1       6.280   5.747  18.343  0.00  0.00    +0.000 C 
ATOM      5  C   UNL     1       5.779   5.162  19.660  0.00  0.00    +0.000 C 
ATOM      6  N   UNL     1       5.032   3.969  19.290  0.00  0.00    +0.000 N 
ATOM      7  C   UNL     1       5.491   3.445  18.003  0.00  0.00    +0.000 C 
ATOM      8  C   UNL     1       6.352   4.568  17.367  0.00  0.00    +0.000 C 
ENDROOT
BRANCH   6   9
ATOM      9  C   UNL     1       3.694   3.845  19.630  0.00  0.00    +0.000 A 
ATOM     10  N   UNL     1       3.120   2.606  19.642  0.00  0.00    +0.000 NA
ATOM     11  C   UNL     1       1.822   2.463  19.981  0.00  0.00    +0.000 A 
ATOM     12  N   UNL     1       0.951   3.418  20.326  0.00  0.00    +0.000 NA
ATOM     13  C   UNL     1       1.534   4.622  20.275  0.00  0.00    +0.000 A 
ATOM     14  O   UNL     1       0.890   5.788  20.560  0.00  0.00    +0.000 OA
ATOM     15  C   UNL     1       1.839   6.756  20.364  0.00  0.00    +0.000 A 
ATOM     16  N   UNL     1       3.021   6.301  19.990  0.00  0.00    +0.000 NA
ATOM     17  C   UNL     1       2.841   4.930  19.940  0.00  0.00    +0.000 A 
BRANCH  15  18
ATOM     18  C   UNL     1       1.403   8.138  20.559  0.00  0.00    +0.000 A 
ATOM     19  C   UNL     1       1.049   8.630  21.826  0.00  0.00    +0.000 A 
ATOM     20  C   UNL     1       0.599   9.944  21.983  0.00  0.00    +0.000 A 
ATOM     21  C   UNL     1       0.500  10.784  20.877  0.00  0.00    +0.000 A 
ATOM     22  C   UNL     1       0.861  10.317  19.615  0.00  0.00    +0.000 A 
ATOM     23  C   UNL     1       1.314   9.004  19.458  0.00  0.00    +0.000 A 
ENDBRANCH  15  18
ENDBRANCH   6   9
BRANCH   1  24
ATOM     24  C   UNL     1       6.812   5.451  15.126  0.00  0.00    +0.000 C 
BRANCH  24  28
ATOM     25  C   UNL     1       6.576   3.424  11.300  0.00  0.00    +0.000 A 
ATOM     26  C   UNL     1       5.697   3.088  12.330  0.00  0.00    +0.000 A 
ATOM     27  C   UNL     1       5.789   3.729  13.568  0.00  0.00    +0.000 A 
ATOM     28  C   UNL     1       6.765   4.709  13.800  0.00  0.00    +0.000 A 
ATOM     29  C   UNL     1       7.649   5.029  12.757  0.00  0.00    +0.000 A 
ATOM     30  C   UNL     1       7.555   4.392  11.515  0.00  0.00    +0.000 A 
ENDBRANCH  24  28
ENDBRANCH   1  24
TORSDOF 4
ENDMDL
MODEL 9
REMARK VINA RESULT:      -7.9      4.693     10.900
REMARK  Name = 
REMARK  4 active torsions:
REMARK  status: ('A' for Active; 'I' for Inactive)
REMARK    1  A    between atoms: C_4  and  C_5
REMARK    2  A    between atoms: C_5  and  N_6
REMARK    3  A    between atoms: N_11  and  C_12
REMARK    4  A    between atoms: C_18  and  C_19
REMARK                            x       y       z     vdW  Elec       q    Type
REMARK                         _______ _______ _______ _____ _____    ______ ____
ROOT
ATOM      1  N   UNL     1       0.892  14.882  19.864  0.00  0.00    +0.000 NA
ATOM      2  C   UNL     1       1.987  14.433  20.733  0.00  0.00    +0.000 C 
ATOM      3  C   UNL     1       3.072  13.865  19.834  0.00  0.00    +0.000 C 
ATOM      4  C   UNL     1       2.392  13.541  18.511  0.00  0.00    +0.000 C 
ATOM      5  C   UNL     1       2.312  12.050  18.192  0.00  0.00    +0.000 C 
ATOM      6  N   UNL     1       1.048  11.605  18.760  0.00  0.00    +0.000 N 
ATOM      7  C   UNL     1       0.105  12.719  18.871  0.00  0.00    +0.000 C 
ATOM      8  C   UNL     1       0.943  14.009  18.670  0.00  0.00    +0.000 C 
ENDROOT
BRANCH   6   9
ATOM      9  C   UNL     1       1.022  10.603  19.718  0.00  0.00    +0.000 A 
ATOM     10  N   UNL     1       0.544  10.885  20.966  0.00  0.00    +0.000 NA
ATOM     11  C   UNL     1       0.500   9.920  21.908  0.00  0.00    +0.000 A 
ATOM     12  N   UNL     1       0.885   8.643  21.798  0.00  0.00    +0.000 NA
ATOM     13  C   UNL     1       1.375   8.407  20.577  0.00  0.00    +0.000 A 
ATOM     14  O   UNL     1       1.860   7.199  20.175  0.00  0.00    +0.000 OA
ATOM     15  C   UNL     1       2.271   7.409  18.885  0.00  0.00    +0.000 A 
ATOM     16  N   UNL     1       2.080   8.638  18.440  0.00  0.00    +0.000 NA
ATOM     17  C   UNL     1       1.495   9.286  19.513  0.00  0.00    +0.000 A 
BRANCH  15  18
ATOM     18  C   UNL     1       2.885   6.269  18.208  0.00  0.00    +0.000 A 
ATOM     19  C   UNL     1       4.136   6.369  17.578  0.00  0.00    +0.000 A 
ATOM     20  C   UNL     1       4.688   5.276  16.904  0.00  0.00    +0.000 A 
ATOM     21  C   UNL     1       3.998   4.067  16.853  0.00  0.00    +0.000 A 
ATOM     22  C   UNL     1       2.762   3.946  17.485  0.00  0.00    +0.000 A 
ATOM     23  C   UNL     1       2.212   5.038  18.161  0.00  0.00    +0.000 A 
ENDBRANCH  15  18
ENDBRANCH   6   9
BRANCH   1  24
ATOM     24  C   UNL     1       0.966  16.308  19.523  0.00  0.00    +0.000 C 
BRANCH  24  28
ATOM     25  C   UNL     1      -2.866  18.247  18.925  0.00  0.00    +0.000 A 
ATOM     26  C   UNL     1      -2.704  17.306  19.942  0.00  0.00    +0.000 A 
ATOM     27  C   UNL     1      -1.474  16.668  20.119  0.00  0.00    +0.000 A 
ATOM     28  C   UNL     1      -0.388  16.954  19.279  0.00  0.00    +0.000 A 
ATOM     29  C   UNL     1      -0.569  17.895  18.253  0.00  0.00    +0.000 A 
ATOM     30  C   UNL     1      -1.799  18.538  18.077  0.00  0.00    +0.000 A 
ENDBRANCH  24  28
ENDBRANCH   1  24
TORSDOF 4
ENDMDL
