MODEL 1
REMARK VINA RESULT:      -7.6      0.000      0.000
REMARK  Name = 
REMARK  7 active torsions:
REMARK  status: ('A' for Active; 'I' for Inactive)
REMARK    1  A    between atoms: C_1  and  O_2
REMARK    2  A    between atoms: O_2  and  C_3
REMARK    3  A    between atoms: C_5  and  O_6
REMARK    4  A    between atoms: O_6  and  C_7
REMARK    5  A    between atoms: C_11  and  C_13
REMARK    6  A    between atoms: C_13  and  S_14
REMARK    7  A    between atoms: S_14  and  C_15
REMARK                            x       y       z     vdW  Elec       q    Type
REMARK                         _______ _______ _______ _____ _____    ______ ____
ROOT
ATOM      1  C   UNL     1       2.014   8.565  18.620  0.00  0.00    +0.000 A 
ATOM      2  C   UNL     1       1.392   9.052  19.745  0.00  0.00    +0.000 A 
ATOM      3  C   UNL     1       1.328   8.170  20.788  0.00  0.00    +0.000 A 
ATOM      4  N   UNL     1       1.820   6.927  20.726  0.00  0.00    +0.000 NA
ATOM      5  C   UNL     1       2.370   6.535  19.583  0.00  0.00    +0.000 A 
ATOM      6  N   UNL     1       2.828   5.234  19.450  0.00  0.00    +0.000 N 
ATOM      7  C   UNL     1       2.504   4.205  20.310  0.00  0.00    +0.000 C 
ATOM      8  O   UNL     1       1.791   4.285  21.308  0.00  0.00    +0.000 OA
ATOM      9  N   UNL     1       2.523   7.322  18.513  0.00  0.00    +0.000 NA
ATOM     10  H   UNL     1       3.199   5.030  18.534  0.00  0.00    +0.000 HD
ENDROOT
BRANCH   1  12
ATOM     11  C   UNL     1       1.998  10.804  17.925  0.00  0.00    +0.000 C 
ATOM     12  O   UNL     1       2.093   9.434  17.547  0.00  0.00    +0.000 OA
ENDBRANCH   1  12
BRANCH   3  13
ATOM     13  O   UNL     1       0.720   8.585  21.952  0.00  0.00    +0.000 OA
ATOM     14  C   UNL     1      -0.147   9.703  21.731  0.00  0.00    +0.000 C 
ENDBRANCH   3  13
BRANCH   7  15
ATOM     15  C   UNL     1       3.132   2.880  19.914  0.00  0.00    +0.000 C 
BRANCH  15  16
ATOM     16  S   UNL     1       3.619   2.860  18.168  0.00  0.00    +0.000 S 
BRANCH  16  17
ATOM     17  C   UNL     1       4.877   4.059  18.152  0.00  0.00    +0.000 A 
ATOM     18  N   UNL     1       5.891   4.074  18.999  0.00  0.00    +0.000 NA
ATOM     19  C   UNL     1       6.574   5.218  18.667  0.00  0.00    +0.000 A 
ATOM     20  C   UNL     1       7.709   5.811  19.231  0.00  0.00    +0.000 A 
ATOM     21  C   UNL     1       8.188   7.000  18.658  0.00  0.00    +0.000 A 
ATOM     22  C   UNL     1       7.554   7.578  17.550  0.00  0.00    +0.000 A 
ATOM     23  C   UNL     1       6.414   6.998  16.978  0.00  0.00    +0.000 A 
ATOM     24  C   UNL     1       5.969   5.828  17.582  0.00  0.00    +0.000 A 
ATOM     25  O   UNL     1       4.882   5.082  17.239  0.00  0.00    +0.000 OA
ENDBRANCH  16  17
ENDBRANCH  15  16
ENDBRANCH   7  15
TORSDOF 5
ENDMDL
MODEL 2
REMARK VINA RESULT:      -7.4      4.476      7.076
REMARK  Name = 
REMARK  7 active torsions:
REMARK  status: ('A' for Active; 'I' for Inactive)
REMARK    1  A    between atoms: C_1  and  O_2
REMARK    2  A    between atoms: O_2  and  C_3
REMARK    3  A    between atoms: C_5  and  O_6
REMARK    4  A    between atoms: O_6  and  C_7
REMARK    5  A    between atoms: C_11  and  C_13
REMARK    6  A    between atoms: C_13  and  S_14
REMARK    7  A    between atoms: S_14  and  C_15
REMARK                            x       y       z     vdW  Elec       q    Type
REMARK                         _______ _______ _______ _____ _____    ______ ____
ROOT
ATOM      1  C   UNL     1      10.216  11.535  19.590  0.00  0.00    +0.000 A 
ATOM      2  C   UNL     1       9.618  12.368  18.676  0.00  0.00    +0.000 A 
ATOM      3  C   UNL     1       8.639  11.778  17.923  0.00  0.00    +0.000 A 
ATOM      4  N   UNL     1       8.291  10.494  18.052  0.00  0.00    +0.000 NA
ATOM      5  C   UNL     1       8.953   9.759  18.938  0.00  0.00    +0.000 A 
ATOM      6  N   UNL     1       8.676   8.406  19.055  0.00  0.00    +0.000 N 
ATOM      7  C   UNL     1       7.964   7.676  18.125  0.00  0.00    +0.000 C 
ATOM      8  O   UNL     1       7.468   8.104  17.085  0.00  0.00    +0.000 OA
ATOM      9  N   UNL     1       9.898  10.236  19.755  0.00  0.00    +0.000 NA
ATOM     10  H   UNL     1       9.254   7.934  19.734  0.00  0.00    +0.000 HD
ENDROOT
BRANCH   1  12
ATOM     11  C   UNL     1      12.332  12.543  19.608  0.00  0.00    +0.000 C 
ATOM     12  O   UNL     1      11.210  12.102  20.366  0.00  0.00    +0.000 OA
ENDBRANCH   1  12
BRANCH   3  13
ATOM     13  O   UNL     1       7.992  12.550  16.984  0.00  0.00    +0.000 OA
ATOM     14  C   UNL     1       7.339  13.678  17.577  0.00  0.00    +0.000 C 
ENDBRANCH   3  13
BRANCH   7  15
ATOM     15  C   UNL     1       7.827   6.211  18.500  0.00  0.00    +0.000 C 
BRANCH  15  16
ATOM     16  S   UNL     1       6.750   5.317  17.350  0.00  0.00    +0.000 S 
BRANCH  16  17
ATOM     17  C   UNL     1       5.407   4.919  18.380  0.00  0.00    +0.000 A 
ATOM     18  N   UNL     1       5.245   3.740  18.955  0.00  0.00    +0.000 NA
ATOM     19  C   UNL     1       4.036   3.857  19.596  0.00  0.00    +0.000 A 
ATOM     20  C   UNL     1       3.292   2.932  20.338  0.00  0.00    +0.000 A 
ATOM     21  C   UNL     1       2.071   3.353  20.887  0.00  0.00    +0.000 A 
ATOM     22  C   UNL     1       1.606   4.662  20.704  0.00  0.00    +0.000 A 
ATOM     23  C   UNL     1       2.338   5.597  19.959  0.00  0.00    +0.000 A 
ATOM     24  C   UNL     1       3.535   5.136  19.426  0.00  0.00    +0.000 A 
ATOM     25  O   UNL     1       4.418   5.827  18.653  0.00  0.00    +0.000 OA
ENDBRANCH  16  17
ENDBRANCH  15  16
ENDBRANCH   7  15
TORSDOF 5
ENDMDL
MODEL 3
REMARK VINA RESULT:      -7.3      1.131      1.489
REMARK  Name = 
REMARK  7 active torsions:
REMARK  status: ('A' for Active; 'I' for Inactive)
REMARK    1  A    between atoms: C_1  and  O_2
REMARK    2  A    between atoms: O_2  and  C_3
REMARK    3  A    between atoms: C_5  and  O_6
REMARK    4  A    between atoms: O_6  and  C_7
REMARK    5  A    between atoms: C_11  and  C_13
REMARK    6  A    between atoms: C_13  and  S_14
REMARK    7  A    between atoms: S_14  and  C_15
REMARK                            x       y       z     vdW  Elec       q    Type
REMARK                         _______ _______ _______ _____ _____    ______ ____
ROOT
ATOM      1  C   UNL     1       2.013   8.643  18.315  0.00  0.00    +0.000 A 
ATOM      2  C   UNL     1       1.713   8.978  19.614  0.00  0.00    +0.000 A 
ATOM      3  C   UNL     1       1.618   7.914  20.469  0.00  0.00    +0.000 A 
ATOM      4  N   UNL     1       1.791   6.646  20.081  0.00  0.00    +0.000 NA
ATOM      5  C   UNL     1       2.041   6.420  18.797  0.00  0.00    +0.000 A 
ATOM      6  N   UNL     1       2.157   5.119  18.336  0.00  0.00    +0.000 N 
ATOM      7  C   UNL     1       1.748   4.006  19.043  0.00  0.00    +0.000 C 
ATOM      8  O   UNL     1       1.246   3.997  20.165  0.00  0.00    +0.000 OA
ATOM      9  N   UNL     1       2.196   7.381  17.880  0.00  0.00    +0.000 NA
ATOM     10  H   UNL     1       2.317   5.056  17.342  0.00  0.00    +0.000 HD
ENDROOT
BRANCH   1  12
ATOM     11  C   UNL     1       2.060  10.974  18.057  0.00  0.00    +0.000 C 
ATOM     12  O   UNL     1       2.115   9.698  17.426  0.00  0.00    +0.000 OA
ENDBRANCH   1  12
BRANCH   3  13
ATOM     13  O   UNL     1       1.320   8.170  21.789  0.00  0.00    +0.000 OA
ATOM     14  C   UNL     1       0.950   9.537  21.999  0.00  0.00    +0.000 C 
ENDBRANCH   3  13
BRANCH   7  15
ATOM     15  C   UNL     1       1.979   2.707  18.290  0.00  0.00    +0.000 C 
BRANCH  15  16
ATOM     16  S   UNL     1       3.591   1.977  18.680  0.00  0.00    +0.000 S 
BRANCH  16  17
ATOM     17  C   UNL     1       4.652   3.325  18.396  0.00  0.00    +0.000 A 
ATOM     18  N   UNL     1       4.750   3.954  17.238  0.00  0.00    +0.000 NA
ATOM     19  C   UNL     1       5.743   4.877  17.455  0.00  0.00    +0.000 A 
ATOM     20  C   UNL     1       6.340   5.809  16.597  0.00  0.00    +0.000 A 
ATOM     21  C   UNL     1       7.346   6.637  17.117  0.00  0.00    +0.000 A 
ATOM     22  C   UNL     1       7.744   6.542  18.457  0.00  0.00    +0.000 A 
ATOM     23  C   UNL     1       7.160   5.610  19.325  0.00  0.00    +0.000 A 
ATOM     24  C   UNL     1       6.175   4.805  18.768  0.00  0.00    +0.000 A 
ATOM     25  O   UNL     1       5.470   3.814  19.382  0.00  0.00    +0.000 OA
ENDBRANCH  16  17
ENDBRANCH  15  16
ENDBRANCH   7  15
TORSDOF 5
ENDMDL
MODEL 4
REMARK VINA RESULT:      -7.3      2.332      6.500
REMARK  Name = 
REMARK  7 active torsions:
REMARK  status: ('A' for Active; 'I' for Inactive)
REMARK    1  A    between atoms: C_1  and  O_2
REMARK    2  A    between atoms: O_2  and  C_3
REMARK    3  A    between atoms: C_5  and  O_6
REMARK    4  A    between atoms: O_6  and  C_7
REMARK    5  A    between atoms: C_11  and  C_13
REMARK    6  A    between atoms: C_13  and  S_14
REMARK    7  A    between atoms: S_14  and  C_15
REMARK                            x       y       z     vdW  Elec       q    Type
REMARK                         _______ _______ _______ _____ _____    ______ ____
ROOT
ATOM      1  C   UNL     1       6.881   5.859  16.430  0.00  0.00    +0.000 A 
ATOM      2  C   UNL     1       7.061   4.973  15.395  0.00  0.00    +0.000 A 
ATOM      3  C   UNL     1       6.029   4.094  15.211  0.00  0.00    +0.000 A 
ATOM      4  N   UNL     1       4.933   4.082  15.978  0.00  0.00    +0.000 NA
ATOM      5  C   UNL     1       4.867   4.953  16.977  0.00  0.00    +0.000 A 
ATOM      6  N   UNL     1       3.784   4.930  17.841  0.00  0.00    +0.000 N 
ATOM      7  C   UNL     1       2.888   3.884  17.934  0.00  0.00    +0.000 C 
ATOM      8  O   UNL     1       2.904   2.848  17.274  0.00  0.00    +0.000 OA
ATOM      9  N   UNL     1       5.795   5.884  17.227  0.00  0.00    +0.000 NA
ATOM     10  H   UNL     1       3.846   5.611  18.583  0.00  0.00    +0.000 HD
ENDROOT
BRANCH   1  12
ATOM     11  C   UNL     1       7.577   7.782  17.578  0.00  0.00    +0.000 C 
ATOM     12  O   UNL     1       7.908   6.761  16.641  0.00  0.00    +0.000 OA
ENDBRANCH   1  12
BRANCH   3  13
ATOM     13  O   UNL     1       6.136   3.175  14.191  0.00  0.00    +0.000 OA
ATOM     14  C   UNL     1       5.945   3.777  12.907  0.00  0.00    +0.000 C 
ENDBRANCH   3  13
BRANCH   7  15
ATOM     15  C   UNL     1       1.810   4.119  18.978  0.00  0.00    +0.000 C 
BRANCH  15  16
ATOM     16  S   UNL     1       2.447   5.012  20.419  0.00  0.00    +0.000 S 
BRANCH  16  17
ATOM     17  C   UNL     1       2.007   6.648  20.028  0.00  0.00    +0.000 A 
ATOM     18  N   UNL     1       2.246   7.215  18.859  0.00  0.00    +0.000 NA
ATOM     19  C   UNL     1       1.806   8.505  19.029  0.00  0.00    +0.000 A 
ATOM     20  C   UNL     1       1.832   9.609  18.169  0.00  0.00    +0.000 A 
ATOM     21  C   UNL     1       1.291  10.819  18.630  0.00  0.00    +0.000 A 
ATOM     22  C   UNL     1       0.735  10.924  19.912  0.00  0.00    +0.000 A 
ATOM     23  C   UNL     1       0.707   9.828  20.785  0.00  0.00    +0.000 A 
ATOM     24  C   UNL     1       1.261   8.653  20.292  0.00  0.00    +0.000 A 
ATOM     25  O   UNL     1       1.379   7.459  20.937  0.00  0.00    +0.000 OA
ENDBRANCH  16  17
ENDBRANCH  15  16
ENDBRANCH   7  15
TORSDOF 5
ENDMDL
MODEL 5
REMARK VINA RESULT:      -7.2      2.028      5.767
REMARK  Name = 
REMARK  7 active torsions:
REMARK  status: ('A' for Active; 'I' for Inactive)
REMARK    1  A    between atoms: C_1  and  O_2
REMARK    2  A    between atoms: O_2  and  C_3
REMARK    3  A    between atoms: C_5  and  O_6
REMARK    4  A    between atoms: O_6  and  C_7
REMARK    5  A    between atoms: C_11  and  C_13
REMARK    6  A    between atoms: C_13  and  S_14
REMARK    7  A    between atoms: S_14  and  C_15
REMARK                            x       y       z     vdW  Elec       q    Type
REMARK                         _______ _______ _______ _____ _____    ______ ____
ROOT
ATOM      1  C   UNL     1       7.453   6.599  18.139  0.00  0.00    +0.000 A 
ATOM      2  C   UNL     1       7.279   6.563  16.776  0.00  0.00    +0.000 A 
ATOM      3  C   UNL     1       6.318   5.689  16.347  0.00  0.00    +0.000 A 
ATOM      4  N   UNL     1       5.605   4.920  17.178  0.00  0.00    +0.000 NA
ATOM      5  C   UNL     1       5.871   4.999  18.476  0.00  0.00    +0.000 A 
ATOM      6  N   UNL     1       5.209   4.170  19.367  0.00  0.00    +0.000 N 
ATOM      7  C   UNL     1       4.490   3.051  18.998  0.00  0.00    +0.000 C 
ATOM      8  O   UNL     1       4.320   2.637  17.853  0.00  0.00    +0.000 OA
ATOM      9  N   UNL     1       6.759   5.844  19.012  0.00  0.00    +0.000 NA
ATOM     10  H   UNL     1       5.506   4.288  20.324  0.00  0.00    +0.000 HD
ENDROOT
BRANCH   1  12
ATOM     11  C   UNL     1       8.292   8.787  18.070  0.00  0.00    +0.000 C 
ATOM     12  O   UNL     1       8.419   7.473  18.603  0.00  0.00    +0.000 OA
ENDBRANCH   1  12
BRANCH   3  13
ATOM     13  O   UNL     1       6.084   5.597  14.993  0.00  0.00    +0.000 OA
ATOM     14  C   UNL     1       6.627   4.394  14.438  0.00  0.00    +0.000 C 
ENDBRANCH   3  13
BRANCH   7  15
ATOM     15  C   UNL     1       3.883   2.319  20.182  0.00  0.00    +0.000 C 
BRANCH  15  16
ATOM     16  S   UNL     1       2.094   2.582  20.294  0.00  0.00    +0.000 S 
BRANCH  16  17
ATOM     17  C   UNL     1       1.978   4.283  19.953  0.00  0.00    +0.000 A 
ATOM     18  N   UNL     1       2.207   4.812  18.763  0.00  0.00    +0.000 NA
ATOM     19  C   UNL     1       2.076   6.162  18.980  0.00  0.00    +0.000 A 
ATOM     20  C   UNL     1       2.247   7.254  18.121  0.00  0.00    +0.000 A 
ATOM     21  C   UNL     1       2.032   8.541  18.638  0.00  0.00    +0.000 A 
ATOM     22  C   UNL     1       1.653   8.733  19.974  0.00  0.00    +0.000 A 
ATOM     23  C   UNL     1       1.483   7.649  20.845  0.00  0.00    +0.000 A 
ATOM     24  C   UNL     1       1.714   6.394  20.295  0.00  0.00    +0.000 A 
ATOM     25  O   UNL     1       1.640   5.188  20.924  0.00  0.00    +0.000 OA
ENDBRANCH  16  17
ENDBRANCH  15  16
ENDBRANCH   7  15
TORSDOF 5
ENDMDL
MODEL 6
REMARK VINA RESULT:      -7.1      2.052      3.344
REMARK  Name = 
REMARK  7 active torsions:
REMARK  status: ('A' for Active; 'I' for Inactive)
REMARK    1  A    between atoms: C_1  and  O_2
REMARK    2  A    between atoms: O_2  and  C_3
REMARK    3  A    between atoms: C_5  and  O_6
REMARK    4  A    between atoms: O_6  and  C_7
REMARK    5  A    between atoms: C_11  and  C_13
REMARK    6  A    between atoms: C_13  and  S_14
REMARK    7  A    between atoms: S_14  and  C_15
REMARK                            x       y       z     vdW  Elec       q    Type
REMARK                         _______ _______ _______ _____ _____    ______ ____
ROOT
ATOM      1  C   UNL     1       0.185  10.064  22.140  0.00  0.00    +0.000 A 
ATOM      2  C   UNL     1       0.294  10.885  21.043  0.00  0.00    +0.000 A 
ATOM      3  C   UNL     1       0.808  10.280  19.929  0.00  0.00    +0.000 A 
ATOM      4  N   UNL     1       1.187   8.998  19.900  0.00  0.00    +0.000 NA
ATOM      5  C   UNL     1       1.078   8.296  21.022  0.00  0.00    +0.000 A 
ATOM      6  N   UNL     1       1.526   6.985  21.060  0.00  0.00    +0.000 N 
ATOM      7  C   UNL     1       2.347   6.417  20.108  0.00  0.00    +0.000 C 
ATOM      8  O   UNL     1       2.786   6.967  19.100  0.00  0.00    +0.000 OA
ATOM      9  N   UNL     1       0.554   8.769  22.158  0.00  0.00    +0.000 NA
ATOM     10  H   UNL     1       1.425   6.552  21.966  0.00  0.00    +0.000 HD
ENDROOT
BRANCH   1  12
ATOM     11  C   UNL     1      -1.284  11.670  23.013  0.00  0.00    +0.000 C 
ATOM     12  O   UNL     1      -0.330  10.647  23.283  0.00  0.00    +0.000 OA
ENDBRANCH   1  12
BRANCH   3  13
ATOM     13  O   UNL     1       0.946  11.038  18.787  0.00  0.00    +0.000 OA
ATOM     14  C   UNL     1       1.105  12.429  19.085  0.00  0.00    +0.000 C 
ENDBRANCH   3  13
BRANCH   7  15
ATOM     15  C   UNL     1       2.695   4.970  20.411  0.00  0.00    +0.000 C 
BRANCH  15  16
ATOM     16  S   UNL     1       2.282   3.873  19.029  0.00  0.00    +0.000 S 
BRANCH  16  17
ATOM     17  C   UNL     1       3.694   4.040  18.029  0.00  0.00    +0.000 A 
ATOM     18  N   UNL     1       4.911   4.246  18.502  0.00  0.00    +0.000 NA
ATOM     19  C   UNL     1       5.677   4.388  17.371  0.00  0.00    +0.000 A 
ATOM     20  C   UNL     1       7.038   4.674  17.209  0.00  0.00    +0.000 A 
ATOM     21  C   UNL     1       7.547   4.751  15.903  0.00  0.00    +0.000 A 
ATOM     22  C   UNL     1       6.721   4.545  14.790  0.00  0.00    +0.000 A 
ATOM     23  C   UNL     1       5.357   4.263  14.937  0.00  0.00    +0.000 A 
ATOM     24  C   UNL     1       4.893   4.205  16.245  0.00  0.00    +0.000 A 
ATOM     25  O   UNL     1       3.618   3.971  16.662  0.00  0.00    +0.000 OA
ENDBRANCH  16  17
ENDBRANCH  15  16
ENDBRANCH   7  15
TORSDOF 5
ENDMDL
MODEL 7
REMARK VINA RESULT:      -7.1      2.235      5.673
REMARK  Name = 
REMARK  7 active torsions:
REMARK  status: ('A' for Active; 'I' for Inactive)
REMARK    1  A    between atoms: C_1  and  O_2
REMARK    2  A    between atoms: O_2  and  C_3
REMARK    3  A    between atoms: C_5  and  O_6
REMARK    4  A    between atoms: O_6  and  C_7
REMARK    5  A    between atoms: C_11  and  C_13
REMARK    6  A    between atoms: C_13  and  S_14
REMARK    7  A    between atoms: S_14  and  C_15
REMARK                            x       y       z     vdW  Elec       q    Type
REMARK                         _______ _______ _______ _____ _____    ______ ____
ROOT
ATOM      1  C   UNL     1       7.221   6.143  18.168  0.00  0.00    +0.000 A 
ATOM      2  C   UNL     1       7.099   5.893  16.822  0.00  0.00    +0.000 A 
ATOM      3  C   UNL     1       6.155   4.958  16.500  0.00  0.00    +0.000 A 
ATOM      4  N   UNL     1       5.411   4.323  17.413  0.00  0.00    +0.000 NA
ATOM      5  C   UNL     1       5.629   4.605  18.693  0.00  0.00    +0.000 A 
ATOM      6  N   UNL     1       4.934   3.921  19.677  0.00  0.00    +0.000 N 
ATOM      7  C   UNL     1       4.230   2.754  19.460  0.00  0.00    +0.000 C 
ATOM      8  O   UNL     1       4.102   2.166  18.389  0.00  0.00    +0.000 OA
ATOM      9  N   UNL     1       6.495   5.529  19.123  0.00  0.00    +0.000 NA
ATOM     10  H   UNL     1       5.195   4.189  20.614  0.00  0.00    +0.000 HD
ENDROOT
BRANCH   1  12
ATOM     11  C   UNL     1       8.027   8.319  17.831  0.00  0.00    +0.000 C 
ATOM     12  O   UNL     1       8.170   7.084  18.526  0.00  0.00    +0.000 OA
ENDBRANCH   1  12
BRANCH   3  13
ATOM     13  O   UNL     1       5.972   4.654  15.169  0.00  0.00    +0.000 OA
ATOM     14  C   UNL     1       7.162   4.869  14.404  0.00  0.00    +0.000 C 
ENDBRANCH   3  13
BRANCH   7  15
ATOM     15  C   UNL     1       3.579   2.212  20.721  0.00  0.00    +0.000 C 
BRANCH  15  16
ATOM     16  S   UNL     1       1.849   2.730  20.865  0.00  0.00    +0.000 S 
BRANCH  16  17
ATOM     17  C   UNL     1       1.937   4.373  20.303  0.00  0.00    +0.000 A 
ATOM     18  N   UNL     1       1.775   5.428  21.082  0.00  0.00    +0.000 NA
ATOM     19  C   UNL     1       1.850   6.487  20.212  0.00  0.00    +0.000 A 
ATOM     20  C   UNL     1       1.706   7.864  20.421  0.00  0.00    +0.000 A 
ATOM     21  C   UNL     1       1.847   8.719  19.317  0.00  0.00    +0.000 A 
ATOM     22  C   UNL     1       2.128   8.214  18.040  0.00  0.00    +0.000 A 
ATOM     23  C   UNL     1       2.270   6.839  17.816  0.00  0.00    +0.000 A 
ATOM     24  C   UNL     1       2.114   6.028  18.934  0.00  0.00    +0.000 A 
ATOM     25  O   UNL     1       2.180   4.669  18.987  0.00  0.00    +0.000 OA
ENDBRANCH  16  17
ENDBRANCH  15  16
ENDBRANCH   7  15
TORSDOF 5
ENDMDL
MODEL 8
REMARK VINA RESULT:      -7.1      2.246      5.958
REMARK  Name = 
REMARK  7 active torsions:
REMARK  status: ('A' for Active; 'I' for Inactive)
REMARK    1  A    between atoms: C_1  and  O_2
REMARK    2  A    between atoms: O_2  and  C_3
REMARK    3  A    between atoms: C_5  and  O_6
REMARK    4  A    between atoms: O_6  and  C_7
REMARK    5  A    between atoms: C_11  and  C_13
REMARK    6  A    between atoms: C_13  and  S_14
REMARK    7  A    between atoms: S_14  and  C_15
REMARK                            x       y       z     vdW  Elec       q    Type
REMARK                         _______ _______ _______ _____ _____    ______ ____
ROOT
ATOM      1  C   UNL     1       6.016   4.353  14.799  0.00  0.00    +0.000 A 
ATOM      2  C   UNL     1       6.816   5.445  15.034  0.00  0.00    +0.000 A 
ATOM      3  C   UNL     1       7.002   5.739  16.357  0.00  0.00    +0.000 A 
ATOM      4  N   UNL     1       6.448   5.035  17.349  0.00  0.00    +0.000 NA
ATOM      5  C   UNL     1       5.660   4.018  17.021  0.00  0.00    +0.000 A 
ATOM      6  N   UNL     1       5.006   3.305  18.013  0.00  0.00    +0.000 N 
ATOM      7  C   UNL     1       4.871   3.735  19.317  0.00  0.00    +0.000 C 
ATOM      8  O   UNL     1       5.309   4.781  19.790  0.00  0.00    +0.000 OA
ATOM      9  N   UNL     1       5.437   3.614  15.766  0.00  0.00    +0.000 NA
ATOM     10  H   UNL     1       4.409   2.574  17.656  0.00  0.00    +0.000 HD
ENDROOT
BRANCH   1  12
ATOM     11  C   UNL     1       6.974   4.174  12.666  0.00  0.00    +0.000 C 
ATOM     12  O   UNL     1       5.807   4.030  13.471  0.00  0.00    +0.000 OA
ENDBRANCH   1  12
BRANCH   3  13
ATOM     13  O   UNL     1       7.795   6.821  16.674  0.00  0.00    +0.000 OA
ATOM     14  C   UNL     1       7.829   7.063  18.084  0.00  0.00    +0.000 C 
ENDBRANCH   3  13
BRANCH   7  15
ATOM     15  C   UNL     1       4.093   2.760  20.185  0.00  0.00    +0.000 C 
BRANCH  15  16
ATOM     16  S   UNL     1       2.303   2.963  19.990  0.00  0.00    +0.000 S 
BRANCH  16  17
ATOM     17  C   UNL     1       2.177   4.683  19.770  0.00  0.00    +0.000 A 
ATOM     18  N   UNL     1       1.866   5.528  20.738  0.00  0.00    +0.000 NA
ATOM     19  C   UNL     1       1.809   6.742  20.100  0.00  0.00    +0.000 A 
ATOM     20  C   UNL     1       1.479   8.018  20.574  0.00  0.00    +0.000 A 
ATOM     21  C   UNL     1       1.516   9.089  19.668  0.00  0.00    +0.000 A 
ATOM     22  C   UNL     1       1.876   8.894  18.327  0.00  0.00    +0.000 A 
ATOM     23  C   UNL     1       2.204   7.623  17.839  0.00  0.00    +0.000 A 
ATOM     24  C   UNL     1       2.146   6.590  18.767  0.00  0.00    +0.000 A 
ATOM     25  O   UNL     1       2.393   5.268  18.550  0.00  0.00    +0.000 OA
ENDBRANCH  16  17
ENDBRANCH  15  16
ENDBRANCH   7  15
TORSDOF 5
ENDMDL
MODEL 9
REMARK VINA RESULT:      -7.0      3.451      7.841
REMARK  Name = 
REMARK  7 active torsions:
REMARK  status: ('A' for Active; 'I' for Inactive)
REMARK    1  A    between atoms: C_1  and  O_2
REMARK    2  A    between atoms: O_2  and  C_3
REMARK    3  A    between atoms: C_5  and  O_6
REMARK    4  A    between atoms: O_6  and  C_7
REMARK    5  A    between atoms: C_11  and  C_13
REMARK    6  A    between atoms: C_13  and  S_14
REMARK    7  A    between atoms: S_14  and  C_15
REMARK                            x       y       z     vdW  Elec       q    Type
REMARK                         _______ _______ _______ _____ _____    ______ ____
ROOT
ATOM      1  C   UNL     1       5.490   5.413  16.078  0.00  0.00    +0.000 A 
ATOM      2  C   UNL     1       5.303   4.110  16.473  0.00  0.00    +0.000 A 
ATOM      3  C   UNL     1       4.304   3.930  17.390  0.00  0.00    +0.000 A 
ATOM      4  N   UNL     1       3.568   4.935  17.877  0.00  0.00    +0.000 NA
ATOM      5  C   UNL     1       3.848   6.165  17.462  0.00  0.00    +0.000 A 
ATOM      6  N   UNL     1       3.161   7.244  17.993  0.00  0.00    +0.000 N 
ATOM      7  C   UNL     1       2.394   7.189  19.139  0.00  0.00    +0.000 C 
ATOM      8  O   UNL     1       2.198   6.198  19.839  0.00  0.00    +0.000 OA
ATOM      9  N   UNL     1       4.774   6.456  16.541  0.00  0.00    +0.000 NA
ATOM     10  H   UNL     1       3.470   8.135  17.634  0.00  0.00    +0.000 HD
ENDROOT
BRANCH   1  12
ATOM     11  C   UNL     1       6.671   4.538  14.251  0.00  0.00    +0.000 C 
ATOM     12  O   UNL     1       6.494   5.627  15.152  0.00  0.00    +0.000 OA
ENDBRANCH   1  12
BRANCH   3  13
ATOM     13  O   UNL     1       4.055   2.650  17.834  0.00  0.00    +0.000 OA
ATOM     14  C   UNL     1       3.924   2.595  19.258  0.00  0.00    +0.000 C 
ENDBRANCH   3  13
BRANCH   7  15
ATOM     15  C   UNL     1       1.769   8.525  19.500  0.00  0.00    +0.000 C 
BRANCH  15  16
ATOM     16  S   UNL     1       1.715   9.650  18.080  0.00  0.00    +0.000 S 
BRANCH  16  17
ATOM     17  C   UNL     1       0.069  10.207  18.150  0.00  0.00    +0.000 A 
ATOM     18  N   UNL     1      -0.348  11.173  18.949  0.00  0.00    +0.000 NA
ATOM     19  C   UNL     1      -1.701  11.218  18.724  0.00  0.00    +0.000 A 
ATOM     20  C   UNL     1      -2.708  11.998  19.305  0.00  0.00    +0.000 A 
ATOM     21  C   UNL     1      -4.025  11.821  18.854  0.00  0.00    +0.000 A 
ATOM     22  C   UNL     1      -4.330  10.893  17.849  0.00  0.00    +0.000 A 
ATOM     23  C   UNL     1      -3.333  10.102  17.262  0.00  0.00    +0.000 A 
ATOM     24  C   UNL     1      -2.045  10.303  17.744  0.00  0.00    +0.000 A 
ATOM     25  O   UNL     1      -0.909   9.656  17.363  0.00  0.00    +0.000 OA
ENDBRANCH  16  17
ENDBRANCH  15  16
ENDBRANCH   7  15
TORSDOF 5
ENDMDL
