MODEL 1
REMARK VINA RESULT:      -7.9      0.000      0.000
REMARK  Name = 
REMARK  7 active torsions:
REMARK  status: ('A' for Active; 'I' for Inactive)
REMARK    1  A    between atoms: C_1  and  C_2
REMARK    2  A    between atoms: C_2  and  C_3
REMARK    3  A    between atoms: C_3  and  C_4
REMARK    4  A    between atoms: C_3  and  N_5
REMARK    5  A    between atoms: N_5  and  S_6
REMARK    6  A    between atoms: S_6  and  C_9
REMARK    7  A    between atoms: C_13  and  N_14
REMARK                            x       y       z     vdW  Elec       q    Type
REMARK                         _______ _______ _______ _____ _____    ______ ____
ROOT
ATOM      1  C   UNL     1       4.632   5.826  17.338  0.00  0.00    +0.000 A 
ATOM      2  C   UNL     1       3.937   4.625  17.181  0.00  0.00    +0.000 A 
ATOM      3  C   UNL     1       2.634   4.530  17.654  0.00  0.00    +0.000 A 
ATOM      4  C   UNL     1       2.029   5.630  18.273  0.00  0.00    +0.000 A 
ATOM      5  C   UNL     1       2.704   6.855  18.418  0.00  0.00    +0.000 A 
ATOM      6  C   UNL     1       4.020   6.936  17.937  0.00  0.00    +0.000 A 
ENDROOT
BRANCH   5   7
ATOM      7  N   UNL     1       2.045   7.980  18.990  0.00  0.00    +0.000 N 
ATOM      8  C   UNL     1       1.533   8.039  20.269  0.00  0.00    +0.000 C 
ATOM      9  O   UNL     1       1.608   7.233  21.181  0.00  0.00    +0.000 OA
ATOM     10  N   UNL     1       0.911   9.257  20.439  0.00  0.00    +0.000 N 
ATOM     11  C   UNL     1       0.878  10.023  19.227  0.00  0.00    +0.000 C 
ATOM     12  C   UNL     1      -0.509  10.103  18.615  0.00  0.00    +0.000 C 
ATOM     13  C   UNL     1      -0.775  11.588  18.475  0.00  0.00    +0.000 C 
ATOM     14  O   UNL     1       0.477  12.265  18.571  0.00  0.00    +0.000 OA
ATOM     15  C   UNL     1       1.360  11.454  19.356  0.00  0.00    +0.000 C 
ATOM     16  C   UNL     1       1.802   9.177  18.346  0.00  0.00    +0.000 C 
ATOM     17  O   UNL     1       2.144   9.516  17.220  0.00  0.00    +0.000 OA
ATOM     18  H   UNL     1       0.434   9.474  21.307  0.00  0.00    +0.000 HD
ENDBRANCH   5   7
BRANCH   1  19
ATOM     19  S   UNL     1       6.294   5.946  16.699  0.00  0.00    +0.000 S 
ATOM     20  O   UNL     1       7.070   4.835  17.200  0.00  0.00    +0.000 OA
ATOM     21  O   UNL     1       6.692   7.322  16.901  0.00  0.00    +0.000 OA
BRANCH  19  22
ATOM     22  N   UNL     1       6.076   5.739  15.034  0.00  0.00    +0.000 NA
ATOM     23  H   UNL     1       5.112   5.889  14.742  0.00  0.00    +0.000 HD
BRANCH  22  24
ATOM     24  C   UNL     1       6.786   4.650  14.324  0.00  0.00    +0.000 C 
ATOM     25  C   UNL     1       7.804   5.308  13.387  0.00  0.00    +0.000 C 
BRANCH  24  27
ATOM     26  C   UNL     1       6.283   3.344  12.184  0.00  0.00    +0.000 C 
ATOM     27  C   UNL     1       5.803   3.752  13.568  0.00  0.00    +0.000 C 
ENDBRANCH  24  27
ENDBRANCH  22  24
ENDBRANCH  19  22
ENDBRANCH   1  19
TORSDOF 5
ENDMDL
MODEL 2
REMARK VINA RESULT:      -7.8      1.521      2.438
REMARK  Name = 
REMARK  7 active torsions:
REMARK  status: ('A' for Active; 'I' for Inactive)
REMARK    1  A    between atoms: C_1  and  C_2
REMARK    2  A    between atoms: C_2  and  C_3
REMARK    3  A    between atoms: C_3  and  C_4
REMARK    4  A    between atoms: C_3  and  N_5
REMARK    5  A    between atoms: N_5  and  S_6
REMARK    6  A    between atoms: S_6  and  C_9
REMARK    7  A    between atoms: C_13  and  N_14
REMARK                            x       y       z     vdW  Elec       q    Type
REMARK                         _______ _______ _______ _____ _____    ______ ____
ROOT
ATOM      1  C   UNL     1       4.947   5.574  17.213  0.00  0.00    +0.000 A 
ATOM      2  C   UNL     1       4.369   4.328  16.964  0.00  0.00    +0.000 A 
ATOM      3  C   UNL     1       3.077   4.078  17.410  0.00  0.00    +0.000 A 
ATOM      4  C   UNL     1       2.367   5.071  18.095  0.00  0.00    +0.000 A 
ATOM      5  C   UNL     1       2.921   6.341  18.333  0.00  0.00    +0.000 A 
ATOM      6  C   UNL     1       4.228   6.578  17.878  0.00  0.00    +0.000 A 
ENDROOT
BRANCH   5   7
ATOM      7  N   UNL     1       2.155   7.356  18.973  0.00  0.00    +0.000 N 
ATOM      8  C   UNL     1       1.907   8.611  18.459  0.00  0.00    +0.000 C 
ATOM      9  O   UNL     1       2.182   9.079  17.367  0.00  0.00    +0.000 OA
ATOM     10  N   UNL     1       1.193   9.335  19.389  0.00  0.00    +0.000 N 
ATOM     11  C   UNL     1       1.036   8.626  20.625  0.00  0.00    +0.000 C 
ATOM     12  C   UNL     1       1.881   9.198  21.748  0.00  0.00    +0.000 C 
ATOM     13  C   UNL     1       0.888   9.491  22.855  0.00  0.00    +0.000 C 
ATOM     14  O   UNL     1      -0.304   8.760  22.576  0.00  0.00    +0.000 OA
ATOM     15  C   UNL     1      -0.382   8.565  21.157  0.00  0.00    +0.000 C 
ATOM     16  C   UNL     1       1.559   7.246  20.214  0.00  0.00    +0.000 C 
ATOM     17  O   UNL     1       1.522   6.271  20.954  0.00  0.00    +0.000 OA
ATOM     18  H   UNL     1       0.949  10.304  19.210  0.00  0.00    +0.000 HD
ENDBRANCH   5   7
BRANCH   1  19
ATOM     19  S   UNL     1       6.594   5.894  16.608  0.00  0.00    +0.000 S 
ATOM     20  O   UNL     1       7.463   4.816  17.022  0.00  0.00    +0.000 OA
ATOM     21  O   UNL     1       6.869   7.278  16.931  0.00  0.00    +0.000 OA
BRANCH  19  22
ATOM     22  N   UNL     1       6.404   5.814  14.928  0.00  0.00    +0.000 NA
ATOM     23  H   UNL     1       5.473   6.094  14.625  0.00  0.00    +0.000 HD
BRANCH  22  24
ATOM     24  C   UNL     1       7.003   4.693  14.168  0.00  0.00    +0.000 C 
ATOM     25  C   UNL     1       7.840   5.305  13.041  0.00  0.00    +0.000 C 
BRANCH  24  27
ATOM     26  C   UNL     1       6.077   3.404  12.163  0.00  0.00    +0.000 C 
ATOM     27  C   UNL     1       5.922   3.747  13.636  0.00  0.00    +0.000 C 
ENDBRANCH  24  27
ENDBRANCH  22  24
ENDBRANCH  19  22
ENDBRANCH   1  19
TORSDOF 5
ENDMDL
MODEL 3
REMARK VINA RESULT:      -7.6      3.403      8.559
REMARK  Name = 
REMARK  7 active torsions:
REMARK  status: ('A' for Active; 'I' for Inactive)
REMARK    1  A    between atoms: C_1  and  C_2
REMARK    2  A    between atoms: C_2  and  C_3
REMARK    3  A    between atoms: C_3  and  C_4
REMARK    4  A    between atoms: C_3  and  N_5
REMARK    5  A    between atoms: N_5  and  S_6
REMARK    6  A    between atoms: S_6  and  C_9
REMARK    7  A    between atoms: C_13  and  N_14
REMARK                            x       y       z     vdW  Elec       q    Type
REMARK                         _______ _______ _______ _____ _____    ______ ____
ROOT
ATOM      1  C   UNL     1       1.030   8.943  20.260  0.00  0.00    +0.000 A 
ATOM      2  C   UNL     1       0.783   9.802  19.187  0.00  0.00    +0.000 A 
ATOM      3  C   UNL     1       1.358   9.527  17.953  0.00  0.00    +0.000 A 
ATOM      4  C   UNL     1       2.169   8.397  17.792  0.00  0.00    +0.000 A 
ATOM      5  C   UNL     1       2.409   7.507  18.853  0.00  0.00    +0.000 A 
ATOM      6  C   UNL     1       1.822   7.798  20.095  0.00  0.00    +0.000 A 
ENDROOT
BRANCH   5   7
ATOM      7  N   UNL     1       3.182   6.329  18.648  0.00  0.00    +0.000 N 
ATOM      8  C   UNL     1       4.346   6.256  17.914  0.00  0.00    +0.000 C 
ATOM      9  O   UNL     1       4.997   7.143  17.386  0.00  0.00    +0.000 OA
ATOM     10  N   UNL     1       4.767   4.944  17.883  0.00  0.00    +0.000 N 
ATOM     11  C   UNL     1       3.826   4.058  18.503  0.00  0.00    +0.000 C 
ATOM     12  C   UNL     1       3.083   3.190  17.504  0.00  0.00    +0.000 C 
ATOM     13  C   UNL     1       3.332   1.772  17.977  0.00  0.00    +0.000 C 
ATOM     14  O   UNL     1       3.780   1.837  19.330  0.00  0.00    +0.000 OA
ATOM     15  C   UNL     1       4.415   3.107  19.526  0.00  0.00    +0.000 C 
ATOM     16  C   UNL     1       2.873   5.075  19.139  0.00  0.00    +0.000 C 
ATOM     17  O   UNL     1       1.944   4.753  19.868  0.00  0.00    +0.000 OA
ATOM     18  H   UNL     1       5.591   4.680  17.352  0.00  0.00    +0.000 HD
ENDBRANCH   5   7
BRANCH   1  19
ATOM     19  S   UNL     1       0.260   9.289  21.832  0.00  0.00    +0.000 S 
ATOM     20  O   UNL     1       1.286   9.622  22.793  0.00  0.00    +0.000 OA
ATOM     21  O   UNL     1      -0.686   8.215  22.049  0.00  0.00    +0.000 OA
BRANCH  19  22
ATOM     22  N   UNL     1      -0.647  10.681  21.513  0.00  0.00    +0.000 NA
ATOM     23  H   UNL     1      -0.578  10.980  20.542  0.00  0.00    +0.000 HD
BRANCH  22  24
ATOM     24  C   UNL     1      -0.694  11.778  22.507  0.00  0.00    +0.000 C 
ATOM     25  C   UNL     1      -2.099  11.774  23.119  0.00  0.00    +0.000 C 
BRANCH  24  27
ATOM     26  C   UNL     1       0.896  13.086  20.991  0.00  0.00    +0.000 C 
ATOM     27  C   UNL     1      -0.349  13.123  21.863  0.00  0.00    +0.000 C 
ENDBRANCH  24  27
ENDBRANCH  22  24
ENDBRANCH  19  22
ENDBRANCH   1  19
TORSDOF 5
ENDMDL
MODEL 4
REMARK VINA RESULT:      -7.5      3.019      8.540
REMARK  Name = 
REMARK  7 active torsions:
REMARK  status: ('A' for Active; 'I' for Inactive)
REMARK    1  A    between atoms: C_1  and  C_2
REMARK    2  A    between atoms: C_2  and  C_3
REMARK    3  A    between atoms: C_3  and  C_4
REMARK    4  A    between atoms: C_3  and  N_5
REMARK    5  A    between atoms: N_5  and  S_6
REMARK    6  A    between atoms: S_6  and  C_9
REMARK    7  A    between atoms: C_13  and  N_14
REMARK                            x       y       z     vdW  Elec       q    Type
REMARK                         _______ _______ _______ _____ _____    ______ ____
ROOT
ATOM      1  C   UNL     1       1.175   9.041  20.305  0.00  0.00    +0.000 A 
ATOM      2  C   UNL     1       0.702   9.792  19.227  0.00  0.00    +0.000 A 
ATOM      3  C   UNL     1       1.085   9.442  17.937  0.00  0.00    +0.000 A 
ATOM      4  C   UNL     1       1.928   8.344  17.729  0.00  0.00    +0.000 A 
ATOM      5  C   UNL     1       2.394   7.560  18.799  0.00  0.00    +0.000 A 
ATOM      6  C   UNL     1       2.001   7.927  20.096  0.00  0.00    +0.000 A 
ENDROOT
BRANCH   5   7
ATOM      7  N   UNL     1       3.196   6.410  18.557  0.00  0.00    +0.000 N 
ATOM      8  C   UNL     1       2.969   5.154  19.079  0.00  0.00    +0.000 C 
ATOM      9  O   UNL     1       2.034   4.739  19.744  0.00  0.00    +0.000 OA
ATOM     10  N   UNL     1       3.991   4.319  18.681  0.00  0.00    +0.000 N 
ATOM     11  C   UNL     1       5.017   5.020  17.966  0.00  0.00    +0.000 C 
ATOM     12  C   UNL     1       6.296   5.176  18.769  0.00  0.00    +0.000 C 
ATOM     13  C   UNL     1       7.372   4.578  17.885  0.00  0.00    +0.000 C 
ATOM     14  O   UNL     1       6.853   4.501  16.559  0.00  0.00    +0.000 OA
ATOM     15  C   UNL     1       5.425   4.396  16.647  0.00  0.00    +0.000 C 
ATOM     16  C   UNL     1       4.337   6.380  17.778  0.00  0.00    +0.000 C 
ATOM     17  O   UNL     1       4.830   7.286  17.118  0.00  0.00    +0.000 OA
ATOM     18  H   UNL     1       4.023   3.357  19.000  0.00  0.00    +0.000 HD
ENDBRANCH   5   7
BRANCH   1  19
ATOM     19  S   UNL     1       0.653   9.481  21.953  0.00  0.00    +0.000 S 
ATOM     20  O   UNL     1       1.784   9.378  22.846  0.00  0.00    +0.000 OA
ATOM     21  O   UNL     1      -0.581   8.758  22.179  0.00  0.00    +0.000 OA
BRANCH  19  22
ATOM     22  N   UNL     1       0.240  11.114  21.797  0.00  0.00    +0.000 NA
ATOM     23  H   UNL     1       0.876  11.729  22.302  0.00  0.00    +0.000 HD
BRANCH  22  24
ATOM     24  C   UNL     1      -1.183  11.524  21.820  0.00  0.00    +0.000 C 
ATOM     25  C   UNL     1      -1.394  12.497  20.656  0.00  0.00    +0.000 C 
BRANCH  24  27
ATOM     26  C   UNL     1      -3.054  12.241  23.409  0.00  0.00    +0.000 C 
ATOM     27  C   UNL     1      -1.556  12.148  23.168  0.00  0.00    +0.000 C 
ENDBRANCH  24  27
ENDBRANCH  22  24
ENDBRANCH  19  22
ENDBRANCH   1  19
TORSDOF 5
ENDMDL
MODEL 5
REMARK VINA RESULT:      -7.4      2.143      2.477
REMARK  Name = 
REMARK  7 active torsions:
REMARK  status: ('A' for Active; 'I' for Inactive)
REMARK    1  A    between atoms: C_1  and  C_2
REMARK    2  A    between atoms: C_2  and  C_3
REMARK    3  A    between atoms: C_3  and  C_4
REMARK    4  A    between atoms: C_3  and  N_5
REMARK    5  A    between atoms: N_5  and  S_6
REMARK    6  A    between atoms: S_6  and  C_9
REMARK    7  A    between atoms: C_13  and  N_14
REMARK                            x       y       z     vdW  Elec       q    Type
REMARK                         _______ _______ _______ _____ _____    ______ ____
ROOT
ATOM      1  C   UNL     1       4.279   5.938  17.089  0.00  0.00    +0.000 A 
ATOM      2  C   UNL     1       4.055   4.682  17.655  0.00  0.00    +0.000 A 
ATOM      3  C   UNL     1       3.190   4.570  18.736  0.00  0.00    +0.000 A 
ATOM      4  C   UNL     1       2.548   5.706  19.242  0.00  0.00    +0.000 A 
ATOM      5  C   UNL     1       2.740   6.976  18.670  0.00  0.00    +0.000 A 
ATOM      6  C   UNL     1       3.619   7.074  17.579  0.00  0.00    +0.000 A 
ENDROOT
BRANCH   5   7
ATOM      7  N   UNL     1       2.026   8.105  19.159  0.00  0.00    +0.000 N 
ATOM      8  C   UNL     1       1.483   8.221  20.421  0.00  0.00    +0.000 C 
ATOM      9  O   UNL     1       1.568   7.475  21.382  0.00  0.00    +0.000 OA
ATOM     10  N   UNL     1       0.809   9.420  20.503  0.00  0.00    +0.000 N 
ATOM     11  C   UNL     1       0.773  10.110  19.247  0.00  0.00    +0.000 C 
ATOM     12  C   UNL     1      -0.601  10.096  18.603  0.00  0.00    +0.000 C 
ATOM     13  C   UNL     1      -0.922  11.558  18.367  0.00  0.00    +0.000 C 
ATOM     14  O   UNL     1       0.300  12.291  18.447  0.00  0.00    +0.000 OA
ATOM     15  C   UNL     1       1.197  11.565  19.298  0.00  0.00    +0.000 C 
ATOM     16  C   UNL     1       1.750   9.251  18.437  0.00  0.00    +0.000 C 
ATOM     17  O   UNL     1       2.104   9.535  17.300  0.00  0.00    +0.000 OA
ATOM     18  H   UNL     1       0.304   9.670  21.347  0.00  0.00    +0.000 HD
ENDBRANCH   5   7
BRANCH   1  19
ATOM     19  S   UNL     1       5.368   6.065  15.681  0.00  0.00    +0.000 S 
ATOM     20  O   UNL     1       5.019   7.245  14.923  0.00  0.00    +0.000 OA
ATOM     21  O   UNL     1       5.397   4.745  15.089  0.00  0.00    +0.000 OA
BRANCH  19  22
ATOM     22  N   UNL     1       6.882   6.314  16.393  0.00  0.00    +0.000 NA
ATOM     23  H   UNL     1       7.530   5.548  16.218  0.00  0.00    +0.000 HD
BRANCH  22  24
ATOM     24  C   UNL     1       6.975   6.922  17.741  0.00  0.00    +0.000 C 
ATOM     25  C   UNL     1       7.781   8.218  17.599  0.00  0.00    +0.000 C 
BRANCH  24  27
ATOM     26  C   UNL     1       7.809   4.548  18.195  0.00  0.00    +0.000 C 
ATOM     27  C   UNL     1       7.613   5.953  18.741  0.00  0.00    +0.000 C 
ENDBRANCH  24  27
ENDBRANCH  22  24
ENDBRANCH  19  22
ENDBRANCH   1  19
TORSDOF 5
ENDMDL
MODEL 6
REMARK VINA RESULT:      -7.4      3.116      8.421
REMARK  Name = 
REMARK  7 active torsions:
REMARK  status: ('A' for Active; 'I' for Inactive)
REMARK    1  A    between atoms: C_1  and  C_2
REMARK    2  A    between atoms: C_2  and  C_3
REMARK    3  A    between atoms: C_3  and  C_4
REMARK    4  A    between atoms: C_3  and  N_5
REMARK    5  A    between atoms: N_5  and  S_6
REMARK    6  A    between atoms: S_6  and  C_9
REMARK    7  A    between atoms: C_13  and  N_14
REMARK                            x       y       z     vdW  Elec       q    Type
REMARK                         _______ _______ _______ _____ _____    ______ ____
ROOT
ATOM      1  C   UNL     1       1.038   8.884  20.259  0.00  0.00    +0.000 A 
ATOM      2  C   UNL     1       0.740   9.684  19.154  0.00  0.00    +0.000 A 
ATOM      3  C   UNL     1       1.336   9.402  17.931  0.00  0.00    +0.000 A 
ATOM      4  C   UNL     1       2.220   8.322  17.814  0.00  0.00    +0.000 A 
ATOM      5  C   UNL     1       2.513   7.489  18.908  0.00  0.00    +0.000 A 
ATOM      6  C   UNL     1       1.905   7.788  20.137  0.00  0.00    +0.000 A 
ENDROOT
BRANCH   5   7
ATOM      7  N   UNL     1       3.362   6.358  18.748  0.00  0.00    +0.000 N 
ATOM      8  C   UNL     1       3.299   5.202  19.496  0.00  0.00    +0.000 C 
ATOM      9  O   UNL     1       2.492   4.859  20.344  0.00  0.00    +0.000 OA
ATOM     10  N   UNL     1       4.321   4.365  19.101  0.00  0.00    +0.000 N 
ATOM     11  C   UNL     1       5.191   4.985  18.145  0.00  0.00    +0.000 C 
ATOM     12  C   UNL     1       6.547   5.344  18.724  0.00  0.00    +0.000 C 
ATOM     13  C   UNL     1       7.542   4.660  17.809  0.00  0.00    +0.000 C 
ATOM     14  O   UNL     1       6.864   4.327  16.599  0.00  0.00    +0.000 OA
ATOM     15  C   UNL     1       5.472   4.164  16.902  0.00  0.00    +0.000 C 
ATOM     16  C   UNL     1       4.392   6.254  17.833  0.00  0.00    +0.000 C 
ATOM     17  O   UNL     1       4.725   7.057  16.970  0.00  0.00    +0.000 OA
ATOM     18  H   UNL     1       4.467   3.475  19.567  0.00  0.00    +0.000 HD
ENDBRANCH   5   7
BRANCH   1  19
ATOM     19  S   UNL     1       0.242   9.237  21.815  0.00  0.00    +0.000 S 
ATOM     20  O   UNL     1       1.254   9.548  22.799  0.00  0.00    +0.000 OA
ATOM     21  O   UNL     1      -0.727   8.180  22.009  0.00  0.00    +0.000 OA
BRANCH  19  22
ATOM     22  N   UNL     1      -0.633  10.647  21.483  0.00  0.00    +0.000 NA
ATOM     23  H   UNL     1      -0.551  10.940  20.512  0.00  0.00    +0.000 HD
BRANCH  22  24
ATOM     24  C   UNL     1      -0.665  11.748  22.473  0.00  0.00    +0.000 C 
ATOM     25  C   UNL     1      -2.068  11.765  23.088  0.00  0.00    +0.000 C 
BRANCH  24  27
ATOM     26  C   UNL     1       0.930  13.027  20.938  0.00  0.00    +0.000 C 
ATOM     27  C   UNL     1      -0.305  13.087  21.821  0.00  0.00    +0.000 C 
ENDBRANCH  24  27
ENDBRANCH  22  24
ENDBRANCH  19  22
ENDBRANCH   1  19
TORSDOF 5
ENDMDL
MODEL 7
REMARK VINA RESULT:      -7.2      3.688      7.798
REMARK  Name = 
REMARK  7 active torsions:
REMARK  status: ('A' for Active; 'I' for Inactive)
REMARK    1  A    between atoms: C_1  and  C_2
REMARK    2  A    between atoms: C_2  and  C_3
REMARK    3  A    between atoms: C_3  and  C_4
REMARK    4  A    between atoms: C_3  and  N_5
REMARK    5  A    between atoms: N_5  and  S_6
REMARK    6  A    between atoms: S_6  and  C_9
REMARK    7  A    between atoms: C_13  and  N_14
REMARK                            x       y       z     vdW  Elec       q    Type
REMARK                         _______ _______ _______ _____ _____    ______ ____
ROOT
ATOM      1  C   UNL     1       0.491  10.224  19.849  0.00  0.00    +0.000 A 
ATOM      2  C   UNL     1       0.516  10.334  21.241  0.00  0.00    +0.000 A 
ATOM      3  C   UNL     1       1.086   9.313  21.991  0.00  0.00    +0.000 A 
ATOM      4  C   UNL     1       1.633   8.194  21.353  0.00  0.00    +0.000 A 
ATOM      5  C   UNL     1       1.641   8.077  19.952  0.00  0.00    +0.000 A 
ATOM      6  C   UNL     1       1.061   9.115  19.207  0.00  0.00    +0.000 A 
ENDROOT
BRANCH   5   7
ATOM      7  N   UNL     1       2.263   6.961  19.323  0.00  0.00    +0.000 N 
ATOM      8  C   UNL     1       3.082   7.024  18.216  0.00  0.00    +0.000 C 
ATOM      9  O   UNL     1       3.517   7.993  17.616  0.00  0.00    +0.000 OA
ATOM     10  N   UNL     1       3.435   5.741  17.856  0.00  0.00    +0.000 N 
ATOM     11  C   UNL     1       2.764   4.751  18.646  0.00  0.00    +0.000 C 
ATOM     12  C   UNL     1       1.692   4.004  17.873  0.00  0.00    +0.000 C 
ATOM     13  C   UNL     1       2.065   2.544  18.026  0.00  0.00    +0.000 C 
ATOM     14  O   UNL     1       2.972   2.438  19.122  0.00  0.00    +0.000 OA
ATOM     15  C   UNL     1       3.662   3.689  19.248  0.00  0.00    +0.000 C 
ATOM     16  C   UNL     1       2.126   5.644  19.715  0.00  0.00    +0.000 C 
ATOM     17  O   UNL     1       1.516   5.198  20.679  0.00  0.00    +0.000 OA
ATOM     18  H   UNL     1       4.006   5.576  17.033  0.00  0.00    +0.000 HD
ENDBRANCH   5   7
BRANCH   1  19
ATOM     19  S   UNL     1      -0.214  11.556  18.894  0.00  0.00    +0.000 S 
ATOM     20  O   UNL     1       0.854  12.396  18.401  0.00  0.00    +0.000 OA
ATOM     21  O   UNL     1      -1.303  12.077  19.693  0.00  0.00    +0.000 OA
BRANCH  19  22
ATOM     22  N   UNL     1      -0.914  10.752  17.580  0.00  0.00    +0.000 NA
ATOM     23  H   UNL     1      -0.329  10.779  16.747  0.00  0.00    +0.000 HD
BRANCH  22  24
ATOM     24  C   UNL     1      -2.370  10.868  17.331  0.00  0.00    +0.000 C 
ATOM     25  C   UNL     1      -3.016   9.563  17.807  0.00  0.00    +0.000 C 
BRANCH  24  27
ATOM     26  C   UNL     1      -3.034   9.912  15.055  0.00  0.00    +0.000 C 
ATOM     27  C   UNL     1      -2.656  11.149  15.853  0.00  0.00    +0.000 C 
ENDBRANCH  24  27
ENDBRANCH  22  24
ENDBRANCH  19  22
ENDBRANCH   1  19
TORSDOF 5
ENDMDL
MODEL 8
REMARK VINA RESULT:      -7.2      2.018      2.927
REMARK  Name = 
REMARK  7 active torsions:
REMARK  status: ('A' for Active; 'I' for Inactive)
REMARK    1  A    between atoms: C_1  and  C_2
REMARK    2  A    between atoms: C_2  and  C_3
REMARK    3  A    between atoms: C_3  and  C_4
REMARK    4  A    between atoms: C_3  and  N_5
REMARK    5  A    between atoms: N_5  and  S_6
REMARK    6  A    between atoms: S_6  and  C_9
REMARK    7  A    between atoms: C_13  and  N_14
REMARK                            x       y       z     vdW  Elec       q    Type
REMARK                         _______ _______ _______ _____ _____    ______ ____
ROOT
ATOM      1  C   UNL     1       4.443   5.769  17.269  0.00  0.00    +0.000 A 
ATOM      2  C   UNL     1       3.759   4.553  17.211  0.00  0.00    +0.000 A 
ATOM      3  C   UNL     1       2.498   4.457  17.786  0.00  0.00    +0.000 A 
ATOM      4  C   UNL     1       1.923   5.572  18.408  0.00  0.00    +0.000 A 
ATOM      5  C   UNL     1       2.584   6.811  18.454  0.00  0.00    +0.000 A 
ATOM      6  C   UNL     1       3.859   6.893  17.871  0.00  0.00    +0.000 A 
ENDROOT
BRANCH   5   7
ATOM      7  N   UNL     1       1.952   7.948  19.033  0.00  0.00    +0.000 N 
ATOM      8  C   UNL     1       1.473   8.023  20.323  0.00  0.00    +0.000 C 
ATOM      9  O   UNL     1       1.563   7.225  21.241  0.00  0.00    +0.000 OA
ATOM     10  N   UNL     1       0.867   9.249  20.498  0.00  0.00    +0.000 N 
ATOM     11  C   UNL     1       0.811  10.005  19.281  0.00  0.00    +0.000 C 
ATOM     12  C   UNL     1      -0.590  10.093  18.703  0.00  0.00    +0.000 C 
ATOM     13  C   UNL     1      -0.845  11.579  18.556  0.00  0.00    +0.000 C 
ATOM     14  O   UNL     1       0.415  12.245  18.615  0.00  0.00    +0.000 OA
ATOM     15  C   UNL     1       1.310  11.431  19.385  0.00  0.00    +0.000 C 
ATOM     16  C   UNL     1       1.704   9.141  18.384  0.00  0.00    +0.000 C 
ATOM     17  O   UNL     1       2.021   9.468  17.247  0.00  0.00    +0.000 OA
ATOM     18  H   UNL     1       0.414   9.478  21.376  0.00  0.00    +0.000 HD
ENDBRANCH   5   7
BRANCH   1  19
ATOM     19  S   UNL     1       6.048   5.890  16.499  0.00  0.00    +0.000 S 
ATOM     20  O   UNL     1       5.885   5.827  15.064  0.00  0.00    +0.000 OA
ATOM     21  O   UNL     1       6.899   4.970  17.222  0.00  0.00    +0.000 OA
BRANCH  19  22
ATOM     22  N   UNL     1       6.552   7.451  16.913  0.00  0.00    +0.000 NA
ATOM     23  H   UNL     1       6.250   8.152  16.240  0.00  0.00    +0.000 HD
BRANCH  22  24
ATOM     24  C   UNL     1       7.902   7.666  17.484  0.00  0.00    +0.000 C 
ATOM     25  C   UNL     1       7.978   6.859  18.784  0.00  0.00    +0.000 C 
BRANCH  24  27
ATOM     26  C   UNL     1       8.972   9.448  18.972  0.00  0.00    +0.000 C 
ATOM     27  C   UNL     1       8.174   9.156  17.712  0.00  0.00    +0.000 C 
ENDBRANCH  24  27
ENDBRANCH  22  24
ENDBRANCH  19  22
ENDBRANCH   1  19
TORSDOF 5
ENDMDL
MODEL 9
REMARK VINA RESULT:      -7.2      2.498      3.115
REMARK  Name = 
REMARK  7 active torsions:
REMARK  status: ('A' for Active; 'I' for Inactive)
REMARK    1  A    between atoms: C_1  and  C_2
REMARK    2  A    between atoms: C_2  and  C_3
REMARK    3  A    between atoms: C_3  and  C_4
REMARK    4  A    between atoms: C_3  and  N_5
REMARK    5  A    between atoms: N_5  and  S_6
REMARK    6  A    between atoms: S_6  and  C_9
REMARK    7  A    between atoms: C_13  and  N_14
REMARK                            x       y       z     vdW  Elec       q    Type
REMARK                         _______ _______ _______ _____ _____    ______ ____
ROOT
ATOM      1  C   UNL     1       3.126   6.082  18.894  0.00  0.00    +0.000 A 
ATOM      2  C   UNL     1       2.631   5.073  19.722  0.00  0.00    +0.000 A 
ATOM      3  C   UNL     1       1.706   5.396  20.707  0.00  0.00    +0.000 A 
ATOM      4  C   UNL     1       1.274   6.720  20.857  0.00  0.00    +0.000 A 
ATOM      5  C   UNL     1       1.741   7.746  20.017  0.00  0.00    +0.000 A 
ATOM      6  C   UNL     1       2.676   7.404  19.028  0.00  0.00    +0.000 A 
ENDROOT
BRANCH   5   7
ATOM      7  N   UNL     1       1.237   9.071  20.146  0.00  0.00    +0.000 N 
ATOM      8  C   UNL     1       1.157   9.783  21.323  0.00  0.00    +0.000 C 
ATOM      9  O   UNL     1       1.564   9.503  22.438  0.00  0.00    +0.000 OA
ATOM     10  N   UNL     1       0.553  10.995  21.065  0.00  0.00    +0.000 N 
ATOM     11  C   UNL     1       0.092  11.094  19.711  0.00  0.00    +0.000 C 
ATOM     12  C   UNL     1      -1.420  11.023  19.594  0.00  0.00    +0.000 C 
ATOM     13  C   UNL     1      -1.800  12.283  18.843  0.00  0.00    +0.000 C 
ATOM     14  O   UNL     1      -0.623  12.786  18.213  0.00  0.00    +0.000 OA
ATOM     15  C   UNL     1       0.509  12.354  18.979  0.00  0.00    +0.000 C 
ATOM     16  C   UNL     1       0.733   9.838  19.113  0.00  0.00    +0.000 C 
ATOM     17  O   UNL     1       0.679   9.564  17.921  0.00  0.00    +0.000 OA
ATOM     18  H   UNL     1       0.366  11.648  21.819  0.00  0.00    +0.000 HD
ENDBRANCH   5   7
BRANCH   1  19
ATOM     19  S   UNL     1       4.289   5.650  17.612  0.00  0.00    +0.000 S 
ATOM     20  O   UNL     1       4.321   6.711  16.631  0.00  0.00    +0.000 OA
ATOM     21  O   UNL     1       3.991   4.278  17.260  0.00  0.00    +0.000 OA
BRANCH  19  22
ATOM     22  N   UNL     1       5.769   5.634  18.432  0.00  0.00    +0.000 NA
ATOM     23  H   UNL     1       5.717   6.083  19.344  0.00  0.00    +0.000 HD
BRANCH  22  24
ATOM     24  C   UNL     1       7.029   5.861  17.688  0.00  0.00    +0.000 C 
ATOM     25  C   UNL     1       7.731   4.505  17.559  0.00  0.00    +0.000 C 
BRANCH  24  27
ATOM     26  C   UNL     1       7.927   8.256  17.706  0.00  0.00    +0.000 C 
ATOM     27  C   UNL     1       7.907   6.900  18.393  0.00  0.00    +0.000 C 
ENDBRANCH  24  27
ENDBRANCH  22  24
ENDBRANCH  19  22
ENDBRANCH   1  19
TORSDOF 5
ENDMDL
