MODEL 1
REMARK VINA RESULT:      -8.2      0.000      0.000
REMARK  Name = 
REMARK  3 active torsions:
REMARK  status: ('A' for Active; 'I' for Inactive)
REMARK    1  A    between atoms: C_1  and  C_2
REMARK    2  A    between atoms: C_7  and  N_8
REMARK    3  A    between atoms: C_9  and  C_11
REMARK                            x       y       z     vdW  Elec       q    Type
REMARK                         _______ _______ _______ _____ _____    ______ ____
ROOT
ATOM      1  C   UNL     1       2.414   7.099  19.267  0.00  0.00    +0.000 A 
ATOM      2  C   UNL     1       1.849   6.922  20.523  0.00  0.00    +0.000 A 
ATOM      3  C   UNL     1       1.077   7.953  21.070  0.00  0.00    +0.000 A 
ATOM      4  C   UNL     1       0.888   9.146  20.366  0.00  0.00    +0.000 A 
ATOM      5  N   UNL     1       0.239  10.243  20.894  0.00  0.00    +0.000 N 
ATOM      6  C   UNL     1      -0.291  10.288  22.256  0.00  0.00    +0.000 C 
ATOM      7  C   UNL     1      -1.117  11.561  22.543  0.00  0.00    +0.000 C 
ATOM      8  C   UNL     1      -0.375  12.802  22.129  0.00  0.00    +0.000 A 
ATOM      9  C   UNL     1      -0.559  14.040  22.751  0.00  0.00    +0.000 A 
ATOM     10  C   UNL     1       0.202  15.141  22.351  0.00  0.00    +0.000 A 
ATOM     11  C   UNL     1       1.176  15.004  21.362  0.00  0.00    +0.000 A 
ATOM     12  C   UNL     1       1.321  13.789  20.702  0.00  0.00    +0.000 A 
ATOM     13  C   UNL     1       0.501  12.706  21.042  0.00  0.00    +0.000 A 
ATOM     14  C   UNL     1       0.433  11.485  20.150  0.00  0.00    +0.000 C 
ATOM     15  N   UNL     1       1.380   9.259  19.109  0.00  0.00    +0.000 NA
ATOM     16  C   UNL     1       2.119   8.260  18.580  0.00  0.00    +0.000 A 
ENDROOT
BRANCH   1  18
ATOM     17  N   UNL     1       4.389   6.673  17.933  0.00  0.00    +0.000 N 
ATOM     18  C   UNL     1       3.308   6.128  18.614  0.00  0.00    +0.000 C 
ATOM     19  O   UNL     1       2.985   4.948  18.688  0.00  0.00    +0.000 OA
ATOM     20  H   UNL     1       4.488   7.679  17.950  0.00  0.00    +0.000 HD
BRANCH  17  27
ATOM     21  C   UNL     1       6.757   5.451  19.183  0.00  0.00    +0.000 C 
ATOM     22  C   UNL     1       6.457   5.380  17.712  0.00  0.00    +0.000 A 
ATOM     23  C   UNL     1       7.365   4.682  16.890  0.00  0.00    +0.000 A 
ATOM     24  C   UNL     1       7.164   4.575  15.516  0.00  0.00    +0.000 A 
ATOM     25  C   UNL     1       6.050   5.162  14.938  0.00  0.00    +0.000 A 
ATOM     26  C   UNL     1       5.136   5.849  15.734  0.00  0.00    +0.000 A 
ATOM     27  C   UNL     1       5.315   5.968  17.123  0.00  0.00    +0.000 A 
ENDBRANCH  17  27
ENDBRANCH   1  18
TORSDOF 2
ENDMDL
MODEL 2
REMARK VINA RESULT:      -8.0      1.071      1.241
REMARK  Name = 
REMARK  3 active torsions:
REMARK  status: ('A' for Active; 'I' for Inactive)
REMARK    1  A    between atoms: C_1  and  C_2
REMARK    2  A    between atoms: C_7  and  N_8
REMARK    3  A    between atoms: C_9  and  C_11
REMARK                            x       y       z     vdW  Elec       q    Type
REMARK                         _______ _______ _______ _____ _____    ______ ____
ROOT
ATOM      1  C   UNL     1       2.325   7.606  18.691  0.00  0.00    +0.000 A 
ATOM      2  C   UNL     1       1.935   7.700  20.021  0.00  0.00    +0.000 A 
ATOM      3  C   UNL     1       1.219   8.828  20.440  0.00  0.00    +0.000 A 
ATOM      4  C   UNL     1       0.915   9.849  19.535  0.00  0.00    +0.000 A 
ATOM      5  N   UNL     1       0.318  11.036  19.905  0.00  0.00    +0.000 N 
ATOM      6  C   UNL     1      -0.029  11.369  21.285  0.00  0.00    +0.000 C 
ATOM      7  C   UNL     1      -0.837  12.679  21.409  0.00  0.00    +0.000 C 
ATOM      8  C   UNL     1      -0.182  13.801  20.651  0.00  0.00    +0.000 A 
ATOM      9  C   UNL     1      -0.309  15.142  21.020  0.00  0.00    +0.000 A 
ATOM     10  C   UNL     1       0.370  16.131  20.302  0.00  0.00    +0.000 A 
ATOM     11  C   UNL     1       1.207  15.783  19.243  0.00  0.00    +0.000 A 
ATOM     12  C   UNL     1       1.289  14.456  18.836  0.00  0.00    +0.000 A 
ATOM     13  C   UNL     1       0.545  13.473  19.500  0.00  0.00    +0.000 A 
ATOM     14  C   UNL     1       0.386  12.093  18.899  0.00  0.00    +0.000 C 
ATOM     15  N   UNL     1       1.234   9.692  18.227  0.00  0.00    +0.000 NA
ATOM     16  C   UNL     1       1.918   8.600  17.824  0.00  0.00    +0.000 A 
ENDROOT
BRANCH   1  18
ATOM     17  N   UNL     1       4.374   6.893  17.619  0.00  0.00    +0.000 N 
ATOM     18  C   UNL     1       3.146   6.514  18.141  0.00  0.00    +0.000 C 
ATOM     19  O   UNL     1       2.646   5.395  18.148  0.00  0.00    +0.000 OA
ATOM     20  H   UNL     1       4.617   7.873  17.669  0.00  0.00    +0.000 HD
BRANCH  17  27
ATOM     21  C   UNL     1       6.468   5.475  19.126  0.00  0.00    +0.000 C 
ATOM     22  C   UNL     1       6.297   5.376  17.635  0.00  0.00    +0.000 A 
ATOM     23  C   UNL     1       7.193   4.550  16.926  0.00  0.00    +0.000 A 
ATOM     24  C   UNL     1       7.107   4.409  15.543  0.00  0.00    +0.000 A 
ATOM     25  C   UNL     1       6.122   5.089  14.844  0.00  0.00    +0.000 A 
ATOM     26  C   UNL     1       5.222   5.903  15.528  0.00  0.00    +0.000 A 
ATOM     27  C   UNL     1       5.287   6.060  16.923  0.00  0.00    +0.000 A 
ENDBRANCH  17  27
ENDBRANCH   1  18
TORSDOF 2
ENDMDL
MODEL 3
REMARK VINA RESULT:      -8.0      1.376      1.765
REMARK  Name = 
REMARK  3 active torsions:
REMARK  status: ('A' for Active; 'I' for Inactive)
REMARK    1  A    between atoms: C_1  and  C_2
REMARK    2  A    between atoms: C_7  and  N_8
REMARK    3  A    between atoms: C_9  and  C_11
REMARK                            x       y       z     vdW  Elec       q    Type
REMARK                         _______ _______ _______ _____ _____    ______ ____
ROOT
ATOM      1  C   UNL     1       2.101   8.246  18.781  0.00  0.00    +0.000 A 
ATOM      2  C   UNL     1       1.864   7.796  20.073  0.00  0.00    +0.000 A 
ATOM      3  C   UNL     1       1.011   8.534  20.903  0.00  0.00    +0.000 A 
ATOM      4  C   UNL     1       0.419   9.712  20.439  0.00  0.00    +0.000 A 
ATOM      5  N   UNL     1      -0.335  10.546  21.239  0.00  0.00    +0.000 N 
ATOM      6  C   UNL     1      -0.567  10.307  22.662  0.00  0.00    +0.000 C 
ATOM      7  C   UNL     1      -1.579  11.292  23.286  0.00  0.00    +0.000 C 
ATOM      8  C   UNL     1      -1.235  12.718  22.950  0.00  0.00    +0.000 A 
ATOM      9  C   UNL     1      -1.558  13.793  23.780  0.00  0.00    +0.000 A 
ATOM     10  C   UNL     1      -1.163  15.087  23.432  0.00  0.00    +0.000 A 
ATOM     11  C   UNL     1      -0.411  15.308  22.279  0.00  0.00    +0.000 A 
ATOM     12  C   UNL     1      -0.138  14.249  21.420  0.00  0.00    +0.000 A 
ATOM     13  C   UNL     1      -0.605  12.964  21.724  0.00  0.00    +0.000 A 
ATOM     14  C   UNL     1      -0.582  11.872  20.677  0.00  0.00    +0.000 C 
ATOM     15  N   UNL     1       0.600  10.083  19.149  0.00  0.00    +0.000 NA
ATOM     16  C   UNL     1       1.418   9.365  18.349  0.00  0.00    +0.000 A 
ENDROOT
BRANCH   1  18
ATOM     17  N   UNL     1       3.740   6.522  18.334  0.00  0.00    +0.000 N 
ATOM     18  C   UNL     1       3.034   7.609  17.837  0.00  0.00    +0.000 C 
ATOM     19  O   UNL     1       3.135   8.127  16.731  0.00  0.00    +0.000 OA
ATOM     20  H   UNL     1       3.552   6.245  19.288  0.00  0.00    +0.000 HD
BRANCH  17  27
ATOM     21  C   UNL     1       3.187   3.870  17.184  0.00  0.00    +0.000 C 
ATOM     22  C   UNL     1       4.528   4.546  17.121  0.00  0.00    +0.000 A 
ATOM     23  C   UNL     1       5.576   3.866  16.466  0.00  0.00    +0.000 A 
ATOM     24  C   UNL     1       6.850   4.421  16.369  0.00  0.00    +0.000 A 
ATOM     25  C   UNL     1       7.099   5.667  16.922  0.00  0.00    +0.000 A 
ATOM     26  C   UNL     1       6.076   6.358  17.566  0.00  0.00    +0.000 A 
ATOM     27  C   UNL     1       4.782   5.821  17.674  0.00  0.00    +0.000 A 
ENDBRANCH  17  27
ENDBRANCH   1  18
TORSDOF 2
ENDMDL
MODEL 4
REMARK VINA RESULT:      -8.0      2.100      3.494
REMARK  Name = 
REMARK  3 active torsions:
REMARK  status: ('A' for Active; 'I' for Inactive)
REMARK    1  A    between atoms: C_1  and  C_2
REMARK    2  A    between atoms: C_7  and  N_8
REMARK    3  A    between atoms: C_9  and  C_11
REMARK                            x       y       z     vdW  Elec       q    Type
REMARK                         _______ _______ _______ _____ _____    ______ ____
ROOT
ATOM      1  C   UNL     1       1.377   8.595  20.275  0.00  0.00    +0.000 A 
ATOM      2  C   UNL     1       1.150   9.583  19.326  0.00  0.00    +0.000 A 
ATOM      3  C   UNL     1       0.572  10.793  19.731  0.00  0.00    +0.000 A 
ATOM      4  C   UNL     1       0.219  10.996  21.068  0.00  0.00    +0.000 A 
ATOM      5  N   UNL     1      -0.459  12.113  21.511  0.00  0.00    +0.000 N 
ATOM      6  C   UNL     1      -0.909  13.186  20.628  0.00  0.00    +0.000 C 
ATOM      7  C   UNL     1      -1.490  14.397  21.392  0.00  0.00    +0.000 C 
ATOM      8  C   UNL     1      -2.512  13.965  22.407  0.00  0.00    +0.000 A 
ATOM      9  C   UNL     1      -3.576  14.778  22.806  0.00  0.00    +0.000 A 
ATOM     10  C   UNL     1      -4.520  14.295  23.716  0.00  0.00    +0.000 A 
ATOM     11  C   UNL     1      -4.430  12.990  24.198  0.00  0.00    +0.000 A 
ATOM     12  C   UNL     1      -3.341  12.199  23.850  0.00  0.00    +0.000 A 
ATOM     13  C   UNL     1      -2.348  12.710  23.004  0.00  0.00    +0.000 A 
ATOM     14  C   UNL     1      -1.024  11.991  22.853  0.00  0.00    +0.000 C 
ATOM     15  N   UNL     1       0.528  10.049  21.987  0.00  0.00    +0.000 NA
ATOM     16  C   UNL     1       1.092   8.886  21.595  0.00  0.00    +0.000 A 
ENDROOT
BRANCH   1  18
ATOM     17  N   UNL     1       2.342   7.066  18.667  0.00  0.00    +0.000 N 
ATOM     18  C   UNL     1       1.903   7.255  19.970  0.00  0.00    +0.000 C 
ATOM     19  O   UNL     1       1.854   6.427  20.873  0.00  0.00    +0.000 OA
ATOM     20  H   UNL     1       2.282   7.856  18.039  0.00  0.00    +0.000 HD
BRANCH  17  27
ATOM     21  C   UNL     1       5.013   6.907  17.443  0.00  0.00    +0.000 C 
ATOM     22  C   UNL     1       4.049   5.756  17.498  0.00  0.00    +0.000 A 
ATOM     23  C   UNL     1       4.458   4.530  16.934  0.00  0.00    +0.000 A 
ATOM     24  C   UNL     1       3.621   3.416  16.939  0.00  0.00    +0.000 A 
ATOM     25  C   UNL     1       2.362   3.506  17.511  0.00  0.00    +0.000 A 
ATOM     26  C   UNL     1       1.943   4.706  18.082  0.00  0.00    +0.000 A 
ATOM     27  C   UNL     1       2.770   5.842  18.091  0.00  0.00    +0.000 A 
ENDBRANCH  17  27
ENDBRANCH   1  18
TORSDOF 2
ENDMDL
MODEL 5
REMARK VINA RESULT:      -7.9      2.237      3.816
REMARK  Name = 
REMARK  3 active torsions:
REMARK  status: ('A' for Active; 'I' for Inactive)
REMARK    1  A    between atoms: C_1  and  C_2
REMARK    2  A    between atoms: C_7  and  N_8
REMARK    3  A    between atoms: C_9  and  C_11
REMARK                            x       y       z     vdW  Elec       q    Type
REMARK                         _______ _______ _______ _____ _____    ______ ____
ROOT
ATOM      1  C   UNL     1       1.560   8.888  19.517  0.00  0.00    +0.000 A 
ATOM      2  C   UNL     1       1.326   9.996  18.714  0.00  0.00    +0.000 A 
ATOM      3  C   UNL     1       0.761  11.142  19.287  0.00  0.00    +0.000 A 
ATOM      4  C   UNL     1       0.428  11.164  20.644  0.00  0.00    +0.000 A 
ATOM      5  N   UNL     1      -0.236  12.214  21.244  0.00  0.00    +0.000 N 
ATOM      6  C   UNL     1      -0.692  13.399  20.521  0.00  0.00    +0.000 C 
ATOM      7  C   UNL     1      -1.254  14.498  21.449  0.00  0.00    +0.000 C 
ATOM      8  C   UNL     1      -2.264  13.938  22.412  0.00  0.00    +0.000 A 
ATOM      9  C   UNL     1      -3.317  14.694  22.933  0.00  0.00    +0.000 A 
ATOM     10  C   UNL     1      -4.252  14.096  23.783  0.00  0.00    +0.000 A 
ATOM     11  C   UNL     1      -4.164  12.738  24.083  0.00  0.00    +0.000 A 
ATOM     12  C   UNL     1      -3.084  11.997  23.615  0.00  0.00    +0.000 A 
ATOM     13  C   UNL     1      -2.100  12.612  22.832  0.00  0.00    +0.000 A 
ATOM     14  C   UNL     1      -0.783  11.915  22.565  0.00  0.00    +0.000 C 
ATOM     15  N   UNL     1       0.745  10.101  21.422  0.00  0.00    +0.000 NA
ATOM     16  C   UNL     1       1.295   8.999  20.868  0.00  0.00    +0.000 A 
ENDROOT
BRANCH   1  18
ATOM     17  N   UNL     1       2.495   6.710  20.005  0.00  0.00    +0.000 N 
ATOM     18  C   UNL     1       2.073   7.599  19.026  0.00  0.00    +0.000 C 
ATOM     19  O   UNL     1       2.129   7.458  17.810  0.00  0.00    +0.000 OA
ATOM     20  H   UNL     1       2.404   7.004  20.968  0.00  0.00    +0.000 HD
BRANCH  17  27
ATOM     21  C   UNL     1       1.016   4.214  20.501  0.00  0.00    +0.000 C 
ATOM     22  C   UNL     1       2.443   4.261  20.028  0.00  0.00    +0.000 A 
ATOM     23  C   UNL     1       3.102   3.035  19.807  0.00  0.00    +0.000 A 
ATOM     24  C   UNL     1       4.425   2.992  19.375  0.00  0.00    +0.000 A 
ATOM     25  C   UNL     1       5.113   4.174  19.153  0.00  0.00    +0.000 A 
ATOM     26  C   UNL     1       4.477   5.396  19.358  0.00  0.00    +0.000 A 
ATOM     27  C   UNL     1       3.142   5.466  19.791  0.00  0.00    +0.000 A 
ENDBRANCH  17  27
ENDBRANCH   1  18
TORSDOF 2
ENDMDL
MODEL 6
REMARK VINA RESULT:      -7.9      3.029      4.486
REMARK  Name = 
REMARK  3 active torsions:
REMARK  status: ('A' for Active; 'I' for Inactive)
REMARK    1  A    between atoms: C_1  and  C_2
REMARK    2  A    between atoms: C_7  and  N_8
REMARK    3  A    between atoms: C_9  and  C_11
REMARK                            x       y       z     vdW  Elec       q    Type
REMARK                         _______ _______ _______ _____ _____    ______ ____
ROOT
ATOM      1  C   UNL     1       0.439  10.163  18.469  0.00  0.00    +0.000 A 
ATOM      2  C   UNL     1      -0.777  10.084  17.802  0.00  0.00    +0.000 A 
ATOM      3  C   UNL     1      -1.866  10.818  18.287  0.00  0.00    +0.000 A 
ATOM      4  C   UNL     1      -1.733  11.608  19.432  0.00  0.00    +0.000 A 
ATOM      5  N   UNL     1      -2.792  12.262  20.029  0.00  0.00    +0.000 N 
ATOM      6  C   UNL     1      -4.169  12.171  19.549  0.00  0.00    +0.000 C 
ATOM      7  C   UNL     1      -5.132  13.127  20.286  0.00  0.00    +0.000 C 
ATOM      8  C   UNL     1      -4.990  13.005  21.779  0.00  0.00    +0.000 A 
ATOM      9  C   UNL     1      -6.041  13.258  22.664  0.00  0.00    +0.000 A 
ATOM     10  C   UNL     1      -5.856  13.074  24.037  0.00  0.00    +0.000 A 
ATOM     11  C   UNL     1      -4.639  12.601  24.527  0.00  0.00    +0.000 A 
ATOM     12  C   UNL     1      -3.574  12.406  23.655  0.00  0.00    +0.000 A 
ATOM     13  C   UNL     1      -3.731  12.669  22.289  0.00  0.00    +0.000 A 
ATOM     14  C   UNL     1      -2.524  12.752  21.378  0.00  0.00    +0.000 C 
ATOM     15  N   UNL     1      -0.515  11.734  20.013  0.00  0.00    +0.000 NA
ATOM     16  C   UNL     1       0.535  11.030  19.540  0.00  0.00    +0.000 A 
ENDROOT
BRANCH   1  18
ATOM     17  N   UNL     1       1.667   8.081  18.586  0.00  0.00    +0.000 N 
ATOM     18  C   UNL     1       1.636   9.385  18.111  0.00  0.00    +0.000 C 
ATOM     19  O   UNL     1       2.505   9.975  17.480  0.00  0.00    +0.000 OA
ATOM     20  H   UNL     1       0.870   7.764  19.121  0.00  0.00    +0.000 HD
BRANCH  17  27
ATOM     21  C   UNL     1       1.890   5.884  20.532  0.00  0.00    +0.000 C 
ATOM     22  C   UNL     1       2.872   6.119  19.418  0.00  0.00    +0.000 A 
ATOM     23  C   UNL     1       3.958   5.227  19.303  0.00  0.00    +0.000 A 
ATOM     24  C   UNL     1       4.916   5.378  18.304  0.00  0.00    +0.000 A 
ATOM     25  C   UNL     1       4.805   6.421  17.399  0.00  0.00    +0.000 A 
ATOM     26  C   UNL     1       3.734   7.308  17.490  0.00  0.00    +0.000 A 
ATOM     27  C   UNL     1       2.754   7.175  18.488  0.00  0.00    +0.000 A 
ENDBRANCH  17  27
ENDBRANCH   1  18
TORSDOF 2
ENDMDL
MODEL 7
REMARK VINA RESULT:      -7.8      1.522      1.581
REMARK  Name = 
REMARK  3 active torsions:
REMARK  status: ('A' for Active; 'I' for Inactive)
REMARK    1  A    between atoms: C_1  and  C_2
REMARK    2  A    between atoms: C_7  and  N_8
REMARK    3  A    between atoms: C_9  and  C_11
REMARK                            x       y       z     vdW  Elec       q    Type
REMARK                         _______ _______ _______ _____ _____    ______ ____
ROOT
ATOM      1  C   UNL     1       2.387   7.591  19.120  0.00  0.00    +0.000 A 
ATOM      2  C   UNL     1       1.821   7.709  20.383  0.00  0.00    +0.000 A 
ATOM      3  C   UNL     1       0.917   8.749  20.627  0.00  0.00    +0.000 A 
ATOM      4  C   UNL     1       0.599   9.662  19.617  0.00  0.00    +0.000 A 
ATOM      5  N   UNL     1      -0.191  10.775  19.822  0.00  0.00    +0.000 N 
ATOM      6  C   UNL     1      -0.751  11.137  21.123  0.00  0.00    +0.000 C 
ATOM      7  C   UNL     1      -1.733  12.327  21.049  0.00  0.00    +0.000 C 
ATOM      8  C   UNL     1      -1.139  13.482  20.291  0.00  0.00    +0.000 A 
ATOM      9  C   UNL     1      -1.487  14.812  20.539  0.00  0.00    +0.000 A 
ATOM     10  C   UNL     1      -0.857  15.841  19.833  0.00  0.00    +0.000 A 
ATOM     11  C   UNL     1       0.146  15.551  18.910  0.00  0.00    +0.000 A 
ATOM     12  C   UNL     1       0.452  14.227  18.618  0.00  0.00    +0.000 A 
ATOM     13  C   UNL     1      -0.235  13.191  19.263  0.00  0.00    +0.000 A 
ATOM     14  C   UNL     1      -0.134  11.769  18.754  0.00  0.00    +0.000 C 
ATOM     15  N   UNL     1       1.100   9.474  18.372  0.00  0.00    +0.000 NA
ATOM     16  C   UNL     1       1.967   8.466  18.138  0.00  0.00    +0.000 A 
ENDROOT
BRANCH   1  18
ATOM     17  N   UNL     1       4.071   6.826  17.559  0.00  0.00    +0.000 N 
ATOM     18  C   UNL     1       3.407   6.594  18.756  0.00  0.00    +0.000 C 
ATOM     19  O   UNL     1       3.532   5.636  19.510  0.00  0.00    +0.000 OA
ATOM     20  H   UNL     1       3.819   7.658  17.043  0.00  0.00    +0.000 HD
BRANCH  17  27
ATOM     21  C   UNL     1       6.917   7.570  17.475  0.00  0.00    +0.000 C 
ATOM     22  C   UNL     1       6.365   6.305  16.879  0.00  0.00    +0.000 A 
ATOM     23  C   UNL     1       7.271   5.427  16.249  0.00  0.00    +0.000 A 
ATOM     24  C   UNL     1       6.840   4.238  15.667  0.00  0.00    +0.000 A 
ATOM     25  C   UNL     1       5.495   3.903  15.706  0.00  0.00    +0.000 A 
ATOM     26  C   UNL     1       4.586   4.753  16.331  0.00  0.00    +0.000 A 
ATOM     27  C   UNL     1       4.997   5.957  16.928  0.00  0.00    +0.000 A 
ENDBRANCH  17  27
ENDBRANCH   1  18
TORSDOF 2
ENDMDL
MODEL 8
REMARK VINA RESULT:      -7.8      1.626      2.373
REMARK  Name = 
REMARK  3 active torsions:
REMARK  status: ('A' for Active; 'I' for Inactive)
REMARK    1  A    between atoms: C_1  and  C_2
REMARK    2  A    between atoms: C_7  and  N_8
REMARK    3  A    between atoms: C_9  and  C_11
REMARK                            x       y       z     vdW  Elec       q    Type
REMARK                         _______ _______ _______ _____ _____    ______ ____
ROOT
ATOM      1  C   UNL     1       1.459   8.873  19.033  0.00  0.00    +0.000 A 
ATOM      2  C   UNL     1       1.030   8.401  20.266  0.00  0.00    +0.000 A 
ATOM      3  C   UNL     1       0.280   9.246  21.093  0.00  0.00    +0.000 A 
ATOM      4  C   UNL     1      -0.021  10.549  20.686  0.00  0.00    +0.000 A 
ATOM      5  N   UNL     1      -0.653  11.469  21.496  0.00  0.00    +0.000 N 
ATOM      6  C   UNL     1      -1.045  11.193  22.877  0.00  0.00    +0.000 C 
ATOM      7  C   UNL     1      -1.883  12.326  23.508  0.00  0.00    +0.000 C 
ATOM      8  C   UNL     1      -1.231  13.667  23.309  0.00  0.00    +0.000 A 
ATOM      9  C   UNL     1      -1.396  14.731  24.199  0.00  0.00    +0.000 A 
ATOM     10  C   UNL     1      -0.718  15.934  23.982  0.00  0.00    +0.000 A 
ATOM     11  C   UNL     1       0.155  16.066  22.903  0.00  0.00    +0.000 A 
ATOM     12  C   UNL     1       0.276  15.030  21.984  0.00  0.00    +0.000 A 
ATOM     13  C   UNL     1      -0.465  13.854  22.152  0.00  0.00    +0.000 A 
ATOM     14  C   UNL     1      -0.579  12.850  21.026  0.00  0.00    +0.000 C 
ATOM     15  N   UNL     1       0.337  10.955  19.443  0.00  0.00    +0.000 NA
ATOM     16  C   UNL     1       1.055  10.135  18.646  0.00  0.00    +0.000 A 
ENDROOT
BRANCH   1  18
ATOM     17  N   UNL     1       2.665   6.838  18.520  0.00  0.00    +0.000 N 
ATOM     18  C   UNL     1       2.317   8.116  18.106  0.00  0.00    +0.000 C 
ATOM     19  O   UNL     1       2.682   8.703  17.094  0.00  0.00    +0.000 OA
ATOM     20  H   UNL     1       2.296   6.521  19.406  0.00  0.00    +0.000 HD
BRANCH  17  27
ATOM     21  C   UNL     1       1.784   4.127  17.787  0.00  0.00    +0.000 C 
ATOM     22  C   UNL     1       3.165   4.658  17.522  0.00  0.00    +0.000 A 
ATOM     23  C   UNL     1       4.084   3.804  16.879  0.00  0.00    +0.000 A 
ATOM     24  C   UNL     1       5.385   4.217  16.602  0.00  0.00    +0.000 A 
ATOM     25  C   UNL     1       5.790   5.493  16.960  0.00  0.00    +0.000 A 
ATOM     26  C   UNL     1       4.894   6.356  17.588  0.00  0.00    +0.000 A 
ATOM     27  C   UNL     1       3.576   5.963  17.875  0.00  0.00    +0.000 A 
ENDBRANCH  17  27
ENDBRANCH   1  18
TORSDOF 2
ENDMDL
MODEL 9
REMARK VINA RESULT:      -7.7      5.468      7.357
REMARK  Name = 
REMARK  3 active torsions:
REMARK  status: ('A' for Active; 'I' for Inactive)
REMARK    1  A    between atoms: C_1  and  C_2
REMARK    2  A    between atoms: C_7  and  N_8
REMARK    3  A    between atoms: C_9  and  C_11
REMARK                            x       y       z     vdW  Elec       q    Type
REMARK                         _______ _______ _______ _____ _____    ______ ____
ROOT
ATOM      1  C   UNL     1       6.829   6.378  18.103  0.00  0.00    +0.000 A 
ATOM      2  C   UNL     1       6.470   7.351  17.179  0.00  0.00    +0.000 A 
ATOM      3  C   UNL     1       7.145   8.577  17.188  0.00  0.00    +0.000 A 
ATOM      4  C   UNL     1       8.156   8.822  18.121  0.00  0.00    +0.000 A 
ATOM      5  N   UNL     1       8.779  10.045  18.260  0.00  0.00    +0.000 N 
ATOM      6  C   UNL     1       8.425  11.224  17.472  0.00  0.00    +0.000 C 
ATOM      7  C   UNL     1       9.382  12.415  17.701  0.00  0.00    +0.000 C 
ATOM      8  C   UNL     1       9.576  12.689  19.167  0.00  0.00    +0.000 A 
ATOM      9  C   UNL     1       9.867  13.960  19.670  0.00  0.00    +0.000 A 
ATOM     10  C   UNL     1       9.982  14.155  21.049  0.00  0.00    +0.000 A 
ATOM     11  C   UNL     1       9.770  13.096  21.930  0.00  0.00    +0.000 A 
ATOM     12  C   UNL     1       9.539  11.819  21.431  0.00  0.00    +0.000 A 
ATOM     13  C   UNL     1       9.505  11.604  20.048  0.00  0.00    +0.000 A 
ATOM     14  C   UNL     1       9.555  10.199  19.488  0.00  0.00    +0.000 C 
ATOM     15  N   UNL     1       8.544   7.826  18.955  0.00  0.00    +0.000 NA
ATOM     16  C   UNL     1       7.896   6.642  18.940  0.00  0.00    +0.000 A 
ENDROOT
BRANCH   1  18
ATOM     17  N   UNL     1       4.764   5.118  18.177  0.00  0.00    +0.000 N 
ATOM     18  C   UNL     1       6.149   5.081  18.252  0.00  0.00    +0.000 C 
ATOM     19  O   UNL     1       6.863   4.111  18.479  0.00  0.00    +0.000 OA
ATOM     20  H   UNL     1       4.333   6.018  18.013  0.00  0.00    +0.000 HD
BRANCH  17  27
ATOM     21  C   UNL     1       2.642   5.408  20.196  0.00  0.00    +0.000 C 
ATOM     22  C   UNL     1       2.858   4.163  19.382  0.00  0.00    +0.000 A 
ATOM     23  C   UNL     1       1.986   3.077  19.601  0.00  0.00    +0.000 A 
ATOM     24  C   UNL     1       2.122   1.885  18.893  0.00  0.00    +0.000 A 
ATOM     25  C   UNL     1       3.130   1.758  17.951  0.00  0.00    +0.000 A 
ATOM     26  C   UNL     1       3.997   2.823  17.714  0.00  0.00    +0.000 A 
ATOM     27  C   UNL     1       3.878   4.036  18.413  0.00  0.00    +0.000 A 
ENDBRANCH  17  27
ENDBRANCH   1  18
TORSDOF 2
ENDMDL
