MODEL 1
REMARK VINA RESULT:      -7.3      0.000      0.000
REMARK  Name = 
REMARK  9 active torsions:
REMARK  status: ('A' for Active; 'I' for Inactive)
REMARK    1  A    between atoms: C_1  and  C_2
REMARK    2  A    between atoms: C_2  and  N_3
REMARK    3  A    between atoms: C_2  and  C_26
REMARK    4  A    between atoms: N_3  and  C_4
REMARK    5  A    between atoms: C_13  and  C_14
REMARK    6  A    between atoms: C_17  and  C_18
REMARK    7  A    between atoms: C_18  and  C_19
REMARK    8  A    between atoms: C_18  and  C_20
REMARK    9  A    between atoms: C_18  and  O_21
REMARK                            x       y       z     vdW  Elec       q    Type
REMARK                         _______ _______ _______ _____ _____    ______ ____
ROOT
ATOM      1  C   UNL     1      -2.964  13.043  20.574  0.00  0.00    +0.000 A 
ATOM      2  C   UNL     1      -3.330  14.331  21.026  0.00  0.00    +0.000 A 
ATOM      3 CL   UNL     1      -4.904  14.814  21.549  0.00  0.00    +0.000 Cl
ATOM      4  C   UNL     1      -2.345  15.287  21.183  0.00  0.00    +0.000 A 
ATOM      5  N   UNL     1      -1.031  15.051  21.039  0.00  0.00    +0.000 NA
ATOM      6  C   UNL     1      -0.628  13.795  20.793  0.00  0.00    +0.000 A 
ATOM      7  C   UNL     1       0.742  13.516  20.816  0.00  0.00    +0.000 A 
ATOM      8 CL   UNL     1       1.907  14.771  21.123  0.00  0.00    +0.000 Cl
ATOM      9  C   UNL     1       1.251  12.230  20.627  0.00  0.00    +0.000 A 
ATOM     10  C   UNL     1       0.402  11.152  20.374  0.00  0.00    +0.000 A 
ATOM     11  C   UNL     1      -0.983  11.435  20.330  0.00  0.00    +0.000 A 
ATOM     12  C   UNL     1      -1.543  12.738  20.552  0.00  0.00    +0.000 A 
ENDROOT
BRANCH  10  13
ATOM     13  C   UNL     1       0.945   9.789  20.182  0.00  0.00    +0.000 A 
ATOM     14  C   UNL     1       0.971   8.818  21.171  0.00  0.00    +0.000 A 
ATOM     15  N   UNL     1       1.451   7.560  21.019  0.00  0.00    +0.000 NA
ATOM     16  C   UNL     1       1.962   7.253  19.806  0.00  0.00    +0.000 A 
ATOM     17  N   UNL     1       2.011   8.111  18.774  0.00  0.00    +0.000 NA
ATOM     18  C   UNL     1       1.499   9.345  18.989  0.00  0.00    +0.000 A 
BRANCH  16  19
ATOM     19  C   UNL     1       2.491   5.829  19.614  0.00  0.00    +0.000 C 
ATOM     20  C   UNL     1       1.785   4.868  20.571  0.00  0.00    +0.000 C 
ATOM     21  C   UNL     1       2.320   5.383  18.161  0.00  0.00    +0.000 C 
BRANCH  19  22
ATOM     22  O   UNL     1       3.898   5.759  19.922  0.00  0.00    +0.000 OA
ATOM     23  H   UNL     1       4.312   6.472  19.395  0.00  0.00    +0.000 HD
ENDBRANCH  19  22
ENDBRANCH  16  19
ENDBRANCH  10  13
BRANCH   1  24
ATOM     24  N   UNL     1      -3.904  12.010  20.291  0.00  0.00    +0.000 N 
ATOM     25  H   UNL     1      -3.463  11.096  20.317  0.00  0.00    +0.000 HD
BRANCH  24  27
ATOM     26  C   UNL     1      -6.141  11.518  19.379  0.00  0.00    +0.000 C 
ATOM     27  C   UNL     1      -4.752  12.091  19.077  0.00  0.00    +0.000 C 
BRANCH  27  28
ATOM     28  C   UNL     1      -4.098  11.340  17.927  0.00  0.00    +0.000 A 
ATOM     29  C   UNL     1      -3.159  10.316  18.132  0.00  0.00    +0.000 A 
ATOM     30  C   UNL     1      -2.613   9.624  17.048  0.00  0.00    +0.000 A 
ATOM     31  C   UNL     1      -2.990   9.947  15.746  0.00  0.00    +0.000 A 
ATOM     32  C   UNL     1      -3.918  10.964  15.526  0.00  0.00    +0.000 A 
ATOM     33  C   UNL     1      -4.461  11.647  16.609  0.00  0.00    +0.000 A 
ATOM     34  F   UNL     1      -5.364  12.607  16.365  0.00  0.00    +0.000 F 
ENDBRANCH  27  28
ENDBRANCH  24  27
ENDBRANCH   1  24
TORSDOF 6
ENDMDL
MODEL 2
REMARK VINA RESULT:      -7.2      3.922      6.977
REMARK  Name = 
REMARK  9 active torsions:
REMARK  status: ('A' for Active; 'I' for Inactive)
REMARK    1  A    between atoms: C_1  and  C_2
REMARK    2  A    between atoms: C_2  and  N_3
REMARK    3  A    between atoms: C_2  and  C_26
REMARK    4  A    between atoms: N_3  and  C_4
REMARK    5  A    between atoms: C_13  and  C_14
REMARK    6  A    between atoms: C_17  and  C_18
REMARK    7  A    between atoms: C_18  and  C_19
REMARK    8  A    between atoms: C_18  and  C_20
REMARK    9  A    between atoms: C_18  and  O_21
REMARK                            x       y       z     vdW  Elec       q    Type
REMARK                         _______ _______ _______ _____ _____    ______ ____
ROOT
ATOM      1  C   UNL     1      -3.292  11.548  18.042  0.00  0.00    +0.000 A 
ATOM      2  C   UNL     1      -3.025  10.752  16.904  0.00  0.00    +0.000 A 
ATOM      3 CL   UNL     1      -3.821  10.869  15.375  0.00  0.00    +0.000 Cl
ATOM      4  C   UNL     1      -1.965   9.867  16.945  0.00  0.00    +0.000 A 
ATOM      5  N   UNL     1      -1.091   9.779  17.959  0.00  0.00    +0.000 NA
ATOM      6  C   UNL     1      -1.199  10.646  18.977  0.00  0.00    +0.000 A 
ATOM      7  C   UNL     1      -0.189  10.671  19.945  0.00  0.00    +0.000 A 
ATOM      8 CL   UNL     1       1.163   9.581  19.856  0.00  0.00    +0.000 Cl
ATOM      9  C   UNL     1      -0.189  11.576  21.007  0.00  0.00    +0.000 A 
ATOM     10  C   UNL     1      -1.227  12.493  21.170  0.00  0.00    +0.000 A 
ATOM     11  C   UNL     1      -2.260  12.456  20.204  0.00  0.00    +0.000 A 
ATOM     12  C   UNL     1      -2.277  11.563  19.082  0.00  0.00    +0.000 A 
ENDROOT
BRANCH  10  13
ATOM     13  C   UNL     1      -1.219  13.455  22.294  0.00  0.00    +0.000 A 
ATOM     14  C   UNL     1      -2.198  13.514  23.272  0.00  0.00    +0.000 A 
ATOM     15  N   UNL     1      -2.210  14.377  24.317  0.00  0.00    +0.000 NA
ATOM     16  C   UNL     1      -1.187  15.258  24.381  0.00  0.00    +0.000 A 
ATOM     17  N   UNL     1      -0.189  15.314  23.484  0.00  0.00    +0.000 NA
ATOM     18  C   UNL     1      -0.231  14.414  22.476  0.00  0.00    +0.000 A 
BRANCH  16  19
ATOM     19  C   UNL     1      -1.176  16.227  25.567  0.00  0.00    +0.000 C 
ATOM     20  C   UNL     1       0.124  17.031  25.581  0.00  0.00    +0.000 C 
ATOM     21  C   UNL     1      -2.394  17.150  25.519  0.00  0.00    +0.000 C 
BRANCH  19  22
ATOM     22  O   UNL     1      -1.230  15.508  26.816  0.00  0.00    +0.000 OA
ATOM     23  H   UNL     1      -2.095  15.740  27.208  0.00  0.00    +0.000 HD
ENDBRANCH  19  22
ENDBRANCH  16  19
ENDBRANCH  10  13
BRANCH   1  24
ATOM     24  N   UNL     1      -4.410  12.426  18.145  0.00  0.00    +0.000 N 
ATOM     25  H   UNL     1      -4.277  13.102  18.890  0.00  0.00    +0.000 HD
BRANCH  24  27
ATOM     26  C   UNL     1      -6.701  12.584  17.249  0.00  0.00    +0.000 C 
ATOM     27  C   UNL     1      -5.782  11.872  18.248  0.00  0.00    +0.000 C 
BRANCH  27  28
ATOM     28  C   UNL     1      -6.307  12.027  19.667  0.00  0.00    +0.000 A 
ATOM     29  C   UNL     1      -5.980  13.128  20.476  0.00  0.00    +0.000 A 
ATOM     30  C   UNL     1      -6.517  13.252  21.761  0.00  0.00    +0.000 A 
ATOM     31  C   UNL     1      -7.381  12.278  22.257  0.00  0.00    +0.000 A 
ATOM     32  C   UNL     1      -7.712  11.178  21.468  0.00  0.00    +0.000 A 
ATOM     33  C   UNL     1      -7.177  11.061  20.190  0.00  0.00    +0.000 A 
ATOM     34  F   UNL     1      -7.528  10.001  19.449  0.00  0.00    +0.000 F 
ENDBRANCH  27  28
ENDBRANCH  24  27
ENDBRANCH   1  24
TORSDOF 6
ENDMDL
MODEL 3
REMARK VINA RESULT:      -7.1      1.030      1.393
REMARK  Name = 
REMARK  9 active torsions:
REMARK  status: ('A' for Active; 'I' for Inactive)
REMARK    1  A    between atoms: C_1  and  C_2
REMARK    2  A    between atoms: C_2  and  N_3
REMARK    3  A    between atoms: C_2  and  C_26
REMARK    4  A    between atoms: N_3  and  C_4
REMARK    5  A    between atoms: C_13  and  C_14
REMARK    6  A    between atoms: C_17  and  C_18
REMARK    7  A    between atoms: C_18  and  C_19
REMARK    8  A    between atoms: C_18  and  C_20
REMARK    9  A    between atoms: C_18  and  O_21
REMARK                            x       y       z     vdW  Elec       q    Type
REMARK                         _______ _______ _______ _____ _____    ______ ____
ROOT
ATOM      1  C   UNL     1      -2.279  13.360  20.162  0.00  0.00    +0.000 A 
ATOM      2  C   UNL     1      -2.552  14.683  20.579  0.00  0.00    +0.000 A 
ATOM      3 CL   UNL     1      -3.970  15.211  21.415  0.00  0.00    +0.000 Cl
ATOM      4  C   UNL     1      -1.575  15.646  20.422  0.00  0.00    +0.000 A 
ATOM      5  N   UNL     1      -0.328  15.397  19.994  0.00  0.00    +0.000 NA
ATOM      6  C   UNL     1       0.029  14.124  19.763  0.00  0.00    +0.000 A 
ATOM      7  C   UNL     1       1.372  13.846  19.488  0.00  0.00    +0.000 A 
ATOM      8 CL   UNL     1       2.553  15.120  19.409  0.00  0.00    +0.000 Cl
ATOM      9  C   UNL     1       1.845  12.547  19.292  0.00  0.00    +0.000 A 
ATOM     10  C   UNL     1       0.981  11.453  19.334  0.00  0.00    +0.000 A 
ATOM     11  C   UNL     1      -0.381  11.734  19.593  0.00  0.00    +0.000 A 
ATOM     12  C   UNL     1      -0.897  13.052  19.832  0.00  0.00    +0.000 A 
ENDROOT
BRANCH  10  13
ATOM     13  C   UNL     1       1.488  10.078  19.133  0.00  0.00    +0.000 A 
ATOM     14  C   UNL     1       2.084   9.635  17.963  0.00  0.00    +0.000 A 
ATOM     15  N   UNL     1       2.567   8.386  17.756  0.00  0.00    +0.000 NA
ATOM     16  C   UNL     1       2.427   7.510  18.775  0.00  0.00    +0.000 A 
ATOM     17  N   UNL     1       1.851   7.812  19.950  0.00  0.00    +0.000 NA
ATOM     18  C   UNL     1       1.406   9.081  20.096  0.00  0.00    +0.000 A 
BRANCH  16  19
ATOM     19  C   UNL     1       2.985   6.100  18.563  0.00  0.00    +0.000 C 
ATOM     20  C   UNL     1       1.858   5.133  18.200  0.00  0.00    +0.000 C 
ATOM     21  C   UNL     1       4.072   6.108  17.487  0.00  0.00    +0.000 C 
BRANCH  19  22
ATOM     22  O   UNL     1       3.585   5.598  19.776  0.00  0.00    +0.000 OA
ATOM     23  H   UNL     1       3.443   6.301  20.441  0.00  0.00    +0.000 HD
ENDBRANCH  19  22
ENDBRANCH  16  19
ENDBRANCH  10  13
BRANCH   1  24
ATOM     24  N   UNL     1      -3.240  12.308  20.193  0.00  0.00    +0.000 N 
ATOM     25  H   UNL     1      -2.789  11.402  20.265  0.00  0.00    +0.000 HD
BRANCH  24  27
ATOM     26  C   UNL     1      -5.565  11.623  19.743  0.00  0.00    +0.000 C 
ATOM     27  C   UNL     1      -4.290  12.232  19.148  0.00  0.00    +0.000 C 
BRANCH  27  28
ATOM     28  C   UNL     1      -3.800  11.408  17.967  0.00  0.00    +0.000 A 
ATOM     29  C   UNL     1      -2.825  10.406  18.101  0.00  0.00    +0.000 A 
ATOM     30  C   UNL     1      -2.432   9.644  16.997  0.00  0.00    +0.000 A 
ATOM     31  C   UNL     1      -3.000   9.875  15.746  0.00  0.00    +0.000 A 
ATOM     32  C   UNL     1      -3.966  10.868  15.597  0.00  0.00    +0.000 A 
ATOM     33  C   UNL     1      -4.355  11.622  16.699  0.00  0.00    +0.000 A 
ATOM     34  F   UNL     1      -5.299  12.558  16.527  0.00  0.00    +0.000 F 
ENDBRANCH  27  28
ENDBRANCH  24  27
ENDBRANCH   1  24
TORSDOF 6
ENDMDL
MODEL 4
REMARK VINA RESULT:      -7.0      2.892      3.985
REMARK  Name = 
REMARK  9 active torsions:
REMARK  status: ('A' for Active; 'I' for Inactive)
REMARK    1  A    between atoms: C_1  and  C_2
REMARK    2  A    between atoms: C_2  and  N_3
REMARK    3  A    between atoms: C_2  and  C_26
REMARK    4  A    between atoms: N_3  and  C_4
REMARK    5  A    between atoms: C_13  and  C_14
REMARK    6  A    between atoms: C_17  and  C_18
REMARK    7  A    between atoms: C_18  and  C_19
REMARK    8  A    between atoms: C_18  and  C_20
REMARK    9  A    between atoms: C_18  and  O_21
REMARK                            x       y       z     vdW  Elec       q    Type
REMARK                         _______ _______ _______ _____ _____    ______ ____
ROOT
ATOM      1  C   UNL     1      -1.700  13.785  20.284  0.00  0.00    +0.000 A 
ATOM      2  C   UNL     1      -1.769  15.194  20.373  0.00  0.00    +0.000 A 
ATOM      3 CL   UNL     1      -2.864  16.096  21.359  0.00  0.00    +0.000 Cl
ATOM      4  C   UNL     1      -0.821  15.950  19.712  0.00  0.00    +0.000 A 
ATOM      5  N   UNL     1       0.241  15.440  19.069  0.00  0.00    +0.000 NA
ATOM      6  C   UNL     1       0.445  14.115  19.119  0.00  0.00    +0.000 A 
ATOM      7  C   UNL     1       1.640  13.603  18.601  0.00  0.00    +0.000 A 
ATOM      8 CL   UNL     1       2.823  14.650  17.875  0.00  0.00    +0.000 Cl
ATOM      9  C   UNL     1       1.963  12.246  18.660  0.00  0.00    +0.000 A 
ATOM     10  C   UNL     1       1.083  11.321  19.222  0.00  0.00    +0.000 A 
ATOM     11  C   UNL     1      -0.133  11.834  19.728  0.00  0.00    +0.000 A 
ATOM     12  C   UNL     1      -0.485  13.225  19.714  0.00  0.00    +0.000 A 
ENDROOT
BRANCH  10  13
ATOM     13  C   UNL     1       1.434   9.886  19.289  0.00  0.00    +0.000 A 
ATOM     14  C   UNL     1       1.905   9.151  18.212  0.00  0.00    +0.000 A 
ATOM     15  N   UNL     1       2.245   7.840  18.248  0.00  0.00    +0.000 NA
ATOM     16  C   UNL     1       2.082   7.208  19.432  0.00  0.00    +0.000 A 
ATOM     17  N   UNL     1       1.616   7.804  20.542  0.00  0.00    +0.000 NA
ATOM     18  C   UNL     1       1.313   9.119  20.440  0.00  0.00    +0.000 A 
BRANCH  16  19
ATOM     19  C   UNL     1       2.479   5.731  19.493  0.00  0.00    +0.000 C 
ATOM     20  C   UNL     1       1.649   5.003  20.551  0.00  0.00    +0.000 C 
ATOM     21  C   UNL     1       2.321   5.074  18.121  0.00  0.00    +0.000 C 
BRANCH  19  22
ATOM     22  O   UNL     1       3.861   5.587  19.882  0.00  0.00    +0.000 OA
ATOM     23  H   UNL     1       3.834   5.268  20.807  0.00  0.00    +0.000 HD
ENDBRANCH  19  22
ENDBRANCH  16  19
ENDBRANCH  10  13
BRANCH   1  24
ATOM     24  N   UNL     1      -2.673  12.910  20.848  0.00  0.00    +0.000 N 
ATOM     25  H   UNL     1      -3.553  12.969  20.346  0.00  0.00    +0.000 HD
BRANCH  24  27
ATOM     26  C   UNL     1      -2.204  11.822  23.010  0.00  0.00    +0.000 C 
ATOM     27  C   UNL     1      -2.956  12.956  22.304  0.00  0.00    +0.000 C 
BRANCH  27  28
ATOM     28  C   UNL     1      -4.453  12.847  22.553  0.00  0.00    +0.000 A 
ATOM     29  C   UNL     1      -5.374  12.616  21.518  0.00  0.00    +0.000 A 
ATOM     30  C   UNL     1      -6.738  12.482  21.797  0.00  0.00    +0.000 A 
ATOM     31  C   UNL     1      -7.200  12.582  23.108  0.00  0.00    +0.000 A 
ATOM     32  C   UNL     1      -6.298  12.815  24.145  0.00  0.00    +0.000 A 
ATOM     33  C   UNL     1      -4.943  12.944  23.862  0.00  0.00    +0.000 A 
ATOM     34  F   UNL     1      -4.099  13.150  24.883  0.00  0.00    +0.000 F 
ENDBRANCH  27  28
ENDBRANCH  24  27
ENDBRANCH   1  24
TORSDOF 6
ENDMDL
MODEL 5
REMARK VINA RESULT:      -6.9      2.280      3.336
REMARK  Name = 
REMARK  9 active torsions:
REMARK  status: ('A' for Active; 'I' for Inactive)
REMARK    1  A    between atoms: C_1  and  C_2
REMARK    2  A    between atoms: C_2  and  N_3
REMARK    3  A    between atoms: C_2  and  C_26
REMARK    4  A    between atoms: N_3  and  C_4
REMARK    5  A    between atoms: C_13  and  C_14
REMARK    6  A    between atoms: C_17  and  C_18
REMARK    7  A    between atoms: C_18  and  C_19
REMARK    8  A    between atoms: C_18  and  C_20
REMARK    9  A    between atoms: C_18  and  O_21
REMARK                            x       y       z     vdW  Elec       q    Type
REMARK                         _______ _______ _______ _____ _____    ______ ____
ROOT
ATOM      1  C   UNL     1      -1.679  11.107  18.827  0.00  0.00    +0.000 A 
ATOM      2  C   UNL     1      -2.089  12.387  19.265  0.00  0.00    +0.000 A 
ATOM      3 CL   UNL     1      -3.596  12.768  20.019  0.00  0.00    +0.000 Cl
ATOM      4  C   UNL     1      -1.188  13.432  19.202  0.00  0.00    +0.000 A 
ATOM      5  N   UNL     1       0.101  13.301  18.851  0.00  0.00    +0.000 NA
ATOM      6  C   UNL     1       0.577  12.071  18.608  0.00  0.00    +0.000 A 
ATOM      7  C   UNL     1       1.954  11.913  18.415  0.00  0.00    +0.000 A 
ATOM      8 CL   UNL     1       3.026  13.281  18.453  0.00  0.00    +0.000 Cl
ATOM      9  C   UNL     1       2.546  10.665  18.212  0.00  0.00    +0.000 A 
ATOM     10  C   UNL     1       1.775   9.503  18.164  0.00  0.00    +0.000 A 
ATOM     11  C   UNL     1       0.381   9.663  18.339  0.00  0.00    +0.000 A 
ATOM     12  C   UNL     1      -0.258  10.924  18.582  0.00  0.00    +0.000 A 
ENDROOT
BRANCH  10  13
ATOM     13  C   UNL     1       2.407   8.182  17.956  0.00  0.00    +0.000 A 
ATOM     14  C   UNL     1       1.849   6.982  18.366  0.00  0.00    +0.000 A 
ATOM     15  N   UNL     1       2.401   5.758  18.179  0.00  0.00    +0.000 NA
ATOM     16  C   UNL     1       3.602   5.727  17.562  0.00  0.00    +0.000 A 
ATOM     17  N   UNL     1       4.254   6.822  17.135  0.00  0.00    +0.000 NA
ATOM     18  C   UNL     1       3.639   8.009  17.339  0.00  0.00    +0.000 A 
BRANCH  16  19
ATOM     19  C   UNL     1       4.229   4.350  17.326  0.00  0.00    +0.000 C 
ATOM     20  C   UNL     1       3.145   3.272  17.303  0.00  0.00    +0.000 C 
ATOM     21  C   UNL     1       5.041   4.343  16.030  0.00  0.00    +0.000 C 
BRANCH  19  22
ATOM     22  O   UNL     1       5.130   4.007  18.400  0.00  0.00    +0.000 OA
ATOM     23  H   UNL     1       6.022   4.016  17.998  0.00  0.00    +0.000 HD
ENDBRANCH  19  22
ENDBRANCH  16  19
ENDBRANCH  10  13
BRANCH   1  24
ATOM     24  N   UNL     1      -2.549   9.980  18.762  0.00  0.00    +0.000 N 
ATOM     25  H   UNL     1      -2.050   9.120  18.962  0.00  0.00    +0.000 HD
BRANCH  24  27
ATOM     26  C   UNL     1      -2.586  10.062  16.299  0.00  0.00    +0.000 C 
ATOM     27  C   UNL     1      -3.398   9.766  17.565  0.00  0.00    +0.000 C 
BRANCH  27  28
ATOM     28  C   UNL     1      -4.634  10.650  17.630  0.00  0.00    +0.000 A 
ATOM     29  C   UNL     1      -4.750  11.839  16.892  0.00  0.00    +0.000 A 
ATOM     30  C   UNL     1      -5.920  12.602  16.950  0.00  0.00    +0.000 A 
ATOM     31  C   UNL     1      -6.986  12.192  17.749  0.00  0.00    +0.000 A 
ATOM     32  C   UNL     1      -6.885  11.016  18.490  0.00  0.00    +0.000 A 
ATOM     33  C   UNL     1      -5.719  10.260  18.426  0.00  0.00    +0.000 A 
ATOM     34  F   UNL     1      -5.659   9.125  19.137  0.00  0.00    +0.000 F 
ENDBRANCH  27  28
ENDBRANCH  24  27
ENDBRANCH   1  24
TORSDOF 6
ENDMDL
MODEL 6
REMARK VINA RESULT:      -6.9      4.097      7.027
REMARK  Name = 
REMARK  9 active torsions:
REMARK  status: ('A' for Active; 'I' for Inactive)
REMARK    1  A    between atoms: C_1  and  C_2
REMARK    2  A    between atoms: C_2  and  N_3
REMARK    3  A    between atoms: C_2  and  C_26
REMARK    4  A    between atoms: N_3  and  C_4
REMARK    5  A    between atoms: C_13  and  C_14
REMARK    6  A    between atoms: C_17  and  C_18
REMARK    7  A    between atoms: C_18  and  C_19
REMARK    8  A    between atoms: C_18  and  C_20
REMARK    9  A    between atoms: C_18  and  O_21
REMARK                            x       y       z     vdW  Elec       q    Type
REMARK                         _______ _______ _______ _____ _____    ______ ____
ROOT
ATOM      1  C   UNL     1      -3.533  11.521  17.862  0.00  0.00    +0.000 A 
ATOM      2  C   UNL     1      -3.223  10.680  16.769  0.00  0.00    +0.000 A 
ATOM      3 CL   UNL     1      -4.004  10.689  15.228  0.00  0.00    +0.000 Cl
ATOM      4  C   UNL     1      -2.133   9.837  16.866  0.00  0.00    +0.000 A 
ATOM      5  N   UNL     1      -1.268   9.832  17.893  0.00  0.00    +0.000 NA
ATOM      6  C   UNL     1      -1.420  10.745  18.864  0.00  0.00    +0.000 A 
ATOM      7  C   UNL     1      -0.424  10.856  19.839  0.00  0.00    +0.000 A 
ATOM      8 CL   UNL     1       0.968   9.813  19.820  0.00  0.00    +0.000 Cl
ATOM      9  C   UNL     1      -0.469  11.814  20.854  0.00  0.00    +0.000 A 
ATOM     10  C   UNL     1      -1.541  12.699  20.959  0.00  0.00    +0.000 A 
ATOM     11  C   UNL     1      -2.560  12.576  19.986  0.00  0.00    +0.000 A 
ATOM     12  C   UNL     1      -2.531  11.626  18.910  0.00  0.00    +0.000 A 
ENDROOT
BRANCH  10  13
ATOM     13  C   UNL     1      -1.581  13.717  22.031  0.00  0.00    +0.000 A 
ATOM     14  C   UNL     1      -2.745  14.310  22.495  0.00  0.00    +0.000 A 
ATOM     15  N   UNL     1      -2.811  15.236  23.483  0.00  0.00    +0.000 NA
ATOM     16  C   UNL     1      -1.636  15.616  24.032  0.00  0.00    +0.000 A 
ATOM     17  N   UNL     1      -0.442  15.130  23.657  0.00  0.00    +0.000 NA
ATOM     18  C   UNL     1      -0.449  14.197  22.677  0.00  0.00    +0.000 A 
BRANCH  16  19
ATOM     19  C   UNL     1      -1.697  16.647  25.162  0.00  0.00    +0.000 C 
ATOM     20  C   UNL     1      -1.085  16.070  26.439  0.00  0.00    +0.000 C 
ATOM     21  C   UNL     1      -0.993  17.940  24.749  0.00  0.00    +0.000 C 
BRANCH  19  22
ATOM     22  O   UNL     1      -3.065  16.983  25.476  0.00  0.00    +0.000 OA
ATOM     23  H   UNL     1      -3.607  16.439  24.871  0.00  0.00    +0.000 HD
ENDBRANCH  19  22
ENDBRANCH  16  19
ENDBRANCH  10  13
BRANCH   1  24
ATOM     24  N   UNL     1      -4.682  12.363  17.908  0.00  0.00    +0.000 N 
ATOM     25  H   UNL     1      -4.750  12.842  18.800  0.00  0.00    +0.000 HD
BRANCH  24  27
ATOM     26  C   UNL     1      -6.900  12.931  16.994  0.00  0.00    +0.000 C 
ATOM     27  C   UNL     1      -6.017  11.815  17.564  0.00  0.00    +0.000 C 
BRANCH  27  28
ATOM     28  C   UNL     1      -6.663  11.190  18.791  0.00  0.00    +0.000 A 
ATOM     29  C   UNL     1      -6.832   9.803  18.930  0.00  0.00    +0.000 A 
ATOM     30  C   UNL     1      -7.394   9.267  20.092  0.00  0.00    +0.000 A 
ATOM     31  C   UNL     1      -7.800  10.108  21.127  0.00  0.00    +0.000 A 
ATOM     32  C   UNL     1      -7.642  11.487  21.003  0.00  0.00    +0.000 A 
ATOM     33  C   UNL     1      -7.079  12.014  19.845  0.00  0.00    +0.000 A 
ATOM     34  F   UNL     1      -6.925  13.343  19.763  0.00  0.00    +0.000 F 
ENDBRANCH  27  28
ENDBRANCH  24  27
ENDBRANCH   1  24
TORSDOF 6
ENDMDL
MODEL 7
REMARK VINA RESULT:      -6.8      4.053      7.026
REMARK  Name = 
REMARK  9 active torsions:
REMARK  status: ('A' for Active; 'I' for Inactive)
REMARK    1  A    between atoms: C_1  and  C_2
REMARK    2  A    between atoms: C_2  and  N_3
REMARK    3  A    between atoms: C_2  and  C_26
REMARK    4  A    between atoms: N_3  and  C_4
REMARK    5  A    between atoms: C_13  and  C_14
REMARK    6  A    between atoms: C_17  and  C_18
REMARK    7  A    between atoms: C_18  and  C_19
REMARK    8  A    between atoms: C_18  and  C_20
REMARK    9  A    between atoms: C_18  and  O_21
REMARK                            x       y       z     vdW  Elec       q    Type
REMARK                         _______ _______ _______ _____ _____    ______ ____
ROOT
ATOM      1  C   UNL     1      -3.467  11.509  17.598  0.00  0.00    +0.000 A 
ATOM      2  C   UNL     1      -3.121  10.652  16.529  0.00  0.00    +0.000 A 
ATOM      3 CL   UNL     1      -3.768  10.713  14.927  0.00  0.00    +0.000 Cl
ATOM      4  C   UNL     1      -2.098   9.742  16.710  0.00  0.00    +0.000 A 
ATOM      5  N   UNL     1      -1.324   9.680  17.804  0.00  0.00    +0.000 NA
ATOM      6  C   UNL     1      -1.499  10.599  18.766  0.00  0.00    +0.000 A 
ATOM      7  C   UNL     1      -0.582  10.645  19.822  0.00  0.00    +0.000 A 
ATOM      8 CL   UNL     1       0.738   9.516  19.911  0.00  0.00    +0.000 Cl
ATOM      9  C   UNL     1      -0.651  11.602  20.836  0.00  0.00    +0.000 A 
ATOM     10  C   UNL     1      -1.671  12.553  20.857  0.00  0.00    +0.000 A 
ATOM     11  C   UNL     1      -2.610  12.496  19.802  0.00  0.00    +0.000 A 
ATOM     12  C   UNL     1      -2.552  11.549  18.726  0.00  0.00    +0.000 A 
ENDROOT
BRANCH  10  13
ATOM     13  C   UNL     1      -1.736  13.570  21.930  0.00  0.00    +0.000 A 
ATOM     14  C   UNL     1      -0.685  13.864  22.785  0.00  0.00    +0.000 A 
ATOM     15  N   UNL     1      -0.714  14.797  23.767  0.00  0.00    +0.000 NA
ATOM     16  C   UNL     1      -1.875  15.468  23.926  0.00  0.00    +0.000 A 
ATOM     17  N   UNL     1      -2.970  15.262  23.175  0.00  0.00    +0.000 NA
ATOM     18  C   UNL     1      -2.867  14.328  22.202  0.00  0.00    +0.000 A 
BRANCH  16  19
ATOM     19  C   UNL     1      -1.917  16.539  25.020  0.00  0.00    +0.000 C 
ATOM     20  C   UNL     1      -3.357  16.986  25.270  0.00  0.00    +0.000 C 
ATOM     21  C   UNL     1      -1.270  16.021  26.305  0.00  0.00    +0.000 C 
BRANCH  19  22
ATOM     22  O   UNL     1      -1.185  17.715  24.614  0.00  0.00    +0.000 OA
ATOM     23  H   UNL     1      -0.577  17.907  25.357  0.00  0.00    +0.000 HD
ENDBRANCH  19  22
ENDBRANCH  16  19
ENDBRANCH  10  13
BRANCH   1  24
ATOM     24  N   UNL     1      -4.561  12.422  17.554  0.00  0.00    +0.000 N 
ATOM     25  H   UNL     1      -4.549  13.047  18.353  0.00  0.00    +0.000 HD
BRANCH  24  27
ATOM     26  C   UNL     1      -6.821  13.017  16.769  0.00  0.00    +0.000 C 
ATOM     27  C   UNL     1      -5.943  11.915  17.372  0.00  0.00    +0.000 C 
BRANCH  27  28
ATOM     28  C   UNL     1      -6.510  11.442  18.701  0.00  0.00    +0.000 A 
ATOM     29  C   UNL     1      -6.914  10.114  18.919  0.00  0.00    +0.000 A 
ATOM     30  C   UNL     1      -7.393   9.711  20.169  0.00  0.00    +0.000 A 
ATOM     31  C   UNL     1      -7.481  10.628  21.215  0.00  0.00    +0.000 A 
ATOM     32  C   UNL     1      -7.087  11.949  21.014  0.00  0.00    +0.000 A 
ATOM     33  C   UNL     1      -6.609  12.343  19.769  0.00  0.00    +0.000 A 
ATOM     34  F   UNL     1      -6.222  13.617  19.612  0.00  0.00    +0.000 F 
ENDBRANCH  27  28
ENDBRANCH  24  27
ENDBRANCH   1  24
TORSDOF 6
ENDMDL
MODEL 8
REMARK VINA RESULT:      -6.8      2.944      3.966
REMARK  Name = 
REMARK  9 active torsions:
REMARK  status: ('A' for Active; 'I' for Inactive)
REMARK    1  A    between atoms: C_1  and  C_2
REMARK    2  A    between atoms: C_2  and  N_3
REMARK    3  A    between atoms: C_2  and  C_26
REMARK    4  A    between atoms: N_3  and  C_4
REMARK    5  A    between atoms: C_13  and  C_14
REMARK    6  A    between atoms: C_17  and  C_18
REMARK    7  A    between atoms: C_18  and  C_19
REMARK    8  A    between atoms: C_18  and  C_20
REMARK    9  A    between atoms: C_18  and  O_21
REMARK                            x       y       z     vdW  Elec       q    Type
REMARK                         _______ _______ _______ _____ _____    ______ ____
ROOT
ATOM      1  C   UNL     1      -1.509  13.763  20.154  0.00  0.00    +0.000 A 
ATOM      2  C   UNL     1      -1.570  15.171  20.264  0.00  0.00    +0.000 A 
ATOM      3 CL   UNL     1      -2.649  16.064  21.276  0.00  0.00    +0.000 Cl
ATOM      4  C   UNL     1      -0.626  15.932  19.602  0.00  0.00    +0.000 A 
ATOM      5  N   UNL     1       0.425  15.426  18.939  0.00  0.00    +0.000 NA
ATOM      6  C   UNL     1       0.623  14.100  18.967  0.00  0.00    +0.000 A 
ATOM      7  C   UNL     1       1.809  13.589  18.428  0.00  0.00    +0.000 A 
ATOM      8 CL   UNL     1       2.989  14.641  17.702  0.00  0.00    +0.000 Cl
ATOM      9  C   UNL     1       2.127  12.230  18.463  0.00  0.00    +0.000 A 
ATOM     10  C   UNL     1       1.249  11.302  19.023  0.00  0.00    +0.000 A 
ATOM     11  C   UNL     1       0.041  11.813  19.551  0.00  0.00    +0.000 A 
ATOM     12  C   UNL     1      -0.304  13.205  19.561  0.00  0.00    +0.000 A 
ENDROOT
BRANCH  10  13
ATOM     13  C   UNL     1       1.594   9.864  19.065  0.00  0.00    +0.000 A 
ATOM     14  C   UNL     1       1.391   9.050  20.169  0.00  0.00    +0.000 A 
ATOM     15  N   UNL     1       1.687   7.728  20.231  0.00  0.00    +0.000 NA
ATOM     16  C   UNL     1       2.244   7.184  19.127  0.00  0.00    +0.000 A 
ATOM     17  N   UNL     1       2.507   7.870  18.003  0.00  0.00    +0.000 NA
ATOM     18  C   UNL     1       2.172   9.181  18.003  0.00  0.00    +0.000 A 
BRANCH  16  19
ATOM     19  C   UNL     1       2.566   5.687  19.176  0.00  0.00    +0.000 C 
ATOM     20  C   UNL     1       1.992   4.982  17.946  0.00  0.00    +0.000 C 
ATOM     21  C   UNL     1       4.074   5.465  19.285  0.00  0.00    +0.000 C 
BRANCH  19  22
ATOM     22  O   UNL     1       1.955   5.069  20.328  0.00  0.00    +0.000 OA
ATOM     23  H   UNL     1       2.552   4.332  20.569  0.00  0.00    +0.000 HD
ENDBRANCH  19  22
ENDBRANCH  16  19
ENDBRANCH  10  13
BRANCH   1  24
ATOM     24  N   UNL     1      -2.480  12.885  20.718  0.00  0.00    +0.000 N 
ATOM     25  H   UNL     1      -3.364  12.951  20.224  0.00  0.00    +0.000 HD
BRANCH  24  27
ATOM     26  C   UNL     1      -2.018  11.753  22.859  0.00  0.00    +0.000 C 
ATOM     27  C   UNL     1      -2.749  12.915  22.176  0.00  0.00    +0.000 C 
BRANCH  27  28
ATOM     28  C   UNL     1      -4.245  12.838  22.437  0.00  0.00    +0.000 A 
ATOM     29  C   UNL     1      -5.176  12.581  21.417  0.00  0.00    +0.000 A 
ATOM     30  C   UNL     1      -6.540  12.479  21.707  0.00  0.00    +0.000 A 
ATOM     31  C   UNL     1      -6.993  12.637  23.016  0.00  0.00    +0.000 A 
ATOM     32  C   UNL     1      -6.082  12.897  24.038  0.00  0.00    +0.000 A 
ATOM     33  C   UNL     1      -4.726  12.995  23.744  0.00  0.00    +0.000 A 
ATOM     34  F   UNL     1      -3.873  13.228  24.751  0.00  0.00    +0.000 F 
ENDBRANCH  27  28
ENDBRANCH  24  27
ENDBRANCH   1  24
TORSDOF 6
ENDMDL
MODEL 9
REMARK VINA RESULT:      -6.7      4.423      6.413
REMARK  Name = 
REMARK  9 active torsions:
REMARK  status: ('A' for Active; 'I' for Inactive)
REMARK    1  A    between atoms: C_1  and  C_2
REMARK    2  A    between atoms: C_2  and  N_3
REMARK    3  A    between atoms: C_2  and  C_26
REMARK    4  A    between atoms: N_3  and  C_4
REMARK    5  A    between atoms: C_13  and  C_14
REMARK    6  A    between atoms: C_17  and  C_18
REMARK    7  A    between atoms: C_18  and  C_19
REMARK    8  A    between atoms: C_18  and  C_20
REMARK    9  A    between atoms: C_18  and  O_21
REMARK                            x       y       z     vdW  Elec       q    Type
REMARK                         _______ _______ _______ _____ _____    ______ ____
ROOT
ATOM      1  C   UNL     1      -0.150  12.493  21.441  0.00  0.00    +0.000 A 
ATOM      2  C   UNL     1      -1.428  12.732  21.993  0.00  0.00    +0.000 A 
ATOM      3 CL   UNL     1      -2.252  11.717  23.124  0.00  0.00    +0.000 Cl
ATOM      4  C   UNL     1      -2.061  13.928  21.714  0.00  0.00    +0.000 A 
ATOM      5  N   UNL     1      -1.501  14.940  21.035  0.00  0.00    +0.000 NA
ATOM      6  C   UNL     1      -0.220  14.825  20.652  0.00  0.00    +0.000 A 
ATOM      7  C   UNL     1       0.416  15.943  20.101  0.00  0.00    +0.000 A 
ATOM      8 CL   UNL     1      -0.438  17.442  19.881  0.00  0.00    +0.000 Cl
ATOM      9  C   UNL     1       1.761  15.933  19.727  0.00  0.00    +0.000 A 
ATOM     10  C   UNL     1       2.536  14.782  19.863  0.00  0.00    +0.000 A 
ATOM     11  C   UNL     1       1.890  13.645  20.401  0.00  0.00    +0.000 A 
ATOM     12  C   UNL     1       0.520  13.627  20.827  0.00  0.00    +0.000 A 
ENDROOT
BRANCH  10  13
ATOM     13  C   UNL     1       3.963  14.779  19.473  0.00  0.00    +0.000 A 
ATOM     14  C   UNL     1       5.008  15.020  20.350  0.00  0.00    +0.000 A 
ATOM     15  N   UNL     1       6.323  15.012  20.022  0.00  0.00    +0.000 NA
ATOM     16  C   UNL     1       6.619  14.771  18.726  0.00  0.00    +0.000 A 
ATOM     17  N   UNL     1       5.696  14.541  17.777  0.00  0.00    +0.000 NA
ATOM     18  C   UNL     1       4.404  14.547  18.176  0.00  0.00    +0.000 A 
BRANCH  16  19
ATOM     19  C   UNL     1       8.101  14.740  18.344  0.00  0.00    +0.000 C 
ATOM     20  C   UNL     1       8.563  16.128  17.902  0.00  0.00    +0.000 C 
ATOM     21  C   UNL     1       8.946  14.223  19.509  0.00  0.00    +0.000 C 
BRANCH  19  22
ATOM     22  O   UNL     1       8.324  13.855  17.226  0.00  0.00    +0.000 OA
ATOM     23  H   UNL     1       9.225  14.067  16.908  0.00  0.00    +0.000 HD
ENDBRANCH  19  22
ENDBRANCH  16  19
ENDBRANCH  10  13
BRANCH   1  24
ATOM     24  N   UNL     1       0.555  11.262  21.587  0.00  0.00    +0.000 N 
ATOM     25  H   UNL     1       1.495  11.332  21.210  0.00  0.00    +0.000 HD
BRANCH  24  27
ATOM     26  C   UNL     1      -0.296   9.060  22.297  0.00  0.00    +0.000 C 
ATOM     27  C   UNL     1      -0.054   9.997  21.108  0.00  0.00    +0.000 C 
BRANCH  27  28
ATOM     28  C   UNL     1       0.847   9.337  20.076  0.00  0.00    +0.000 A 
ATOM     29  C   UNL     1       1.547   8.147  20.338  0.00  0.00    +0.000 A 
ATOM     30  C   UNL     1       2.332   7.551  19.347  0.00  0.00    +0.000 A 
ATOM     31  C   UNL     1       2.435   8.136  18.086  0.00  0.00    +0.000 A 
ATOM     32  C   UNL     1       1.750   9.318  17.812  0.00  0.00    +0.000 A 
ATOM     33  C   UNL     1       0.967   9.905  18.801  0.00  0.00    +0.000 A 
ATOM     34  F   UNL     1       0.306  11.032  18.501  0.00  0.00    +0.000 F 
ENDBRANCH  27  28
ENDBRANCH  24  27
ENDBRANCH   1  24
TORSDOF 6
ENDMDL
