MODEL 1
REMARK VINA RESULT:      -7.9      0.000      0.000
REMARK  Name = 
REMARK  6 active torsions:
REMARK  status: ('A' for Active; 'I' for Inactive)
REMARK    1  A    between atoms: C_1  and  C_2
REMARK    2  A    between atoms: C_2  and  C_3
REMARK    3  A    between atoms: C_3  and  C_4
REMARK    4  A    between atoms: C_5  and  O_6
REMARK    5  A    between atoms: C_8  and  C_9
REMARK    6  A    between atoms: C_14  and  C_15
REMARK                            x       y       z     vdW  Elec       q    Type
REMARK                         _______ _______ _______ _____ _____    ______ ____
ROOT
ATOM      1  C   UNL     1       3.807   3.875  17.796  0.00  0.00    +0.000 A 
ATOM      2  C   UNL     1       3.628   2.633  18.415  0.00  0.00    +0.000 A 
ATOM      3  N   UNL     1       2.911   2.435  19.531  0.00  0.00    +0.000 NA
ATOM      4  C   UNL     1       2.331   3.499  20.117  0.00  0.00    +0.000 A 
ATOM      5  C   UNL     1       1.525   3.190  21.346  0.00  0.00    +0.000 C 
ATOM      6  C   UNL     1       2.455   4.801  19.612  0.00  0.00    +0.000 A 
ATOM      7  C   UNL     1       3.174   4.989  18.408  0.00  0.00    +0.000 A 
ATOM      8  C   UNL     1       3.285   6.377  17.804  0.00  0.00    +0.000 C 
ATOM      9  C   UNL     1       2.303   7.406  18.367  0.00  0.00    +0.000 C 
ATOM     10  C   UNL     1       2.261   7.334  19.893  0.00  0.00    +0.000 C 
ATOM     11  C   UNL     1       1.761   5.946  20.315  0.00  0.00    +0.000 C 
ENDROOT
BRANCH  10  12
ATOM     12  C   UNL     1       1.411   8.437  20.500  0.00  0.00    +0.000 A 
ATOM     13  C   UNL     1       1.112   8.475  21.868  0.00  0.00    +0.000 A 
ATOM     14  C   UNL     1       0.341   9.518  22.360  0.00  0.00    +0.000 A 
ATOM     15  N   UNL     1      -0.148  10.517  21.596  0.00  0.00    +0.000 NA
ATOM     16  C   UNL     1       0.151  10.468  20.280  0.00  0.00    +0.000 A 
ATOM     17  C   UNL     1       0.914   9.468  19.696  0.00  0.00    +0.000 A 
ENDBRANCH  10  12
BRANCH   2  18
ATOM     18  O   UNL     1       4.160   1.473  17.938  0.00  0.00    +0.000 OA
ATOM     19  H   UNL     1       3.837   1.311  17.047  0.00  0.00    +0.000 HD
ENDBRANCH   2  18
BRANCH   1  20
ATOM     20  C   UNL     1       4.619   4.004  16.523  0.00  0.00    +0.000 C 
BRANCH  20  22
ATOM     21  C   UNL     1       6.873   4.632  15.444  0.00  0.00    +0.000 C 
ATOM     22  C   UNL     1       6.110   4.305  16.720  0.00  0.00    +0.000 C 
ENDBRANCH  20  22
ENDBRANCH   1  20
TORSDOF 4
ENDMDL
MODEL 2
REMARK VINA RESULT:      -7.8      0.124      1.029
REMARK  Name = 
REMARK  6 active torsions:
REMARK  status: ('A' for Active; 'I' for Inactive)
REMARK    1  A    between atoms: C_1  and  C_2
REMARK    2  A    between atoms: C_2  and  C_3
REMARK    3  A    between atoms: C_3  and  C_4
REMARK    4  A    between atoms: C_5  and  O_6
REMARK    5  A    between atoms: C_8  and  C_9
REMARK    6  A    between atoms: C_14  and  C_15
REMARK                            x       y       z     vdW  Elec       q    Type
REMARK                         _______ _______ _______ _____ _____    ______ ____
ROOT
ATOM      1  C   UNL     1       3.782   3.991  17.773  0.00  0.00    +0.000 A 
ATOM      2  C   UNL     1       3.613   2.743  18.383  0.00  0.00    +0.000 A 
ATOM      3  N   UNL     1       2.901   2.531  19.500  0.00  0.00    +0.000 NA
ATOM      4  C   UNL     1       2.316   3.586  20.096  0.00  0.00    +0.000 A 
ATOM      5  C   UNL     1       1.517   3.262  21.325  0.00  0.00    +0.000 C 
ATOM      6  C   UNL     1       2.430   4.893  19.601  0.00  0.00    +0.000 A 
ATOM      7  C   UNL     1       3.144   5.096  18.397  0.00  0.00    +0.000 A 
ATOM      8  C   UNL     1       3.244   6.490  17.804  0.00  0.00    +0.000 C 
ATOM      9  C   UNL     1       2.258   7.508  18.379  0.00  0.00    +0.000 C 
ATOM     10  C   UNL     1       2.222   7.423  19.905  0.00  0.00    +0.000 C 
ATOM     11  C   UNL     1       1.732   6.028  20.317  0.00  0.00    +0.000 C 
ENDROOT
BRANCH  10  12
ATOM     12  C   UNL     1       1.367   8.516  20.524  0.00  0.00    +0.000 A 
ATOM     13  C   UNL     1       0.751   9.504  19.747  0.00  0.00    +0.000 A 
ATOM     14  C   UNL     1      -0.028  10.466  20.375  0.00  0.00    +0.000 A 
ATOM     15  N   UNL     1      -0.234  10.513  21.707  0.00  0.00    +0.000 NA
ATOM     16  C   UNL     1       0.365   9.553  22.442  0.00  0.00    +0.000 A 
ATOM     17  C   UNL     1       1.159   8.550  21.906  0.00  0.00    +0.000 A 
ENDBRANCH  10  12
BRANCH   2  18
ATOM     18  O   UNL     1       4.150   1.590  17.894  0.00  0.00    +0.000 OA
ATOM     19  H   UNL     1       4.667   1.158  18.580  0.00  0.00    +0.000 HD
ENDBRANCH   2  18
BRANCH   1  20
ATOM     20  C   UNL     1       4.588   4.135  16.499  0.00  0.00    +0.000 C 
BRANCH  20  22
ATOM     21  C   UNL     1       6.892   4.525  15.413  0.00  0.00    +0.000 C 
ATOM     22  C   UNL     1       6.067   4.495  16.691  0.00  0.00    +0.000 C 
ENDBRANCH  20  22
ENDBRANCH   1  20
TORSDOF 4
ENDMDL
MODEL 3
REMARK VINA RESULT:      -7.5      0.933      1.048
REMARK  Name = 
REMARK  6 active torsions:
REMARK  status: ('A' for Active; 'I' for Inactive)
REMARK    1  A    between atoms: C_1  and  C_2
REMARK    2  A    between atoms: C_2  and  C_3
REMARK    3  A    between atoms: C_3  and  C_4
REMARK    4  A    between atoms: C_5  and  O_6
REMARK    5  A    between atoms: C_8  and  C_9
REMARK    6  A    between atoms: C_14  and  C_15
REMARK                            x       y       z     vdW  Elec       q    Type
REMARK                         _______ _______ _______ _____ _____    ______ ____
ROOT
ATOM      1  C   UNL     1       3.902   5.128  17.755  0.00  0.00    +0.000 A 
ATOM      2  C   UNL     1       3.942   3.829  18.273  0.00  0.00    +0.000 A 
ATOM      3  N   UNL     1       3.314   3.435  19.391  0.00  0.00    +0.000 NA
ATOM      4  C   UNL     1       2.603   4.346  20.081  0.00  0.00    +0.000 A 
ATOM      5  C   UNL     1       1.908   3.821  21.304  0.00  0.00    +0.000 C 
ATOM      6  C   UNL     1       2.503   5.687  19.682  0.00  0.00    +0.000 A 
ATOM      7  C   UNL     1       3.133   6.079  18.477  0.00  0.00    +0.000 A 
ATOM      8  C   UNL     1       3.003   7.510  17.988  0.00  0.00    +0.000 C 
ATOM      9  C   UNL     1       1.900   8.326  18.665  0.00  0.00    +0.000 C 
ATOM     10  C   UNL     1       1.936   8.129  20.181  0.00  0.00    +0.000 C 
ATOM     11  C   UNL     1       1.674   6.651  20.501  0.00  0.00    +0.000 C 
ENDROOT
BRANCH  10  12
ATOM     12  C   UNL     1       0.954   9.035  20.904  0.00  0.00    +0.000 A 
ATOM     13  C   UNL     1       0.771   8.972  22.291  0.00  0.00    +0.000 A 
ATOM     14  C   UNL     1      -0.132   9.838  22.891  0.00  0.00    +0.000 A 
ATOM     15  N   UNL     1      -0.858  10.753  22.216  0.00  0.00    +0.000 NA
ATOM     16  C   UNL     1      -0.668  10.803  20.880  0.00  0.00    +0.000 A 
ATOM     17  C   UNL     1       0.212   9.982  20.191  0.00  0.00    +0.000 A 
ENDBRANCH  10  12
BRANCH   2  18
ATOM     18  O   UNL     1       4.624   2.807  17.684  0.00  0.00    +0.000 OA
ATOM     19  H   UNL     1       4.301   1.966  18.022  0.00  0.00    +0.000 HD
ENDBRANCH   2  18
BRANCH   1  20
ATOM     20  C   UNL     1       4.628   5.481  16.473  0.00  0.00    +0.000 C 
BRANCH  20  22
ATOM     21  C   UNL     1       7.035   4.783  15.875  0.00  0.00    +0.000 C 
ATOM     22  C   UNL     1       6.130   5.754  16.620  0.00  0.00    +0.000 C 
ENDBRANCH  20  22
ENDBRANCH   1  20
TORSDOF 4
ENDMDL
MODEL 4
REMARK VINA RESULT:      -7.5      3.578      5.593
REMARK  Name = 
REMARK  6 active torsions:
REMARK  status: ('A' for Active; 'I' for Inactive)
REMARK    1  A    between atoms: C_1  and  C_2
REMARK    2  A    between atoms: C_2  and  C_3
REMARK    3  A    between atoms: C_3  and  C_4
REMARK    4  A    between atoms: C_5  and  O_6
REMARK    5  A    between atoms: C_8  and  C_9
REMARK    6  A    between atoms: C_14  and  C_15
REMARK                            x       y       z     vdW  Elec       q    Type
REMARK                         _______ _______ _______ _____ _____    ______ ____
ROOT
ATOM      1  C   UNL     1       6.289   4.284  14.591  0.00  0.00    +0.000 A 
ATOM      2  C   UNL     1       7.306   5.246  14.603  0.00  0.00    +0.000 A 
ATOM      3  N   UNL     1       7.627   6.001  15.664  0.00  0.00    +0.000 NA
ATOM      4  C   UNL     1       6.921   5.844  16.799  0.00  0.00    +0.000 A 
ATOM      5  C   UNL     1       7.359   6.706  17.948  0.00  0.00    +0.000 C 
ATOM      6  C   UNL     1       5.861   4.933  16.910  0.00  0.00    +0.000 A 
ATOM      7  C   UNL     1       5.563   4.110  15.799  0.00  0.00    +0.000 A 
ATOM      8  C   UNL     1       4.456   3.075  15.900  0.00  0.00    +0.000 C 
ATOM      9  C   UNL     1       3.989   2.768  17.324  0.00  0.00    +0.000 C 
ATOM     10  C   UNL     1       3.783   4.059  18.115  0.00  0.00    +0.000 C 
ATOM     11  C   UNL     1       5.122   4.800  18.224  0.00  0.00    +0.000 C 
ENDROOT
BRANCH  10  12
ATOM     12  C   UNL     1       3.177   3.807  19.485  0.00  0.00    +0.000 A 
ATOM     13  C   UNL     1       3.401   2.615  20.187  0.00  0.00    +0.000 A 
ATOM     14  C   UNL     1       2.829   2.454  21.440  0.00  0.00    +0.000 A 
ATOM     15  N   UNL     1       2.057   3.384  22.039  0.00  0.00    +0.000 NA
ATOM     16  C   UNL     1       1.852   4.527  21.352  0.00  0.00    +0.000 A 
ATOM     17  C   UNL     1       2.382   4.782  20.096  0.00  0.00    +0.000 A 
ENDBRANCH  10  12
BRANCH   2  18
ATOM     18  O   UNL     1       8.097   5.515  13.527  0.00  0.00    +0.000 OA
ATOM     19  H   UNL     1       8.816   4.878  13.487  0.00  0.00    +0.000 HD
ENDBRANCH   2  18
BRANCH   1  20
ATOM     20  C   UNL     1       6.007   3.461  13.351  0.00  0.00    +0.000 C 
BRANCH  20  22
ATOM     21  C   UNL     1       4.355   3.060  11.415  0.00  0.00    +0.000 C 
ATOM     22  C   UNL     1       4.971   4.055  12.387  0.00  0.00    +0.000 C 
ENDBRANCH  20  22
ENDBRANCH   1  20
TORSDOF 4
ENDMDL
MODEL 5
REMARK VINA RESULT:      -7.4      3.898      5.571
REMARK  Name = 
REMARK  6 active torsions:
REMARK  status: ('A' for Active; 'I' for Inactive)
REMARK    1  A    between atoms: C_1  and  C_2
REMARK    2  A    between atoms: C_2  and  C_3
REMARK    3  A    between atoms: C_3  and  C_4
REMARK    4  A    between atoms: C_5  and  O_6
REMARK    5  A    between atoms: C_8  and  C_9
REMARK    6  A    between atoms: C_14  and  C_15
REMARK                            x       y       z     vdW  Elec       q    Type
REMARK                         _______ _______ _______ _____ _____    ______ ____
ROOT
ATOM      1  C   UNL     1       5.864   4.597  14.701  0.00  0.00    +0.000 A 
ATOM      2  C   UNL     1       7.077   5.275  14.862  0.00  0.00    +0.000 A 
ATOM      3  N   UNL     1       7.596   5.639  16.044  0.00  0.00    +0.000 NA
ATOM      4  C   UNL     1       6.903   5.352  17.163  0.00  0.00    +0.000 A 
ATOM      5  C   UNL     1       7.563   5.769  18.445  0.00  0.00    +0.000 C 
ATOM      6  C   UNL     1       5.663   4.700  17.137  0.00  0.00    +0.000 A 
ATOM      7  C   UNL     1       5.149   4.279  15.887  0.00  0.00    +0.000 A 
ATOM      8  C   UNL     1       3.834   3.524  15.827  0.00  0.00    +0.000 C 
ATOM      9  C   UNL     1       3.347   2.969  17.166  0.00  0.00    +0.000 C 
ATOM     10  C   UNL     1       3.471   4.023  18.265  0.00  0.00    +0.000 C 
ATOM     11  C   UNL     1       4.950   4.397  18.436  0.00  0.00    +0.000 C 
ENDROOT
BRANCH  10  12
ATOM     12  C   UNL     1       2.860   3.564  19.578  0.00  0.00    +0.000 A 
ATOM     13  C   UNL     1       1.594   3.992  19.997  0.00  0.00    +0.000 A 
ATOM     14  C   UNL     1       1.089   3.524  21.201  0.00  0.00    +0.000 A 
ATOM     15  N   UNL     1       1.747   2.668  22.010  0.00  0.00    +0.000 NA
ATOM     16  C   UNL     1       2.965   2.263  21.592  0.00  0.00    +0.000 A 
ATOM     17  C   UNL     1       3.553   2.674  20.405  0.00  0.00    +0.000 A 
ENDBRANCH  10  12
BRANCH   2  18
ATOM     18  O   UNL     1       7.880   5.633  13.821  0.00  0.00    +0.000 OA
ATOM     19  H   UNL     1       8.798   5.645  14.109  0.00  0.00    +0.000 HD
ENDBRANCH   2  18
BRANCH   1  20
ATOM     20  C   UNL     1       5.363   4.206  13.326  0.00  0.00    +0.000 C 
BRANCH  20  22
ATOM     21  C   UNL     1       5.482   2.329  11.565  0.00  0.00    +0.000 C 
ATOM     22  C   UNL     1       6.230   3.190  12.573  0.00  0.00    +0.000 C 
ENDBRANCH  20  22
ENDBRANCH   1  20
TORSDOF 4
ENDMDL
MODEL 6
REMARK VINA RESULT:      -7.3      1.660      1.957
REMARK  Name = 
REMARK  6 active torsions:
REMARK  status: ('A' for Active; 'I' for Inactive)
REMARK    1  A    between atoms: C_1  and  C_2
REMARK    2  A    between atoms: C_2  and  C_3
REMARK    3  A    between atoms: C_3  and  C_4
REMARK    4  A    between atoms: C_5  and  O_6
REMARK    5  A    between atoms: C_8  and  C_9
REMARK    6  A    between atoms: C_14  and  C_15
REMARK                            x       y       z     vdW  Elec       q    Type
REMARK                         _______ _______ _______ _____ _____    ______ ____
ROOT
ATOM      1  C   UNL     1       4.680   5.515  17.956  0.00  0.00    +0.000 A 
ATOM      2  C   UNL     1       4.687   4.358  18.744  0.00  0.00    +0.000 A 
ATOM      3  N   UNL     1       3.839   4.121  19.755  0.00  0.00    +0.000 NA
ATOM      4  C   UNL     1       2.921   5.059  20.056  0.00  0.00    +0.000 A 
ATOM      5  C   UNL     1       1.993   4.706  21.182  0.00  0.00    +0.000 C 
ATOM      6  C   UNL     1       2.826   6.272  19.360  0.00  0.00    +0.000 A 
ATOM      7  C   UNL     1       3.696   6.491  18.266  0.00  0.00    +0.000 A 
ATOM      8  C   UNL     1       3.585   7.771  17.457  0.00  0.00    +0.000 C 
ATOM      9  C   UNL     1       2.298   8.567  17.681  0.00  0.00    +0.000 C 
ATOM     10  C   UNL     1       1.984   8.679  19.172  0.00  0.00    +0.000 C 
ATOM     11  C   UNL     1       1.758   7.273  19.745  0.00  0.00    +0.000 C 
ENDROOT
BRANCH  10  12
ATOM     12  C   UNL     1       0.797   9.586  19.446  0.00  0.00    +0.000 A 
ATOM     13  C   UNL     1       0.457   9.992  20.743  0.00  0.00    +0.000 A 
ATOM     14  C   UNL     1      -0.632  10.832  20.922  0.00  0.00    +0.000 A 
ATOM     15  N   UNL     1      -1.399  11.293  19.913  0.00  0.00    +0.000 NA
ATOM     16  C   UNL     1      -1.058  10.894  18.669  0.00  0.00    +0.000 A 
ATOM     17  C   UNL     1       0.012  10.059  18.390  0.00  0.00    +0.000 A 
ENDBRANCH  10  12
BRANCH   2  18
ATOM     18  O   UNL     1       5.561   3.329  18.558  0.00  0.00    +0.000 OA
ATOM     19  H   UNL     1       5.154   2.505  18.839  0.00  0.00    +0.000 HD
ENDBRANCH   2  18
BRANCH   1  20
ATOM     20  C   UNL     1       5.665   5.692  16.819  0.00  0.00    +0.000 C 
BRANCH  20  22
ATOM     21  C   UNL     1       7.391   7.468  17.531  0.00  0.00    +0.000 C 
ATOM     22  C   UNL     1       7.108   6.001  17.238  0.00  0.00    +0.000 C 
ENDBRANCH  20  22
ENDBRANCH   1  20
TORSDOF 4
ENDMDL
MODEL 7
REMARK VINA RESULT:      -7.2      1.830      3.745
REMARK  Name = 
REMARK  6 active torsions:
REMARK  status: ('A' for Active; 'I' for Inactive)
REMARK    1  A    between atoms: C_1  and  C_2
REMARK    2  A    between atoms: C_2  and  C_3
REMARK    3  A    between atoms: C_3  and  C_4
REMARK    4  A    between atoms: C_5  and  O_6
REMARK    5  A    between atoms: C_8  and  C_9
REMARK    6  A    between atoms: C_14  and  C_15
REMARK                            x       y       z     vdW  Elec       q    Type
REMARK                         _______ _______ _______ _____ _____    ______ ____
ROOT
ATOM      1  C   UNL     1       3.111   4.350  19.594  0.00  0.00    +0.000 A 
ATOM      2  C   UNL     1       4.033   3.852  18.667  0.00  0.00    +0.000 A 
ATOM      3  N   UNL     1       4.567   4.566  17.665  0.00  0.00    +0.000 NA
ATOM      4  C   UNL     1       4.187   5.849  17.520  0.00  0.00    +0.000 A 
ATOM      5  C   UNL     1       4.850   6.587  16.392  0.00  0.00    +0.000 C 
ATOM      6  C   UNL     1       3.252   6.461  18.366  0.00  0.00    +0.000 A 
ATOM      7  C   UNL     1       2.731   5.711  19.447  0.00  0.00    +0.000 A 
ATOM      8  C   UNL     1       1.755   6.357  20.414  0.00  0.00    +0.000 C 
ATOM      9  C   UNL     1       1.689   7.883  20.340  0.00  0.00    +0.000 C 
ATOM     10  C   UNL     1       1.611   8.351  18.887  0.00  0.00    +0.000 C 
ATOM     11  C   UNL     1       2.884   7.912  18.150  0.00  0.00    +0.000 C 
ENDROOT
BRANCH  10  12
ATOM     12  C   UNL     1       1.394   9.850  18.773  0.00  0.00    +0.000 A 
ATOM     13  C   UNL     1       0.266  10.479  19.315  0.00  0.00    +0.000 A 
ATOM     14  C   UNL     1       0.135  11.855  19.188  0.00  0.00    +0.000 A 
ATOM     15  N   UNL     1       1.039  12.640  18.567  0.00  0.00    +0.000 NA
ATOM     16  C   UNL     1       2.122  12.020  18.052  0.00  0.00    +0.000 A 
ATOM     17  C   UNL     1       2.341  10.653  18.130  0.00  0.00    +0.000 A 
ENDBRANCH  10  12
BRANCH   2  18
ATOM     18  O   UNL     1       4.503   2.573  18.690  0.00  0.00    +0.000 OA
ATOM     19  H   UNL     1       4.346   2.186  19.556  0.00  0.00    +0.000 HD
ENDBRANCH   2  18
BRANCH   1  20
ATOM     20  C   UNL     1       2.573   3.476  20.708  0.00  0.00    +0.000 C 
BRANCH  20  22
ATOM     21  C   UNL     1       0.828   2.540  19.060  0.00  0.00    +0.000 C 
ATOM     22  C   UNL     1       1.154   2.934  20.494  0.00  0.00    +0.000 C 
ENDBRANCH  20  22
ENDBRANCH   1  20
TORSDOF 4
ENDMDL
MODEL 8
REMARK VINA RESULT:      -7.2      1.507      1.771
REMARK  Name = 
REMARK  6 active torsions:
REMARK  status: ('A' for Active; 'I' for Inactive)
REMARK    1  A    between atoms: C_1  and  C_2
REMARK    2  A    between atoms: C_2  and  C_3
REMARK    3  A    between atoms: C_3  and  C_4
REMARK    4  A    between atoms: C_5  and  O_6
REMARK    5  A    between atoms: C_8  and  C_9
REMARK    6  A    between atoms: C_14  and  C_15
REMARK                            x       y       z     vdW  Elec       q    Type
REMARK                         _______ _______ _______ _____ _____    ______ ____
ROOT
ATOM      1  C   UNL     1       4.663   5.462  17.959  0.00  0.00    +0.000 A 
ATOM      2  C   UNL     1       4.660   4.308  18.750  0.00  0.00    +0.000 A 
ATOM      3  N   UNL     1       3.809   4.080  19.762  0.00  0.00    +0.000 NA
ATOM      4  C   UNL     1       2.899   5.027  20.059  0.00  0.00    +0.000 A 
ATOM      5  C   UNL     1       1.968   4.685  21.186  0.00  0.00    +0.000 C 
ATOM      6  C   UNL     1       2.815   6.240  19.360  0.00  0.00    +0.000 A 
ATOM      7  C   UNL     1       3.687   6.448  18.266  0.00  0.00    +0.000 A 
ATOM      8  C   UNL     1       3.588   7.726  17.454  0.00  0.00    +0.000 C 
ATOM      9  C   UNL     1       2.308   8.534  17.675  0.00  0.00    +0.000 C 
ATOM     10  C   UNL     1       1.995   8.653  19.166  0.00  0.00    +0.000 C 
ATOM     11  C   UNL     1       1.756   7.251  19.742  0.00  0.00    +0.000 C 
ENDROOT
BRANCH  10  12
ATOM     12  C   UNL     1       0.815   9.571  19.436  0.00  0.00    +0.000 A 
ATOM     13  C   UNL     1       0.499  10.011  20.728  0.00  0.00    +0.000 A 
ATOM     14  C   UNL     1      -0.584  10.860  20.904  0.00  0.00    +0.000 A 
ATOM     15  N   UNL     1      -1.367  11.297  19.897  0.00  0.00    +0.000 NA
ATOM     16  C   UNL     1      -1.049  10.866  18.658  0.00  0.00    +0.000 A 
ATOM     17  C   UNL     1       0.014  10.020  18.382  0.00  0.00    +0.000 A 
ENDBRANCH  10  12
BRANCH   2  18
ATOM     18  O   UNL     1       5.524   3.271  18.567  0.00  0.00    +0.000 OA
ATOM     19  H   UNL     1       6.136   3.482  17.856  0.00  0.00    +0.000 HD
ENDBRANCH   2  18
BRANCH   1  20
ATOM     20  C   UNL     1       5.650   5.628  16.822  0.00  0.00    +0.000 C 
BRANCH  20  22
ATOM     21  C   UNL     1       6.147   3.998  14.889  0.00  0.00    +0.000 C 
ATOM     22  C   UNL     1       5.207   5.041  15.475  0.00  0.00    +0.000 C 
ENDBRANCH  20  22
ENDBRANCH   1  20
TORSDOF 4
ENDMDL
MODEL 9
REMARK VINA RESULT:      -7.2      1.512      2.034
REMARK  Name = 
REMARK  6 active torsions:
REMARK  status: ('A' for Active; 'I' for Inactive)
REMARK    1  A    between atoms: C_1  and  C_2
REMARK    2  A    between atoms: C_2  and  C_3
REMARK    3  A    between atoms: C_3  and  C_4
REMARK    4  A    between atoms: C_5  and  O_6
REMARK    5  A    between atoms: C_8  and  C_9
REMARK    6  A    between atoms: C_14  and  C_15
REMARK                            x       y       z     vdW  Elec       q    Type
REMARK                         _______ _______ _______ _____ _____    ______ ____
ROOT
ATOM      1  C   UNL     1       4.634   5.528  17.912  0.00  0.00    +0.000 A 
ATOM      2  C   UNL     1       4.650   4.373  18.702  0.00  0.00    +0.000 A 
ATOM      3  N   UNL     1       3.820   4.140  19.729  0.00  0.00    +0.000 NA
ATOM      4  C   UNL     1       2.912   5.083  20.044  0.00  0.00    +0.000 A 
ATOM      5  C   UNL     1       2.003   4.736  21.188  0.00  0.00    +0.000 C 
ATOM      6  C   UNL     1       2.808   6.296  19.348  0.00  0.00    +0.000 A 
ATOM      7  C   UNL     1       3.659   6.508  18.237  0.00  0.00    +0.000 A 
ATOM      8  C   UNL     1       3.539   7.787  17.429  0.00  0.00    +0.000 C 
ATOM      9  C   UNL     1       2.259   8.589  17.674  0.00  0.00    +0.000 C 
ATOM     10  C   UNL     1       1.973   8.705  19.171  0.00  0.00    +0.000 C 
ATOM     11  C   UNL     1       1.752   7.301  19.750  0.00  0.00    +0.000 C 
ENDROOT
BRANCH  10  12
ATOM     12  C   UNL     1       0.795   9.618  19.464  0.00  0.00    +0.000 A 
ATOM     13  C   UNL     1      -0.032  10.111  18.447  0.00  0.00    +0.000 A 
ATOM     14  C   UNL     1      -1.100  10.930  18.785  0.00  0.00    +0.000 A 
ATOM     15  N   UNL     1      -1.400  11.289  20.050  0.00  0.00    +0.000 NA
ATOM     16  C   UNL     1      -0.595  10.804  21.019  0.00  0.00    +0.000 A 
ATOM     17  C   UNL     1       0.493   9.979  20.781  0.00  0.00    +0.000 A 
ENDBRANCH  10  12
BRANCH   2  18
ATOM     18  O   UNL     1       5.516   3.340  18.502  0.00  0.00    +0.000 OA
ATOM     19  H   UNL     1       6.331   3.503  18.985  0.00  0.00    +0.000 HD
ENDBRANCH   2  18
BRANCH   1  20
ATOM     20  C   UNL     1       5.598   5.698  16.756  0.00  0.00    +0.000 C 
BRANCH  20  22
ATOM     21  C   UNL     1       6.241   4.086  14.852  0.00  0.00    +0.000 C 
ATOM     22  C   UNL     1       5.188   5.009  15.449  0.00  0.00    +0.000 C 
ENDBRANCH  20  22
ENDBRANCH   1  20
TORSDOF 4
ENDMDL
