MODEL 1
REMARK VINA RESULT:      -8.6      0.000      0.000
REMARK  Name = 
REMARK  11 active torsions:
REMARK  status: ('A' for Active; 'I' for Inactive)
REMARK    1  A    between atoms: C_1  and  C_2
REMARK    2  A    between atoms: C_2  and  O_3
REMARK    3  A    between atoms: O_3  and  C_4
REMARK    4  A    between atoms: C_4  and  C_6
REMARK    5  A    between atoms: C_9  and  N_10
REMARK    6  A    between atoms: C_11  and  C_13
REMARK    7  A    between atoms: C_13  and  C_14
REMARK    8  A    between atoms: N_17  and  C_18
REMARK    9  A    between atoms: C_22  and  O_23
REMARK   10  A    between atoms: O_23  and  C_24
REMARK   11  A    between atoms: N_28  and  C_29
REMARK                            x       y       z     vdW  Elec       q    Type
REMARK                         _______ _______ _______ _____ _____    ______ ____
ROOT
ATOM      1  C   UNL     1       2.628   6.230  18.535  0.00  0.00    +0.000 C 
ATOM      2  C   UNL     1       3.923   6.356  17.724  0.00  0.00    +0.000 C 
ATOM      3  O   UNL     1       4.614   7.367  17.701  0.00  0.00    +0.000 OA
ATOM      4  N   UNL     1       4.104   5.201  17.012  0.00  0.00    +0.000 N 
ATOM      5  C   UNL     1       3.208   4.253  17.441  0.00  0.00    +0.000 C 
ATOM      6  O   UNL     1       3.152   3.101  17.046  0.00  0.00    +0.000 OA
ATOM      7  N   UNL     1       2.406   4.791  18.447  0.00  0.00    +0.000 N 
ENDROOT
BRANCH   4   8
ATOM      8  C   UNL     1       5.111   4.953  16.041  0.00  0.00    +0.000 A 
ATOM      9  C   UNL     1       6.462   5.215  16.293  0.00  0.00    +0.000 A 
ATOM     10  C   UNL     1       7.434   4.924  15.332  0.00  0.00    +0.000 A 
ATOM     11  C   UNL     1       7.065   4.392  14.097  0.00  0.00    +0.000 A 
ATOM     12  C   UNL     1       5.726   4.147  13.809  0.00  0.00    +0.000 A 
ATOM     13  C   UNL     1       4.766   4.425  14.781  0.00  0.00    +0.000 A 
BRANCH  12  14
ATOM     14  O   UNL     1       5.470   3.654  12.560  0.00  0.00    +0.000 OA
ATOM     15  C   UNL     1       6.504   2.889  11.945  0.00  0.00    +0.000 C 
ENDBRANCH  12  14
ENDBRANCH   4   8
BRANCH   7  16
ATOM     16  C   UNL     1       1.269   4.102  19.093  0.00  0.00    +0.000 C 
ATOM     17  C   UNL     1       1.253   2.576  18.928  0.00  0.00    +0.000 C 
ATOM     18  C   UNL     1       2.200   1.812  19.848  0.00  0.00    +0.000 C 
ATOM     19  C   UNL     1       2.185   2.282  21.305  0.00  0.00    +0.000 C 
ATOM     20  C   UNL     1       2.041   3.786  21.542  0.00  0.00    +0.000 C 
ATOM     21  C   UNL     1       1.088   4.479  20.574  0.00  0.00    +0.000 C 
ENDBRANCH   7  16
BRANCH   1  22
ATOM     22  C   UNL     1       2.807   6.830  19.927  0.00  0.00    +0.000 C 
BRANCH  22  24
ATOM     23  N   UNL     1       1.448   8.273  21.365  0.00  0.00    +0.000 N 
ATOM     24  C   UNL     1       1.857   8.009  20.069  0.00  0.00    +0.000 C 
ATOM     25  O   UNL     1       1.542   8.629  19.058  0.00  0.00    +0.000 OA
ATOM     26  H   UNL     1       1.813   7.686  22.110  0.00  0.00    +0.000 HD
BRANCH  23  30
ATOM     27  C   UNL     1      -0.880  11.636  22.510  0.00  0.00    +0.000 A 
ATOM     28  C   UNL     1      -1.025  10.424  23.188  0.00  0.00    +0.000 A 
ATOM     29  C   UNL     1      -0.258   9.317  22.824  0.00  0.00    +0.000 A 
ATOM     30  C   UNL     1       0.667   9.382  21.784  0.00  0.00    +0.000 A 
ATOM     31  C   UNL     1       0.821  10.606  21.108  0.00  0.00    +0.000 A 
ATOM     32  C   UNL     1       0.058  11.729  21.476  0.00  0.00    +0.000 A 
BRANCH  27  33
ATOM     33  C   UNL     1      -1.686  12.826  22.887  0.00  0.00    +0.000 C 
ATOM     34  O   UNL     1      -1.335  13.974  22.671  0.00  0.00    +0.000 OA
BRANCH  33  35
ATOM     35  O   UNL     1      -2.841  12.428  23.475  0.00  0.00    +0.000 OA
BRANCH  35  37
ATOM     36  C   UNL     1      -4.176  12.651  21.479  0.00  0.00    +0.000 C 
ATOM     37  C   UNL     1      -4.047  13.000  22.949  0.00  0.00    +0.000 C 
ENDBRANCH  35  37
ENDBRANCH  33  35
ENDBRANCH  27  33
ENDBRANCH  23  30
ENDBRANCH  22  24
ENDBRANCH   1  22
TORSDOF 9
ENDMDL
MODEL 2
REMARK VINA RESULT:      -8.5      0.713      1.357
REMARK  Name = 
REMARK  11 active torsions:
REMARK  status: ('A' for Active; 'I' for Inactive)
REMARK    1  A    between atoms: C_1  and  C_2
REMARK    2  A    between atoms: C_2  and  O_3
REMARK    3  A    between atoms: O_3  and  C_4
REMARK    4  A    between atoms: C_4  and  C_6
REMARK    5  A    between atoms: C_9  and  N_10
REMARK    6  A    between atoms: C_11  and  C_13
REMARK    7  A    between atoms: C_13  and  C_14
REMARK    8  A    between atoms: N_17  and  C_18
REMARK    9  A    between atoms: C_22  and  O_23
REMARK   10  A    between atoms: O_23  and  C_24
REMARK   11  A    between atoms: N_28  and  C_29
REMARK                            x       y       z     vdW  Elec       q    Type
REMARK                         _______ _______ _______ _____ _____    ______ ____
ROOT
ATOM      1  C   UNL     1       2.542   6.170  18.494  0.00  0.00    +0.000 C 
ATOM      2  C   UNL     1       3.852   6.329  17.713  0.00  0.00    +0.000 C 
ATOM      3  O   UNL     1       4.507   7.363  17.690  0.00  0.00    +0.000 OA
ATOM      4  N   UNL     1       4.092   5.169  17.026  0.00  0.00    +0.000 N 
ATOM      5  C   UNL     1       3.219   4.197  17.449  0.00  0.00    +0.000 C 
ATOM      6  O   UNL     1       3.213   3.038  17.073  0.00  0.00    +0.000 OA
ATOM      7  N   UNL     1       2.373   4.723  18.426  0.00  0.00    +0.000 N 
ENDROOT
BRANCH   4   8
ATOM      8  C   UNL     1       5.131   4.942  16.085  0.00  0.00    +0.000 A 
ATOM      9  C   UNL     1       6.464   5.268  16.361  0.00  0.00    +0.000 A 
ATOM     10  C   UNL     1       7.470   4.997  15.431  0.00  0.00    +0.000 A 
ATOM     11  C   UNL     1       7.154   4.419  14.202  0.00  0.00    +0.000 A 
ATOM     12  C   UNL     1       5.834   4.109  13.890  0.00  0.00    +0.000 A 
ATOM     13  C   UNL     1       4.839   4.369  14.832  0.00  0.00    +0.000 A 
BRANCH  12  14
ATOM     14  O   UNL     1       5.628   3.574  12.648  0.00  0.00    +0.000 OA
ATOM     15  C   UNL     1       6.784   3.353  11.843  0.00  0.00    +0.000 C 
ENDBRANCH  12  14
ENDBRANCH   4   8
BRANCH   7  16
ATOM     16  C   UNL     1       1.245   4.005  19.055  0.00  0.00    +0.000 C 
ATOM     17  C   UNL     1       1.286   2.476  18.915  0.00  0.00    +0.000 C 
ATOM     18  C   UNL     1       2.236   1.760  19.869  0.00  0.00    +0.000 C 
ATOM     19  C   UNL     1       2.169   2.252  21.318  0.00  0.00    +0.000 C 
ATOM     20  C   UNL     1       1.966   3.753  21.527  0.00  0.00    +0.000 C 
ATOM     21  C   UNL     1       1.013   4.397  20.524  0.00  0.00    +0.000 C 
ENDBRANCH   7  16
BRANCH   1  22
ATOM     22  C   UNL     1       2.664   6.799  19.879  0.00  0.00    +0.000 C 
BRANCH  22  24
ATOM     23  N   UNL     1       1.095   8.196  21.138  0.00  0.00    +0.000 N 
ATOM     24  C   UNL     1       1.759   8.019  19.936  0.00  0.00    +0.000 C 
ATOM     25  O   UNL     1       1.694   8.744  18.947  0.00  0.00    +0.000 OA
ATOM     26  H   UNL     1       1.267   7.525  21.881  0.00  0.00    +0.000 HD
BRANCH  23  30
ATOM     27  C   UNL     1      -1.271  11.523  22.308  0.00  0.00    +0.000 A 
ATOM     28  C   UNL     1      -0.801  11.429  20.997  0.00  0.00    +0.000 A 
ATOM     29  C   UNL     1      -0.031  10.335  20.601  0.00  0.00    +0.000 A 
ATOM     30  C   UNL     1       0.293   9.312  21.492  0.00  0.00    +0.000 A 
ATOM     31  C   UNL     1      -0.190   9.403  22.810  0.00  0.00    +0.000 A 
ATOM     32  C   UNL     1      -0.975  10.498  23.212  0.00  0.00    +0.000 A 
BRANCH  27  33
ATOM     33  C   UNL     1      -2.097  12.680  22.744  0.00  0.00    +0.000 C 
ATOM     34  O   UNL     1      -3.247  12.862  22.380  0.00  0.00    +0.000 OA
BRANCH  33  35
ATOM     35  O   UNL     1      -1.383  13.456  23.596  0.00  0.00    +0.000 OA
BRANCH  35  37
ATOM     36  C   UNL     1      -0.128  15.025  22.263  0.00  0.00    +0.000 C 
ATOM     37  C   UNL     1      -1.270  14.841  23.243  0.00  0.00    +0.000 C 
ENDBRANCH  35  37
ENDBRANCH  33  35
ENDBRANCH  27  33
ENDBRANCH  23  30
ENDBRANCH  22  24
ENDBRANCH   1  22
TORSDOF 9
ENDMDL
MODEL 3
REMARK VINA RESULT:      -8.3      1.229      1.731
REMARK  Name = 
REMARK  11 active torsions:
REMARK  status: ('A' for Active; 'I' for Inactive)
REMARK    1  A    between atoms: C_1  and  C_2
REMARK    2  A    between atoms: C_2  and  O_3
REMARK    3  A    between atoms: O_3  and  C_4
REMARK    4  A    between atoms: C_4  and  C_6
REMARK    5  A    between atoms: C_9  and  N_10
REMARK    6  A    between atoms: C_11  and  C_13
REMARK    7  A    between atoms: C_13  and  C_14
REMARK    8  A    between atoms: N_17  and  C_18
REMARK    9  A    between atoms: C_22  and  O_23
REMARK   10  A    between atoms: O_23  and  C_24
REMARK   11  A    between atoms: N_28  and  C_29
REMARK                            x       y       z     vdW  Elec       q    Type
REMARK                         _______ _______ _______ _____ _____    ______ ____
ROOT
ATOM      1  C   UNL     1       3.432   5.395  18.292  0.00  0.00    +0.000 C 
ATOM      2  C   UNL     1       4.307   5.783  17.093  0.00  0.00    +0.000 C 
ATOM      3  O   UNL     1       4.450   6.934  16.702  0.00  0.00    +0.000 OA
ATOM      4  N   UNL     1       4.811   4.639  16.535  0.00  0.00    +0.000 N 
ATOM      5  C   UNL     1       4.556   3.574  17.364  0.00  0.00    +0.000 C 
ATOM      6  O   UNL     1       4.927   2.428  17.178  0.00  0.00    +0.000 OA
ATOM      7  N   UNL     1       3.858   4.014  18.488  0.00  0.00    +0.000 N 
ENDROOT
BRANCH   4   8
ATOM      8  C   UNL     1       5.565   4.543  15.335  0.00  0.00    +0.000 A 
ATOM      9  C   UNL     1       6.825   5.138  15.204  0.00  0.00    +0.000 A 
ATOM     10  C   UNL     1       7.560   4.994  14.025  0.00  0.00    +0.000 A 
ATOM     11  C   UNL     1       7.035   4.274  12.952  0.00  0.00    +0.000 A 
ATOM     12  C   UNL     1       5.774   3.695  13.045  0.00  0.00    +0.000 A 
ATOM     13  C   UNL     1       5.055   3.831  14.232  0.00  0.00    +0.000 A 
BRANCH  12  14
ATOM     14  O   UNL     1       5.340   3.037  11.927  0.00  0.00    +0.000 OA
ATOM     15  C   UNL     1       4.031   3.356  11.460  0.00  0.00    +0.000 C 
ENDBRANCH  12  14
ENDBRANCH   4   8
BRANCH   7  16
ATOM     16  C   UNL     1       3.331   3.145  19.561  0.00  0.00    +0.000 C 
ATOM     17  C   UNL     1       2.483   3.862  20.622  0.00  0.00    +0.000 C 
ATOM     18  C   UNL     1       1.048   4.170  20.208  0.00  0.00    +0.000 C 
ATOM     19  C   UNL     1       0.327   3.013  19.509  0.00  0.00    +0.000 C 
ATOM     20  C   UNL     1       1.162   2.157  18.556  0.00  0.00    +0.000 C 
ATOM     21  C   UNL     1       2.588   1.905  19.035  0.00  0.00    +0.000 C 
ENDBRANCH   7  16
BRANCH   1  22
ATOM     22  C   UNL     1       3.645   6.369  19.448  0.00  0.00    +0.000 C 
BRANCH  22  24
ATOM     23  N   UNL     1       2.155   7.802  20.761  0.00  0.00    +0.000 N 
ATOM     24  C   UNL     1       2.462   7.322  19.498  0.00  0.00    +0.000 C 
ATOM     25  O   UNL     1       1.890   7.599  18.448  0.00  0.00    +0.000 OA
ATOM     26  H   UNL     1       2.735   7.502  21.539  0.00  0.00    +0.000 HD
BRANCH  23  30
ATOM     27  C   UNL     1      -0.774  10.774  21.552  0.00  0.00    +0.000 A 
ATOM     28  C   UNL     1      -0.453   9.833  22.533  0.00  0.00    +0.000 A 
ATOM     29  C   UNL     1       0.515   8.859  22.285  0.00  0.00    +0.000 A 
ATOM     30  C   UNL     1       1.184   8.792  21.064  0.00  0.00    +0.000 A 
ATOM     31  C   UNL     1       0.867   9.747  20.080  0.00  0.00    +0.000 A 
ATOM     32  C   UNL     1      -0.100  10.737  20.327  0.00  0.00    +0.000 A 
BRANCH  27  33
ATOM     33  C   UNL     1      -1.799  11.821  21.802  0.00  0.00    +0.000 C 
ATOM     34  O   UNL     1      -2.174  12.613  20.954  0.00  0.00    +0.000 OA
BRANCH  33  35
ATOM     35  O   UNL     1      -2.239  11.734  23.082  0.00  0.00    +0.000 OA
BRANCH  35  37
ATOM     36  C   UNL     1      -4.232  12.728  24.005  0.00  0.00    +0.000 C 
ATOM     37  C   UNL     1      -2.773  12.938  23.649  0.00  0.00    +0.000 C 
ENDBRANCH  35  37
ENDBRANCH  33  35
ENDBRANCH  27  33
ENDBRANCH  23  30
ENDBRANCH  22  24
ENDBRANCH   1  22
TORSDOF 9
ENDMDL
MODEL 4
REMARK VINA RESULT:      -8.0      2.435      2.974
REMARK  Name = 
REMARK  11 active torsions:
REMARK  status: ('A' for Active; 'I' for Inactive)
REMARK    1  A    between atoms: C_1  and  C_2
REMARK    2  A    between atoms: C_2  and  O_3
REMARK    3  A    between atoms: O_3  and  C_4
REMARK    4  A    between atoms: C_4  and  C_6
REMARK    5  A    between atoms: C_9  and  N_10
REMARK    6  A    between atoms: C_11  and  C_13
REMARK    7  A    between atoms: C_13  and  C_14
REMARK    8  A    between atoms: N_17  and  C_18
REMARK    9  A    between atoms: C_22  and  O_23
REMARK   10  A    between atoms: O_23  and  C_24
REMARK   11  A    between atoms: N_28  and  C_29
REMARK                            x       y       z     vdW  Elec       q    Type
REMARK                         _______ _______ _______ _____ _____    ______ ____
ROOT
ATOM      1  C   UNL     1       3.539   5.569  18.175  0.00  0.00    +0.000 C 
ATOM      2  C   UNL     1       4.376   5.913  16.936  0.00  0.00    +0.000 C 
ATOM      3  O   UNL     1       4.513   7.050  16.504  0.00  0.00    +0.000 OA
ATOM      4  N   UNL     1       4.852   4.748  16.397  0.00  0.00    +0.000 N 
ATOM      5  C   UNL     1       4.619   3.711  17.268  0.00  0.00    +0.000 C 
ATOM      6  O   UNL     1       4.976   2.557  17.106  0.00  0.00    +0.000 OA
ATOM      7  N   UNL     1       3.963   4.191  18.401  0.00  0.00    +0.000 N 
ENDROOT
BRANCH   4   8
ATOM      8  C   UNL     1       5.565   4.609  15.177  0.00  0.00    +0.000 A 
ATOM      9  C   UNL     1       6.792   5.245  14.960  0.00  0.00    +0.000 A 
ATOM     10  C   UNL     1       7.488   5.058  13.763  0.00  0.00    +0.000 A 
ATOM     11  C   UNL     1       6.954   4.253  12.757  0.00  0.00    +0.000 A 
ATOM     12  C   UNL     1       5.723   3.630  12.935  0.00  0.00    +0.000 A 
ATOM     13  C   UNL     1       5.044   3.810  14.139  0.00  0.00    +0.000 A 
BRANCH  12  14
ATOM     14  O   UNL     1       5.276   2.888  11.876  0.00  0.00    +0.000 OA
ATOM     15  C   UNL     1       4.062   3.312  11.261  0.00  0.00    +0.000 C 
ENDBRANCH  12  14
ENDBRANCH   4   8
BRANCH   7  16
ATOM     16  C   UNL     1       3.468   3.361  19.518  0.00  0.00    +0.000 C 
ATOM     17  C   UNL     1       2.260   3.936  20.273  0.00  0.00    +0.000 C 
ATOM     18  C   UNL     1       0.914   3.755  19.580  0.00  0.00    +0.000 C 
ATOM     19  C   UNL     1       0.680   2.355  19.004  0.00  0.00    +0.000 C 
ATOM     20  C   UNL     1       1.889   1.658  18.378  0.00  0.00    +0.000 C 
ATOM     21  C   UNL     1       3.199   1.899  19.121  0.00  0.00    +0.000 C 
ENDBRANCH   7  16
BRANCH   1  22
ATOM     22  C   UNL     1       3.798   6.577  19.292  0.00  0.00    +0.000 C 
BRANCH  22  24
ATOM     23  N   UNL     1       2.252   8.425  18.856  0.00  0.00    +0.000 N 
ATOM     24  C   UNL     1       2.493   7.289  19.610  0.00  0.00    +0.000 C 
ATOM     25  O   UNL     1       1.764   6.812  20.475  0.00  0.00    +0.000 OA
ATOM     26  H   UNL     1       2.938   8.687  18.154  0.00  0.00    +0.000 HD
BRANCH  23  30
ATOM     27  C   UNL     1      -1.355  10.667  18.808  0.00  0.00    +0.000 A 
ATOM     28  C   UNL     1      -0.582  10.615  19.970  0.00  0.00    +0.000 A 
ATOM     29  C   UNL     1       0.609   9.889  19.991  0.00  0.00    +0.000 A 
ATOM     30  C   UNL     1       1.061   9.197  18.869  0.00  0.00    +0.000 A 
ATOM     31  C   UNL     1       0.287   9.259  17.696  0.00  0.00    +0.000 A 
ATOM     32  C   UNL     1      -0.910   9.997  17.664  0.00  0.00    +0.000 A 
BRANCH  27  33
ATOM     33  C   UNL     1      -2.624  11.441  18.766  0.00  0.00    +0.000 C 
ATOM     34  O   UNL     1      -2.788  12.497  19.353  0.00  0.00    +0.000 OA
BRANCH  33  35
ATOM     35  O   UNL     1      -3.524  10.800  17.980  0.00  0.00    +0.000 OA
BRANCH  35  37
ATOM     36  C   UNL     1      -3.789  10.749  15.584  0.00  0.00    +0.000 C 
ATOM     37  C   UNL     1      -4.020  11.540  16.857  0.00  0.00    +0.000 C 
ENDBRANCH  35  37
ENDBRANCH  33  35
ENDBRANCH  27  33
ENDBRANCH  23  30
ENDBRANCH  22  24
ENDBRANCH   1  22
TORSDOF 9
ENDMDL
MODEL 5
REMARK VINA RESULT:      -8.0      0.981      1.669
REMARK  Name = 
REMARK  11 active torsions:
REMARK  status: ('A' for Active; 'I' for Inactive)
REMARK    1  A    between atoms: C_1  and  C_2
REMARK    2  A    between atoms: C_2  and  O_3
REMARK    3  A    between atoms: O_3  and  C_4
REMARK    4  A    between atoms: C_4  and  C_6
REMARK    5  A    between atoms: C_9  and  N_10
REMARK    6  A    between atoms: C_11  and  C_13
REMARK    7  A    between atoms: C_13  and  C_14
REMARK    8  A    between atoms: N_17  and  C_18
REMARK    9  A    between atoms: C_22  and  O_23
REMARK   10  A    between atoms: O_23  and  C_24
REMARK   11  A    between atoms: N_28  and  C_29
REMARK                            x       y       z     vdW  Elec       q    Type
REMARK                         _______ _______ _______ _____ _____    ______ ____
ROOT
ATOM      1  C   UNL     1       3.276   5.696  18.662  0.00  0.00    +0.000 C 
ATOM      2  C   UNL     1       4.154   6.042  17.453  0.00  0.00    +0.000 C 
ATOM      3  O   UNL     1       4.277   7.176  17.005  0.00  0.00    +0.000 OA
ATOM      4  N   UNL     1       4.687   4.883  16.956  0.00  0.00    +0.000 N 
ATOM      5  C   UNL     1       4.448   3.856  17.836  0.00  0.00    +0.000 C 
ATOM      6  O   UNL     1       4.844   2.710  17.711  0.00  0.00    +0.000 OA
ATOM      7  N   UNL     1       3.730   4.336  18.931  0.00  0.00    +0.000 N 
ENDROOT
BRANCH   4   8
ATOM      8  C   UNL     1       5.455   4.744  15.770  0.00  0.00    +0.000 A 
ATOM      9  C   UNL     1       6.793   5.148  15.702  0.00  0.00    +0.000 A 
ATOM     10  C   UNL     1       7.534   4.962  14.532  0.00  0.00    +0.000 A 
ATOM     11  C   UNL     1       6.939   4.394  13.406  0.00  0.00    +0.000 A 
ATOM     12  C   UNL     1       5.603   4.007  13.436  0.00  0.00    +0.000 A 
ATOM     13  C   UNL     1       4.877   4.182  14.614  0.00  0.00    +0.000 A 
BRANCH  12  14
ATOM     14  O   UNL     1       5.110   3.489  12.271  0.00  0.00    +0.000 OA
ATOM     15  C   UNL     1       5.855   2.432  11.671  0.00  0.00    +0.000 C 
ENDBRANCH  12  14
ENDBRANCH   4   8
BRANCH   7  16
ATOM     16  C   UNL     1       3.212   3.511  20.041  0.00  0.00    +0.000 C 
ATOM     17  C   UNL     1       2.015   4.110  20.795  0.00  0.00    +0.000 C 
ATOM     18  C   UNL     1       0.667   3.963  20.097  0.00  0.00    +0.000 C 
ATOM     19  C   UNL     1       0.404   2.572  19.512  0.00  0.00    +0.000 C 
ATOM     20  C   UNL     1       1.599   1.851  18.887  0.00  0.00    +0.000 C 
ATOM     21  C   UNL     1       2.911   2.058  19.636  0.00  0.00    +0.000 C 
ENDBRANCH   7  16
BRANCH   1  22
ATOM     22  C   UNL     1       3.458   6.731  19.769  0.00  0.00    +0.000 C 
BRANCH  22  24
ATOM     23  N   UNL     1       1.971   8.242  20.995  0.00  0.00    +0.000 N 
ATOM     24  C   UNL     1       2.245   7.647  19.775  0.00  0.00    +0.000 C 
ATOM     25  O   UNL     1       1.623   7.799  18.728  0.00  0.00    +0.000 OA
ATOM     26  H   UNL     1       2.592   8.041  21.774  0.00  0.00    +0.000 HD
BRANCH  23  30
ATOM     27  C   UNL     1      -0.965  11.192  21.839  0.00  0.00    +0.000 A 
ATOM     28  C   UNL     1      -0.465  11.056  20.542  0.00  0.00    +0.000 A 
ATOM     29  C   UNL     1       0.492  10.084  20.254  0.00  0.00    +0.000 A 
ATOM     30  C   UNL     1       0.979   9.226  21.240  0.00  0.00    +0.000 A 
ATOM     31  C   UNL     1       0.467   9.357  22.544  0.00  0.00    +0.000 A 
ATOM     32  C   UNL     1      -0.506  10.329  22.839  0.00  0.00    +0.000 A 
BRANCH  27  33
ATOM     33  C   UNL     1      -1.989  12.220  22.161  0.00  0.00    +0.000 C 
ATOM     34  O   UNL     1      -2.016  13.328  21.651  0.00  0.00    +0.000 OA
BRANCH  33  35
ATOM     35  O   UNL     1      -2.863  11.725  23.072  0.00  0.00    +0.000 OA
BRANCH  35  37
ATOM     36  C   UNL     1      -4.384  12.402  24.816  0.00  0.00    +0.000 C 
ATOM     37  C   UNL     1      -4.010  12.538  23.353  0.00  0.00    +0.000 C 
ENDBRANCH  35  37
ENDBRANCH  33  35
ENDBRANCH  27  33
ENDBRANCH  23  30
ENDBRANCH  22  24
ENDBRANCH   1  22
TORSDOF 9
ENDMDL
MODEL 6
REMARK VINA RESULT:      -8.0      1.245      1.515
REMARK  Name = 
REMARK  11 active torsions:
REMARK  status: ('A' for Active; 'I' for Inactive)
REMARK    1  A    between atoms: C_1  and  C_2
REMARK    2  A    between atoms: C_2  and  O_3
REMARK    3  A    between atoms: O_3  and  C_4
REMARK    4  A    between atoms: C_4  and  C_6
REMARK    5  A    between atoms: C_9  and  N_10
REMARK    6  A    between atoms: C_11  and  C_13
REMARK    7  A    between atoms: C_13  and  C_14
REMARK    8  A    between atoms: N_17  and  C_18
REMARK    9  A    between atoms: C_22  and  O_23
REMARK   10  A    between atoms: O_23  and  C_24
REMARK   11  A    between atoms: N_28  and  C_29
REMARK                            x       y       z     vdW  Elec       q    Type
REMARK                         _______ _______ _______ _____ _____    ______ ____
ROOT
ATOM      1  C   UNL     1       2.459   6.280  18.365  0.00  0.00    +0.000 C 
ATOM      2  C   UNL     1       3.786   6.457  17.616  0.00  0.00    +0.000 C 
ATOM      3  O   UNL     1       4.385   7.522  17.539  0.00  0.00    +0.000 OA
ATOM      4  N   UNL     1       4.111   5.268  17.021  0.00  0.00    +0.000 N 
ATOM      5  C   UNL     1       3.276   4.281  17.485  0.00  0.00    +0.000 C 
ATOM      6  O   UNL     1       3.345   3.099  17.192  0.00  0.00    +0.000 OA
ATOM      7  N   UNL     1       2.369   4.825  18.394  0.00  0.00    +0.000 N 
ENDROOT
BRANCH   4   8
ATOM      8  C   UNL     1       5.193   5.033  16.131  0.00  0.00    +0.000 A 
ATOM      9  C   UNL     1       6.496   5.448  16.426  0.00  0.00    +0.000 A 
ATOM     10  C   UNL     1       7.547   5.169  15.549  0.00  0.00    +0.000 A 
ATOM     11  C   UNL     1       7.305   4.493  14.353  0.00  0.00    +0.000 A 
ATOM     12  C   UNL     1       6.014   4.093  14.022  0.00  0.00    +0.000 A 
ATOM     13  C   UNL     1       4.975   4.362  14.911  0.00  0.00    +0.000 A 
BRANCH  12  14
ATOM     14  O   UNL     1       5.881   3.466  12.814  0.00  0.00    +0.000 OA
ATOM     15  C   UNL     1       6.870   3.751  11.828  0.00  0.00    +0.000 C 
ENDBRANCH  12  14
ENDBRANCH   4   8
BRANCH   7  16
ATOM     16  C   UNL     1       1.260   4.091  19.038  0.00  0.00    +0.000 C 
ATOM     17  C   UNL     1       1.321   2.563  18.896  0.00  0.00    +0.000 C 
ATOM     18  C   UNL     1       2.292   1.861  19.839  0.00  0.00    +0.000 C 
ATOM     19  C   UNL     1       2.237   2.352  21.288  0.00  0.00    +0.000 C 
ATOM     20  C   UNL     1       2.016   3.850  21.500  0.00  0.00    +0.000 C 
ATOM     21  C   UNL     1       1.042   4.481  20.510  0.00  0.00    +0.000 C 
ENDBRANCH   7  16
BRANCH   1  22
ATOM     22  C   UNL     1       2.499   7.010  19.704  0.00  0.00    +0.000 C 
BRANCH  22  24
ATOM     23  N   UNL     1       0.919   8.567  20.743  0.00  0.00    +0.000 N 
ATOM     24  C   UNL     1       1.637   8.258  19.599  0.00  0.00    +0.000 C 
ATOM     25  O   UNL     1       1.648   8.888  18.546  0.00  0.00    +0.000 OA
ATOM     26  H   UNL     1       1.029   7.964  21.552  0.00  0.00    +0.000 HD
BRANCH  23  30
ATOM     27  C   UNL     1      -1.475  12.036  21.264  0.00  0.00    +0.000 A 
ATOM     28  C   UNL     1      -0.814  11.474  22.358  0.00  0.00    +0.000 A 
ATOM     29  C   UNL     1      -0.018  10.340  22.194  0.00  0.00    +0.000 A 
ATOM     30  C   UNL     1       0.141   9.736  20.948  0.00  0.00    +0.000 A 
ATOM     31  C   UNL     1      -0.517  10.309  19.844  0.00  0.00    +0.000 A 
ATOM     32  C   UNL     1      -1.313  11.458  20.001  0.00  0.00    +0.000 A 
BRANCH  27  33
ATOM     33  C   UNL     1      -2.323  13.247  21.421  0.00  0.00    +0.000 C 
ATOM     34  O   UNL     1      -3.100  13.410  22.347  0.00  0.00    +0.000 OA
BRANCH  33  35
ATOM     35  O   UNL     1      -2.080  14.110  20.404  0.00  0.00    +0.000 OA
BRANCH  35  37
ATOM     36  C   UNL     1      -0.396  15.390  19.247  0.00  0.00    +0.000 C 
ATOM     37  C   UNL     1      -0.982  15.014  20.593  0.00  0.00    +0.000 C 
ENDBRANCH  35  37
ENDBRANCH  33  35
ENDBRANCH  27  33
ENDBRANCH  23  30
ENDBRANCH  22  24
ENDBRANCH   1  22
TORSDOF 9
ENDMDL
MODEL 7
REMARK VINA RESULT:      -8.0      1.429      2.176
REMARK  Name = 
REMARK  11 active torsions:
REMARK  status: ('A' for Active; 'I' for Inactive)
REMARK    1  A    between atoms: C_1  and  C_2
REMARK    2  A    between atoms: C_2  and  O_3
REMARK    3  A    between atoms: O_3  and  C_4
REMARK    4  A    between atoms: C_4  and  C_6
REMARK    5  A    between atoms: C_9  and  N_10
REMARK    6  A    between atoms: C_11  and  C_13
REMARK    7  A    between atoms: C_13  and  C_14
REMARK    8  A    between atoms: N_17  and  C_18
REMARK    9  A    between atoms: C_22  and  O_23
REMARK   10  A    between atoms: O_23  and  C_24
REMARK   11  A    between atoms: N_28  and  C_29
REMARK                            x       y       z     vdW  Elec       q    Type
REMARK                         _______ _______ _______ _____ _____    ______ ____
ROOT
ATOM      1  C   UNL     1       3.661   5.483  17.860  0.00  0.00    +0.000 C 
ATOM      2  C   UNL     1       4.479   5.780  16.596  0.00  0.00    +0.000 C 
ATOM      3  O   UNL     1       4.624   6.903  16.131  0.00  0.00    +0.000 OA
ATOM      4  N   UNL     1       4.928   4.594  16.081  0.00  0.00    +0.000 N 
ATOM      5  C   UNL     1       4.697   3.585  16.984  0.00  0.00    +0.000 C 
ATOM      6  O   UNL     1       5.034   2.422  16.847  0.00  0.00    +0.000 OA
ATOM      7  N   UNL     1       4.069   4.106  18.115  0.00  0.00    +0.000 N 
ENDROOT
BRANCH   4   8
ATOM      8  C   UNL     1       5.616   4.411  14.852  0.00  0.00    +0.000 A 
ATOM      9  C   UNL     1       6.920   4.879  14.657  0.00  0.00    +0.000 A 
ATOM     10  C   UNL     1       7.585   4.650  13.449  0.00  0.00    +0.000 A 
ATOM     11  C   UNL     1       6.944   3.973  12.412  0.00  0.00    +0.000 A 
ATOM     12  C   UNL     1       5.638   3.520  12.568  0.00  0.00    +0.000 A 
ATOM     13  C   UNL     1       4.990   3.740  13.783  0.00  0.00    +0.000 A 
BRANCH  12  14
ATOM     14  O   UNL     1       5.093   2.896  11.480  0.00  0.00    +0.000 OA
ATOM     15  C   UNL     1       3.785   3.306  11.091  0.00  0.00    +0.000 C 
ENDBRANCH  12  14
ENDBRANCH   4   8
BRANCH   7  16
ATOM     16  C   UNL     1       3.583   3.313  19.263  0.00  0.00    +0.000 C 
ATOM     17  C   UNL     1       2.640   4.060  20.218  0.00  0.00    +0.000 C 
ATOM     18  C   UNL     1       1.199   4.193  19.738  0.00  0.00    +0.000 C 
ATOM     19  C   UNL     1       0.604   2.908  19.152  0.00  0.00    +0.000 C 
ATOM     20  C   UNL     1       1.542   2.033  18.320  0.00  0.00    +0.000 C 
ATOM     21  C   UNL     1       2.968   1.963  18.858  0.00  0.00    +0.000 C 
ENDBRANCH   7  16
BRANCH   1  22
ATOM     22  C   UNL     1       3.955   6.517  18.943  0.00  0.00    +0.000 C 
BRANCH  22  24
ATOM     23  N   UNL     1       2.269   7.738  20.233  0.00  0.00    +0.000 N 
ATOM     24  C   UNL     1       2.811   7.517  18.977  0.00  0.00    +0.000 C 
ATOM     25  O   UNL     1       2.470   8.050  17.926  0.00  0.00    +0.000 OA
ATOM     26  H   UNL     1       2.673   7.241  21.021  0.00  0.00    +0.000 HD
BRANCH  23  30
ATOM     27  C   UNL     1      -0.628  10.653  21.305  0.00  0.00    +0.000 A 
ATOM     28  C   UNL     1      -0.383  10.375  19.958  0.00  0.00    +0.000 A 
ATOM     29  C   UNL     1       0.560   9.413  19.597  0.00  0.00    +0.000 A 
ATOM     30  C   UNL     1       1.282   8.706  20.557  0.00  0.00    +0.000 A 
ATOM     31  C   UNL     1       1.028   8.979  21.913  0.00  0.00    +0.000 A 
ATOM     32  C   UNL     1       0.072   9.941  22.284  0.00  0.00    +0.000 A 
BRANCH  27  33
ATOM     33  C   UNL     1      -1.632  11.673  21.706  0.00  0.00    +0.000 C 
ATOM     34  O   UNL     1      -2.346  12.264  20.913  0.00  0.00    +0.000 OA
BRANCH  33  35
ATOM     35  O   UNL     1      -1.629  11.812  23.055  0.00  0.00    +0.000 OA
BRANCH  35  37
ATOM     36  C   UNL     1      -1.335  14.117  23.697  0.00  0.00    +0.000 C 
ATOM     37  C   UNL     1      -2.310  12.963  23.572  0.00  0.00    +0.000 C 
ENDBRANCH  35  37
ENDBRANCH  33  35
ENDBRANCH  27  33
ENDBRANCH  23  30
ENDBRANCH  22  24
ENDBRANCH   1  22
TORSDOF 9
ENDMDL
MODEL 8
REMARK VINA RESULT:      -8.0      3.060     11.249
REMARK  Name = 
REMARK  11 active torsions:
REMARK  status: ('A' for Active; 'I' for Inactive)
REMARK    1  A    between atoms: C_1  and  C_2
REMARK    2  A    between atoms: C_2  and  O_3
REMARK    3  A    between atoms: O_3  and  C_4
REMARK    4  A    between atoms: C_4  and  C_6
REMARK    5  A    between atoms: C_9  and  N_10
REMARK    6  A    between atoms: C_11  and  C_13
REMARK    7  A    between atoms: C_13  and  C_14
REMARK    8  A    between atoms: N_17  and  C_18
REMARK    9  A    between atoms: C_22  and  O_23
REMARK   10  A    between atoms: O_23  and  C_24
REMARK   11  A    between atoms: N_28  and  C_29
REMARK                            x       y       z     vdW  Elec       q    Type
REMARK                         _______ _______ _______ _____ _____    ______ ____
ROOT
ATOM      1  C   UNL     1      -0.029  10.941  18.923  0.00  0.00    +0.000 C 
ATOM      2  C   UNL     1      -1.479  10.571  18.584  0.00  0.00    +0.000 C 
ATOM      3  O   UNL     1      -1.810   9.493  18.107  0.00  0.00    +0.000 OA
ATOM      4  N   UNL     1      -2.275  11.654  18.841  0.00  0.00    +0.000 N 
ATOM      5  C   UNL     1      -1.552  12.603  19.522  0.00  0.00    +0.000 C 
ATOM      6  O   UNL     1      -1.992  13.658  19.947  0.00  0.00    +0.000 OA
ATOM      7  N   UNL     1      -0.247  12.149  19.710  0.00  0.00    +0.000 N 
ENDROOT
BRANCH   4   8
ATOM      8  C   UNL     1      -3.660  11.776  18.548  0.00  0.00    +0.000 A 
ATOM      9  C   UNL     1      -4.155  11.646  17.246  0.00  0.00    +0.000 A 
ATOM     10  C   UNL     1      -5.526  11.733  16.994  0.00  0.00    +0.000 A 
ATOM     11  C   UNL     1      -6.419  11.977  18.038  0.00  0.00    +0.000 A 
ATOM     12  C   UNL     1      -5.951  12.138  19.339  0.00  0.00    +0.000 A 
ATOM     13  C   UNL     1      -4.583  12.033  19.581  0.00  0.00    +0.000 A 
BRANCH  12  14
ATOM     14  O   UNL     1      -6.906  12.403  20.282  0.00  0.00    +0.000 OA
ATOM     15  C   UNL     1      -7.722  11.310  20.697  0.00  0.00    +0.000 C 
ENDBRANCH  12  14
ENDBRANCH   4   8
BRANCH   7  16
ATOM     16  C   UNL     1       0.848  12.928  20.324  0.00  0.00    +0.000 C 
ATOM     17  C   UNL     1       2.242  12.672  19.732  0.00  0.00    +0.000 C 
ATOM     18  C   UNL     1       2.525  13.374  18.408  0.00  0.00    +0.000 C 
ATOM     19  C   UNL     1       2.087  14.841  18.361  0.00  0.00    +0.000 C 
ATOM     20  C   UNL     1       0.781  15.192  19.075  0.00  0.00    +0.000 C 
ATOM     21  C   UNL     1       0.566  14.439  20.384  0.00  0.00    +0.000 C 
ENDBRANCH   7  16
BRANCH   1  22
ATOM     22  C   UNL     1       0.676   9.773  19.606  0.00  0.00    +0.000 C 
BRANCH  22  24
ATOM     23  N   UNL     1       2.162   7.920  19.009  0.00  0.00    +0.000 N 
ATOM     24  C   UNL     1       1.623   9.130  18.605  0.00  0.00    +0.000 C 
ATOM     25  O   UNL     1       1.824   9.705  17.540  0.00  0.00    +0.000 OA
ATOM     26  H   UNL     1       1.884   7.552  19.914  0.00  0.00    +0.000 HD
BRANCH  23  30
ATOM     27  C   UNL     1       4.489   5.278  16.634  0.00  0.00    +0.000 A 
ATOM     28  C   UNL     1       4.806   6.637  16.679  0.00  0.00    +0.000 A 
ATOM     29  C   UNL     1       4.053   7.510  17.464  0.00  0.00    +0.000 A 
ATOM     30  C   UNL     1       2.970   7.062  18.219  0.00  0.00    +0.000 A 
ATOM     31  C   UNL     1       2.658   5.690  18.181  0.00  0.00    +0.000 A 
ATOM     32  C   UNL     1       3.420   4.803  17.400  0.00  0.00    +0.000 A 
BRANCH  27  33
ATOM     33  C   UNL     1       5.284   4.333  15.807  0.00  0.00    +0.000 C 
ATOM     34  O   UNL     1       5.682   3.253  16.212  0.00  0.00    +0.000 OA
BRANCH  33  35
ATOM     35  O   UNL     1       5.469   4.853  14.568  0.00  0.00    +0.000 OA
BRANCH  35  37
ATOM     36  C   UNL     1       5.769   3.450  12.631  0.00  0.00    +0.000 C 
ATOM     37  C   UNL     1       6.454   4.206  13.752  0.00  0.00    +0.000 C 
ENDBRANCH  35  37
ENDBRANCH  33  35
ENDBRANCH  27  33
ENDBRANCH  23  30
ENDBRANCH  22  24
ENDBRANCH   1  22
TORSDOF 9
ENDMDL
MODEL 9
REMARK VINA RESULT:      -7.9      3.180     11.335
REMARK  Name = 
REMARK  11 active torsions:
REMARK  status: ('A' for Active; 'I' for Inactive)
REMARK    1  A    between atoms: C_1  and  C_2
REMARK    2  A    between atoms: C_2  and  O_3
REMARK    3  A    between atoms: O_3  and  C_4
REMARK    4  A    between atoms: C_4  and  C_6
REMARK    5  A    between atoms: C_9  and  N_10
REMARK    6  A    between atoms: C_11  and  C_13
REMARK    7  A    between atoms: C_13  and  C_14
REMARK    8  A    between atoms: N_17  and  C_18
REMARK    9  A    between atoms: C_22  and  O_23
REMARK   10  A    between atoms: O_23  and  C_24
REMARK   11  A    between atoms: N_28  and  C_29
REMARK                            x       y       z     vdW  Elec       q    Type
REMARK                         _______ _______ _______ _____ _____    ______ ____
ROOT
ATOM      1  C   UNL     1      -0.337  10.881  21.213  0.00  0.00    +0.000 C 
ATOM      2  C   UNL     1      -0.835  11.478  22.535  0.00  0.00    +0.000 C 
ATOM      3  O   UNL     1      -0.820  10.874  23.601  0.00  0.00    +0.000 OA
ATOM      4  N   UNL     1      -1.340  12.725  22.286  0.00  0.00    +0.000 N 
ATOM      5  C   UNL     1      -1.018  13.102  21.004  0.00  0.00    +0.000 C 
ATOM      6  O   UNL     1      -1.272  14.181  20.499  0.00  0.00    +0.000 OA
ATOM      7  N   UNL     1      -0.298  12.080  20.385  0.00  0.00    +0.000 N 
ENDROOT
BRANCH   4   8
ATOM      8  C   UNL     1      -2.013  13.568  23.210  0.00  0.00    +0.000 A 
ATOM      9  C   UNL     1      -3.410  13.614  23.287  0.00  0.00    +0.000 A 
ATOM     10  C   UNL     1      -4.043  14.424  24.233  0.00  0.00    +0.000 A 
ATOM     11  C   UNL     1      -3.289  15.217  25.097  0.00  0.00    +0.000 A 
ATOM     12  C   UNL     1      -1.900  15.212  25.024  0.00  0.00    +0.000 A 
ATOM     13  C   UNL     1      -1.277  14.388  24.088  0.00  0.00    +0.000 A 
BRANCH  12  14
ATOM     14  O   UNL     1      -1.258  16.048  25.895  0.00  0.00    +0.000 OA
ATOM     15  C   UNL     1      -0.501  17.114  25.325  0.00  0.00    +0.000 C 
ENDBRANCH  12  14
ENDBRANCH   4   8
BRANCH   7  16
ATOM     16  C   UNL     1       0.146  12.082  18.976  0.00  0.00    +0.000 C 
ATOM     17  C   UNL     1       0.613  10.721  18.438  0.00  0.00    +0.000 C 
ATOM     18  C   UNL     1      -0.503   9.755  18.054  0.00  0.00    +0.000 C 
ATOM     19  C   UNL     1      -1.640  10.388  17.246  0.00  0.00    +0.000 C 
ATOM     20  C   UNL     1      -2.046  11.812  17.629  0.00  0.00    +0.000 C 
ATOM     21  C   UNL     1      -0.875  12.711  18.013  0.00  0.00    +0.000 C 
ENDBRANCH   7  16
BRANCH   1  22
ATOM     22  C   UNL     1       0.975  10.129  21.426  0.00  0.00    +0.000 C 
BRANCH  22  24
ATOM     23  N   UNL     1       1.776   8.091  20.330  0.00  0.00    +0.000 N 
ATOM     24  C   UNL     1       0.756   8.668  21.067  0.00  0.00    +0.000 C 
ATOM     25  O   UNL     1      -0.270   8.119  21.456  0.00  0.00    +0.000 OA
ATOM     26  H   UNL     1       2.582   8.666  20.100  0.00  0.00    +0.000 HD
BRANCH  23  30
ATOM     27  C   UNL     1       2.150   4.021  19.178  0.00  0.00    +0.000 A 
ATOM     28  C   UNL     1       1.819   4.345  20.495  0.00  0.00    +0.000 A 
ATOM     29  C   UNL     1       1.685   5.679  20.880  0.00  0.00    +0.000 A 
ATOM     30  C   UNL     1       1.877   6.721  19.974  0.00  0.00    +0.000 A 
ATOM     31  C   UNL     1       2.200   6.393  18.644  0.00  0.00    +0.000 A 
ATOM     32  C   UNL     1       2.327   5.050  18.248  0.00  0.00    +0.000 A 
BRANCH  27  33
ATOM     33  C   UNL     1       2.292   2.604  18.751  0.00  0.00    +0.000 C 
ATOM     34  O   UNL     1       1.375   1.800  18.769  0.00  0.00    +0.000 OA
BRANCH  33  35
ATOM     35  O   UNL     1       3.563   2.376  18.338  0.00  0.00    +0.000 OA
BRANCH  35  37
ATOM     36  C   UNL     1       4.630   1.811  20.426  0.00  0.00    +0.000 C 
ATOM     37  C   UNL     1       4.601   2.765  19.248  0.00  0.00    +0.000 C 
ENDBRANCH  35  37
ENDBRANCH  33  35
ENDBRANCH  27  33
ENDBRANCH  23  30
ENDBRANCH  22  24
ENDBRANCH   1  22
TORSDOF 9
ENDMDL
