MODEL 1
REMARK VINA RESULT:      -8.6      0.000      0.000
REMARK  Name = 
REMARK  8 active torsions:
REMARK  status: ('A' for Active; 'I' for Inactive)
REMARK    1  A    between atoms: C_1  and  C_2
REMARK    2  A    between atoms: C_2  and  O_3
REMARK    3  A    between atoms: O_3  and  C_4
REMARK    4  A    between atoms: C_6  and  C_7
REMARK    5  A    between atoms: N_8  and  N_9
REMARK    6  A    between atoms: C_10  and  C_12
REMARK    7  A    between atoms: C_13  and  C_14
REMARK    8  A    between atoms: C_25  and  O_26
REMARK                            x       y       z     vdW  Elec       q    Type
REMARK                         _______ _______ _______ _____ _____    ______ ____
ROOT
ATOM      1  N   UNL     1       7.326   7.354  17.667  0.00  0.00    +0.000 N 
ATOM      2  C   UNL     1       7.032   6.128  18.253  0.00  0.00    +0.000 C 
ATOM      3  O   UNL     1       7.538   5.753  19.309  0.00  0.00    +0.000 OA
ATOM      4  H   UNL     1       6.809   7.684  16.862  0.00  0.00    +0.000 HD
ENDROOT
BRANCH   2   5
ATOM      5  C   UNL     1       6.050   5.338  17.541  0.00  0.00    +0.000 A 
ATOM      6  C   UNL     1       6.080   4.769  16.269  0.00  0.00    +0.000 A 
ATOM      7  C   UNL     1       7.157   4.721  15.248  0.00  0.00    +0.000 C 
ATOM      8  N   UNL     1       4.901   4.128  15.990  0.00  0.00    +0.000 NA
ATOM      9  C   UNL     1       4.170   4.229  17.071  0.00  0.00    +0.000 A 
ATOM     10  C   UNL     1       2.870   3.729  17.358  0.00  0.00    +0.000 A 
ATOM     11  C   UNL     1       2.329   3.926  18.577  0.00  0.00    +0.000 A 
ATOM     12  C   UNL     1       3.055   4.648  19.609  0.00  0.00    +0.000 A 
ATOM     13 CL   UNL     1       2.317   4.854  21.146  0.00  0.00    +0.000 Cl
ATOM     14  C   UNL     1       4.273   5.138  19.340  0.00  0.00    +0.000 A 
ATOM     15  N   UNL     1       4.834   4.931  18.075  0.00  0.00    +0.000 N 
ENDBRANCH   2   5
BRANCH   1  17
ATOM     16  C   UNL     1       8.196   9.424  17.961  0.00  0.00    +0.000 C 
ATOM     17  N   UNL     1       8.255   8.162  18.238  0.00  0.00    +0.000 NA
BRANCH  16  20
ATOM     18  C   UNL     1      11.011  11.907  18.251  0.00  0.00    +0.000 A 
ATOM     19  C   UNL     1      10.026  11.075  17.721  0.00  0.00    +0.000 A 
ATOM     20  C   UNL     1       9.170  10.358  18.561  0.00  0.00    +0.000 A 
ATOM     21  C   UNL     1       9.254  10.505  19.946  0.00  0.00    +0.000 A 
ATOM     22  C   UNL     1      10.186  11.399  20.483  0.00  0.00    +0.000 A 
ATOM     23  C   UNL     1      11.054  12.097  19.638  0.00  0.00    +0.000 A 
BRANCH  23  24
ATOM     24  O   UNL     1      11.976  12.958  20.168  0.00  0.00    +0.000 OA
ATOM     25  H   UNL     1      12.313  12.595  21.002  0.00  0.00    +0.000 HD
ENDBRANCH  23  24
BRANCH  18  26
ATOM     26  O   UNL     1      11.958  12.534  17.476  0.00  0.00    +0.000 OA
BRANCH  26  28
ATOM     27  C   UNL     1      11.601  14.900  17.158  0.00  0.00    +0.000 C 
ATOM     28  C   UNL     1      11.426  13.512  16.576  0.00  0.00    +0.000 C 
ENDBRANCH  26  28
ENDBRANCH  18  26
ENDBRANCH  16  20
ENDBRANCH   1  17
TORSDOF 6
ENDMDL
MODEL 2
REMARK VINA RESULT:      -8.3      1.005      2.361
REMARK  Name = 
REMARK  8 active torsions:
REMARK  status: ('A' for Active; 'I' for Inactive)
REMARK    1  A    between atoms: C_1  and  C_2
REMARK    2  A    between atoms: C_2  and  O_3
REMARK    3  A    between atoms: O_3  and  C_4
REMARK    4  A    between atoms: C_6  and  C_7
REMARK    5  A    between atoms: N_8  and  N_9
REMARK    6  A    between atoms: C_10  and  C_12
REMARK    7  A    between atoms: C_13  and  C_14
REMARK    8  A    between atoms: C_25  and  O_26
REMARK                            x       y       z     vdW  Elec       q    Type
REMARK                         _______ _______ _______ _____ _____    ______ ____
ROOT
ATOM      1  N   UNL     1       7.296   7.433  17.673  0.00  0.00    +0.000 N 
ATOM      2  C   UNL     1       7.106   6.151  18.177  0.00  0.00    +0.000 C 
ATOM      3  O   UNL     1       7.713   5.720  19.155  0.00  0.00    +0.000 OA
ATOM      4  H   UNL     1       6.701   7.799  16.942  0.00  0.00    +0.000 HD
ENDROOT
BRANCH   2   5
ATOM      5  C   UNL     1       6.105   5.370  17.481  0.00  0.00    +0.000 A 
ATOM      6  C   UNL     1       6.115   4.791  16.214  0.00  0.00    +0.000 A 
ATOM      7  C   UNL     1       7.181   4.718  15.183  0.00  0.00    +0.000 C 
ATOM      8  N   UNL     1       4.923   4.165  15.951  0.00  0.00    +0.000 NA
ATOM      9  C   UNL     1       4.204   4.287  17.038  0.00  0.00    +0.000 A 
ATOM     10  C   UNL     1       2.900   3.809  17.342  0.00  0.00    +0.000 A 
ATOM     11  C   UNL     1       2.373   4.025  18.564  0.00  0.00    +0.000 A 
ATOM     12  C   UNL     1       3.120   4.743  19.583  0.00  0.00    +0.000 A 
ATOM     13 CL   UNL     1       2.400   4.974  21.125  0.00  0.00    +0.000 Cl
ATOM     14  C   UNL     1       4.343   5.213  19.299  0.00  0.00    +0.000 A 
ATOM     15  N   UNL     1       4.889   4.986  18.030  0.00  0.00    +0.000 N 
ENDBRANCH   2   5
BRANCH   1  17
ATOM     16  C   UNL     1       8.240   9.482  17.874  0.00  0.00    +0.000 C 
ATOM     17  N   UNL     1       8.232   8.240  18.235  0.00  0.00    +0.000 NA
BRANCH  16  20
ATOM     18  C   UNL     1      10.026  11.626  20.401  0.00  0.00    +0.000 A 
ATOM     19  C   UNL     1       9.164  10.693  19.826  0.00  0.00    +0.000 A 
ATOM     20  C   UNL     1       9.225  10.414  18.458  0.00  0.00    +0.000 A 
ATOM     21  C   UNL     1      10.187  11.028  17.655  0.00  0.00    +0.000 A 
ATOM     22  C   UNL     1      11.107  11.904  18.238  0.00  0.00    +0.000 A 
ATOM     23  C   UNL     1      11.027  12.196  19.604  0.00  0.00    +0.000 A 
BRANCH  23  24
ATOM     24  O   UNL     1      11.918  13.067  20.169  0.00  0.00    +0.000 OA
ATOM     25  H   UNL     1      11.683  13.975  19.919  0.00  0.00    +0.000 HD
ENDBRANCH  23  24
BRANCH  18  26
ATOM     26  O   UNL     1       9.925  12.030  21.711  0.00  0.00    +0.000 OA
BRANCH  26  28
ATOM     27  C   UNL     1       8.111  11.723  23.275  0.00  0.00    +0.000 C 
ATOM     28  C   UNL     1       8.625  12.503  22.081  0.00  0.00    +0.000 C 
ENDBRANCH  26  28
ENDBRANCH  18  26
ENDBRANCH  16  20
ENDBRANCH   1  17
TORSDOF 6
ENDMDL
MODEL 3
REMARK VINA RESULT:      -7.9      1.197      1.259
REMARK  Name = 
REMARK  8 active torsions:
REMARK  status: ('A' for Active; 'I' for Inactive)
REMARK    1  A    between atoms: C_1  and  C_2
REMARK    2  A    between atoms: C_2  and  O_3
REMARK    3  A    between atoms: O_3  and  C_4
REMARK    4  A    between atoms: C_6  and  C_7
REMARK    5  A    between atoms: N_8  and  N_9
REMARK    6  A    between atoms: C_10  and  C_12
REMARK    7  A    between atoms: C_13  and  C_14
REMARK    8  A    between atoms: C_25  and  O_26
REMARK                            x       y       z     vdW  Elec       q    Type
REMARK                         _______ _______ _______ _____ _____    ______ ____
ROOT
ATOM      1  N   UNL     1       7.262   7.607  17.431  0.00  0.00    +0.000 N 
ATOM      2  C   UNL     1       7.099   6.349  17.999  0.00  0.00    +0.000 C 
ATOM      3  O   UNL     1       7.693   5.992  19.015  0.00  0.00    +0.000 OA
ATOM      4  H   UNL     1       6.675   7.912  16.665  0.00  0.00    +0.000 HD
ENDROOT
BRANCH   2   5
ATOM      5  C   UNL     1       6.145   5.498  17.321  0.00  0.00    +0.000 A 
ATOM      6  C   UNL     1       6.192   4.882  16.072  0.00  0.00    +0.000 A 
ATOM      7  C   UNL     1       7.268   4.834  15.049  0.00  0.00    +0.000 C 
ATOM      8  N   UNL     1       5.036   4.189  15.821  0.00  0.00    +0.000 NA
ATOM      9  C   UNL     1       4.304   4.306  16.900  0.00  0.00    +0.000 A 
ATOM     10  C   UNL     1       3.024   3.772  17.211  0.00  0.00    +0.000 A 
ATOM     11  C   UNL     1       2.478   3.995  18.423  0.00  0.00    +0.000 A 
ATOM     12  C   UNL     1       3.180   4.781  19.425  0.00  0.00    +0.000 A 
ATOM     13 CL   UNL     1       2.439   5.020  20.955  0.00  0.00    +0.000 Cl
ATOM     14  C   UNL     1       4.380   5.304  19.133  0.00  0.00    +0.000 A 
ATOM     15  N   UNL     1       4.946   5.068  17.874  0.00  0.00    +0.000 N 
ENDBRANCH   2   5
BRANCH   1  17
ATOM     16  C   UNL     1       7.945   9.737  17.784  0.00  0.00    +0.000 C 
ATOM     17  N   UNL     1       8.155   8.475  17.972  0.00  0.00    +0.000 NA
BRANCH  16  20
ATOM     18  C   UNL     1       9.800  12.973  18.293  0.00  0.00    +0.000 A 
ATOM     19  C   UNL     1       8.885  12.027  17.832  0.00  0.00    +0.000 A 
ATOM     20  C   UNL     1       8.873  10.733  18.358  0.00  0.00    +0.000 A 
ATOM     21  C   UNL     1       9.742  10.382  19.391  0.00  0.00    +0.000 A 
ATOM     22  C   UNL     1      10.607  11.349  19.915  0.00  0.00    +0.000 A 
ATOM     23  C   UNL     1      10.630  12.636  19.370  0.00  0.00    +0.000 A 
BRANCH  23  24
ATOM     24  O   UNL     1      11.490  13.574  19.873  0.00  0.00    +0.000 OA
ATOM     25  H   UNL     1      11.130  14.461  19.711  0.00  0.00    +0.000 HD
ENDBRANCH  23  24
BRANCH  18  26
ATOM     26  O   UNL     1       9.940  14.218  17.725  0.00  0.00    +0.000 OA
BRANCH  26  28
ATOM     27  C   UNL     1       7.949  15.583  17.764  0.00  0.00    +0.000 C 
ATOM     28  C   UNL     1       9.270  15.266  18.435  0.00  0.00    +0.000 C 
ENDBRANCH  26  28
ENDBRANCH  18  26
ENDBRANCH  16  20
ENDBRANCH   1  17
TORSDOF 6
ENDMDL
MODEL 4
REMARK VINA RESULT:      -7.7      6.783     10.165
REMARK  Name = 
REMARK  8 active torsions:
REMARK  status: ('A' for Active; 'I' for Inactive)
REMARK    1  A    between atoms: C_1  and  C_2
REMARK    2  A    between atoms: C_2  and  O_3
REMARK    3  A    between atoms: O_3  and  C_4
REMARK    4  A    between atoms: C_6  and  C_7
REMARK    5  A    between atoms: N_8  and  N_9
REMARK    6  A    between atoms: C_10  and  C_12
REMARK    7  A    between atoms: C_13  and  C_14
REMARK    8  A    between atoms: C_25  and  O_26
REMARK                            x       y       z     vdW  Elec       q    Type
REMARK                         _______ _______ _______ _____ _____    ______ ____
ROOT
ATOM      1  N   UNL     1       1.575   9.092  18.770  0.00  0.00    +0.000 N 
ATOM      2  C   UNL     1       0.603   9.652  19.591  0.00  0.00    +0.000 C 
ATOM      3  O   UNL     1       0.295   9.179  20.683  0.00  0.00    +0.000 OA
ATOM      4  H   UNL     1       1.888   9.567  17.934  0.00  0.00    +0.000 HD
ENDROOT
BRANCH   2   5
ATOM      5  C   UNL     1       0.001  10.863  19.075  0.00  0.00    +0.000 A 
ATOM      6  C   UNL     1      -1.094  11.056  18.237  0.00  0.00    +0.000 A 
ATOM      7  C   UNL     1      -2.056  10.089  17.651  0.00  0.00    +0.000 C 
ATOM      8  N   UNL     1      -1.287  12.389  17.979  0.00  0.00    +0.000 NA
ATOM      9  C   UNL     1      -0.384  13.027  18.680  0.00  0.00    +0.000 A 
ATOM     10  C   UNL     1      -0.134  14.420  18.817  0.00  0.00    +0.000 A 
ATOM     11  C   UNL     1       0.840  14.850  19.644  0.00  0.00    +0.000 A 
ATOM     12  C   UNL     1       1.647  13.907  20.401  0.00  0.00    +0.000 A 
ATOM     13 CL   UNL     1       2.865  14.517  21.447  0.00  0.00    +0.000 Cl
ATOM     14  C   UNL     1       1.430  12.591  20.263  0.00  0.00    +0.000 A 
ATOM     15  N   UNL     1       0.416  12.147  19.406  0.00  0.00    +0.000 N 
ENDBRANCH   2   5
BRANCH   1  17
ATOM     16  C   UNL     1       2.572   7.138  18.207  0.00  0.00    +0.000 C 
ATOM     17  N   UNL     1       2.183   7.938  19.146  0.00  0.00    +0.000 NA
BRANCH  16  20
ATOM     18  C   UNL     1       3.079   3.518  19.111  0.00  0.00    +0.000 A 
ATOM     19  C   UNL     1       2.485   4.715  18.712  0.00  0.00    +0.000 A 
ATOM     20  C   UNL     1       3.252   5.872  18.550  0.00  0.00    +0.000 A 
ATOM     21  C   UNL     1       4.634   5.835  18.736  0.00  0.00    +0.000 A 
ATOM     22  C   UNL     1       5.248   4.620  19.058  0.00  0.00    +0.000 A 
ATOM     23  C   UNL     1       4.473   3.470  19.239  0.00  0.00    +0.000 A 
BRANCH  23  24
ATOM     24  O   UNL     1       5.075   2.287  19.571  0.00  0.00    +0.000 OA
ATOM     25  H   UNL     1       5.645   2.000  18.841  0.00  0.00    +0.000 HD
ENDBRANCH  23  24
BRANCH  18  26
ATOM     26  O   UNL     1       2.357   2.387  19.407  0.00  0.00    +0.000 OA
BRANCH  26  28
ATOM     27  C   UNL     1       1.621   2.636  21.694  0.00  0.00    +0.000 C 
ATOM     28  C   UNL     1       1.211   2.621  20.235  0.00  0.00    +0.000 C 
ENDBRANCH  26  28
ENDBRANCH  18  26
ENDBRANCH  16  20
ENDBRANCH   1  17
TORSDOF 6
ENDMDL
MODEL 5
REMARK VINA RESULT:      -7.7      2.444      3.996
REMARK  Name = 
REMARK  8 active torsions:
REMARK  status: ('A' for Active; 'I' for Inactive)
REMARK    1  A    between atoms: C_1  and  C_2
REMARK    2  A    between atoms: C_2  and  O_3
REMARK    3  A    between atoms: O_3  and  C_4
REMARK    4  A    between atoms: C_6  and  C_7
REMARK    5  A    between atoms: N_8  and  N_9
REMARK    6  A    between atoms: C_10  and  C_12
REMARK    7  A    between atoms: C_13  and  C_14
REMARK    8  A    between atoms: C_25  and  O_26
REMARK                            x       y       z     vdW  Elec       q    Type
REMARK                         _______ _______ _______ _____ _____    ______ ____
ROOT
ATOM      1  N   UNL     1       7.452   7.364  17.913  0.00  0.00    +0.000 N 
ATOM      2  C   UNL     1       7.460   6.038  18.331  0.00  0.00    +0.000 C 
ATOM      3  O   UNL     1       8.199   5.622  19.222  0.00  0.00    +0.000 OA
ATOM      4  H   UNL     1       6.754   7.701  17.263  0.00  0.00    +0.000 HD
ENDROOT
BRANCH   2   5
ATOM      5  C   UNL     1       6.500   5.187  17.661  0.00  0.00    +0.000 A 
ATOM      6  C   UNL     1       5.377   4.517  18.141  0.00  0.00    +0.000 A 
ATOM      7  C   UNL     1       4.746   4.512  19.485  0.00  0.00    +0.000 C 
ATOM      8  N   UNL     1       4.776   3.789  17.147  0.00  0.00    +0.000 NA
ATOM      9  C   UNL     1       5.456   4.037  16.056  0.00  0.00    +0.000 A 
ATOM     10  C   UNL     1       5.267   3.577  14.724  0.00  0.00    +0.000 A 
ATOM     11  C   UNL     1       6.083   4.010  13.742  0.00  0.00    +0.000 A 
ATOM     12  C   UNL     1       7.161   4.943  14.023  0.00  0.00    +0.000 A 
ATOM     13 CL   UNL     1       8.158   5.467  12.727  0.00  0.00    +0.000 Cl
ATOM     14  C   UNL     1       7.357   5.368  15.280  0.00  0.00    +0.000 A 
ATOM     15  N   UNL     1       6.508   4.919  16.298  0.00  0.00    +0.000 N 
ENDBRANCH   2   5
BRANCH   1  17
ATOM     16  C   UNL     1       8.339   9.446  17.987  0.00  0.00    +0.000 C 
ATOM     17  N   UNL     1       8.332   8.242  18.458  0.00  0.00    +0.000 NA
BRANCH  16  20
ATOM     18  C   UNL     1      10.020  11.726  20.467  0.00  0.00    +0.000 A 
ATOM     19  C   UNL     1       9.218  10.728  19.915  0.00  0.00    +0.000 A 
ATOM     20  C   UNL     1       9.264  10.452  18.546  0.00  0.00    +0.000 A 
ATOM     21  C   UNL     1      10.155  11.137  17.718  0.00  0.00    +0.000 A 
ATOM     22  C   UNL     1      11.020  12.082  18.278  0.00  0.00    +0.000 A 
ATOM     23  C   UNL     1      10.953  12.369  19.645  0.00  0.00    +0.000 A 
BRANCH  23  24
ATOM     24  O   UNL     1      11.790  13.307  20.186  0.00  0.00    +0.000 OA
ATOM     25  H   UNL     1      11.473  13.548  21.071  0.00  0.00    +0.000 HD
ENDBRANCH  23  24
BRANCH  18  26
ATOM     26  O   UNL     1       9.923  12.123  21.780  0.00  0.00    +0.000 OA
BRANCH  26  28
ATOM     27  C   UNL     1       8.073  11.791  23.295  0.00  0.00    +0.000 C 
ATOM     28  C   UNL     1       8.629  12.613  22.150  0.00  0.00    +0.000 C 
ENDBRANCH  26  28
ENDBRANCH  18  26
ENDBRANCH  16  20
ENDBRANCH   1  17
TORSDOF 6
ENDMDL
MODEL 6
REMARK VINA RESULT:      -7.6      6.194      8.743
REMARK  Name = 
REMARK  8 active torsions:
REMARK  status: ('A' for Active; 'I' for Inactive)
REMARK    1  A    between atoms: C_1  and  C_2
REMARK    2  A    between atoms: C_2  and  O_3
REMARK    3  A    between atoms: O_3  and  C_4
REMARK    4  A    between atoms: C_6  and  C_7
REMARK    5  A    between atoms: N_8  and  N_9
REMARK    6  A    between atoms: C_10  and  C_12
REMARK    7  A    between atoms: C_13  and  C_14
REMARK    8  A    between atoms: C_25  and  O_26
REMARK                            x       y       z     vdW  Elec       q    Type
REMARK                         _______ _______ _______ _____ _____    ______ ____
ROOT
ATOM      1  N   UNL     1       1.269   8.818  19.182  0.00  0.00    +0.000 N 
ATOM      2  C   UNL     1       1.200  10.123  18.706  0.00  0.00    +0.000 C 
ATOM      3  O   UNL     1       2.068  10.622  17.993  0.00  0.00    +0.000 OA
ATOM      4  H   UNL     1       0.487   8.399  19.668  0.00  0.00    +0.000 HD
ENDROOT
BRANCH   2   5
ATOM      5  C   UNL     1       0.003  10.843  19.087  0.00  0.00    +0.000 A 
ATOM      6  C   UNL     1      -0.245  11.711  20.148  0.00  0.00    +0.000 A 
ATOM      7  C   UNL     1       0.655  12.245  21.201  0.00  0.00    +0.000 C 
ATOM      8  N   UNL     1      -1.548  12.137  20.140  0.00  0.00    +0.000 NA
ATOM      9  C   UNL     1      -2.094  11.610  19.073  0.00  0.00    +0.000 A 
ATOM     10  C   UNL     1      -3.411  11.733  18.552  0.00  0.00    +0.000 A 
ATOM     11  C   UNL     1      -3.736  11.120  17.396  0.00  0.00    +0.000 A 
ATOM     12  C   UNL     1      -2.757  10.329  16.668  0.00  0.00    +0.000 A 
ATOM     13 CL   UNL     1      -3.228   9.585  15.195  0.00  0.00    +0.000 Cl
ATOM     14  C   UNL     1      -1.518  10.194  17.163  0.00  0.00    +0.000 A 
ATOM     15  N   UNL     1      -1.182  10.832  18.362  0.00  0.00    +0.000 N 
ENDBRANCH   2   5
BRANCH   1  17
ATOM     16  C   UNL     1       2.219   7.094  18.064  0.00  0.00    +0.000 C 
ATOM     17  N   UNL     1       2.363   8.064  18.907  0.00  0.00    +0.000 NA
BRANCH  16  20
ATOM     18  C   UNL     1       5.684   6.089  16.986  0.00  0.00    +0.000 A 
ATOM     19  C   UNL     1       4.592   6.853  17.398  0.00  0.00    +0.000 A 
ATOM     20  C   UNL     1       3.374   6.243  17.712  0.00  0.00    +0.000 A 
ATOM     21  C   UNL     1       3.248   4.854  17.669  0.00  0.00    +0.000 A 
ATOM     22  C   UNL     1       4.362   4.077  17.335  0.00  0.00    +0.000 A 
ATOM     23  C   UNL     1       5.571   4.694  17.001  0.00  0.00    +0.000 A 
BRANCH  23  24
ATOM     24  O   UNL     1       6.654   3.930  16.657  0.00  0.00    +0.000 OA
ATOM     25  H   UNL     1       7.204   4.418  16.025  0.00  0.00    +0.000 HD
ENDBRANCH  23  24
BRANCH  18  26
ATOM     26  O   UNL     1       6.861   6.645  16.545  0.00  0.00    +0.000 OA
BRANCH  26  28
ATOM     27  C   UNL     1       8.028   6.664  18.659  0.00  0.00    +0.000 C 
ATOM     28  C   UNL     1       7.506   7.493  17.503  0.00  0.00    +0.000 C 
ENDBRANCH  26  28
ENDBRANCH  18  26
ENDBRANCH  16  20
ENDBRANCH   1  17
TORSDOF 6
ENDMDL
MODEL 7
REMARK VINA RESULT:      -7.6      6.209      9.356
REMARK  Name = 
REMARK  8 active torsions:
REMARK  status: ('A' for Active; 'I' for Inactive)
REMARK    1  A    between atoms: C_1  and  C_2
REMARK    2  A    between atoms: C_2  and  O_3
REMARK    3  A    between atoms: O_3  and  C_4
REMARK    4  A    between atoms: C_6  and  C_7
REMARK    5  A    between atoms: N_8  and  N_9
REMARK    6  A    between atoms: C_10  and  C_12
REMARK    7  A    between atoms: C_13  and  C_14
REMARK    8  A    between atoms: C_25  and  O_26
REMARK                            x       y       z     vdW  Elec       q    Type
REMARK                         _______ _______ _______ _____ _____    ______ ____
ROOT
ATOM      1  N   UNL     1       1.553   9.103  18.692  0.00  0.00    +0.000 N 
ATOM      2  C   UNL     1       0.605   9.662  19.540  0.00  0.00    +0.000 C 
ATOM      3  O   UNL     1       0.341   9.199  20.648  0.00  0.00    +0.000 OA
ATOM      4  H   UNL     1       1.830   9.571  17.839  0.00  0.00    +0.000 HD
ENDROOT
BRANCH   2   5
ATOM      5  C   UNL     1      -0.027  10.862  19.033  0.00  0.00    +0.000 A 
ATOM      6  C   UNL     1      -1.177  11.037  18.267  0.00  0.00    +0.000 A 
ATOM      7  C   UNL     1      -2.180  10.058  17.775  0.00  0.00    +0.000 C 
ATOM      8  N   UNL     1      -1.383  12.363  17.985  0.00  0.00    +0.000 NA
ATOM      9  C   UNL     1      -0.433  13.016  18.605  0.00  0.00    +0.000 A 
ATOM     10  C   UNL     1      -0.170  14.410  18.686  0.00  0.00    +0.000 A 
ATOM     11  C   UNL     1       0.859  14.858  19.431  0.00  0.00    +0.000 A 
ATOM     12  C   UNL     1       1.714  13.933  20.157  0.00  0.00    +0.000 A 
ATOM     13 CL   UNL     1       3.002  14.566  21.100  0.00  0.00    +0.000 Cl
ATOM     14  C   UNL     1       1.484  12.615  20.072  0.00  0.00    +0.000 A 
ATOM     15  N   UNL     1       0.413  12.152  19.299  0.00  0.00    +0.000 N 
ENDBRANCH   2   5
BRANCH   1  17
ATOM     16  C   UNL     1       2.334   7.047  18.154  0.00  0.00    +0.000 C 
ATOM     17  N   UNL     1       2.186   7.959  19.058  0.00  0.00    +0.000 NA
BRANCH  16  20
ATOM     18  C   UNL     1       5.070   4.658  19.146  0.00  0.00    +0.000 A 
ATOM     19  C   UNL     1       4.360   5.832  18.899  0.00  0.00    +0.000 A 
ATOM     20  C   UNL     1       3.026   5.784  18.486  0.00  0.00    +0.000 A 
ATOM     21  C   UNL     1       2.368   4.560  18.366  0.00  0.00    +0.000 A 
ATOM     22  C   UNL     1       3.049   3.383  18.691  0.00  0.00    +0.000 A 
ATOM     23  C   UNL     1       4.390   3.435  19.082  0.00  0.00    +0.000 A 
BRANCH  23  24
ATOM     24  O   UNL     1       5.059   2.280  19.382  0.00  0.00    +0.000 OA
ATOM     25  H   UNL     1       4.616   1.833  20.120  0.00  0.00    +0.000 HD
ENDBRANCH  23  24
BRANCH  18  26
ATOM     26  O   UNL     1       6.416   4.643  19.430  0.00  0.00    +0.000 OA
BRANCH  26  28
ATOM     27  C   UNL     1       7.793   6.412  18.533  0.00  0.00    +0.000 C 
ATOM     28  C   UNL     1       7.253   5.011  18.327  0.00  0.00    +0.000 C 
ENDBRANCH  26  28
ENDBRANCH  18  26
ENDBRANCH  16  20
ENDBRANCH   1  17
TORSDOF 6
ENDMDL
MODEL 8
REMARK VINA RESULT:      -7.5      6.341      9.580
REMARK  Name = 
REMARK  8 active torsions:
REMARK  status: ('A' for Active; 'I' for Inactive)
REMARK    1  A    between atoms: C_1  and  C_2
REMARK    2  A    between atoms: C_2  and  O_3
REMARK    3  A    between atoms: O_3  and  C_4
REMARK    4  A    between atoms: C_6  and  C_7
REMARK    5  A    between atoms: N_8  and  N_9
REMARK    6  A    between atoms: C_10  and  C_12
REMARK    7  A    between atoms: C_13  and  C_14
REMARK    8  A    between atoms: C_25  and  O_26
REMARK                            x       y       z     vdW  Elec       q    Type
REMARK                         _______ _______ _______ _____ _____    ______ ____
ROOT
ATOM      1  N   UNL     1       1.153   9.036  19.025  0.00  0.00    +0.000 N 
ATOM      2  C   UNL     1       1.065  10.392  18.733  0.00  0.00    +0.000 C 
ATOM      3  O   UNL     1       1.971  11.020  18.188  0.00  0.00    +0.000 OA
ATOM      4  H   UNL     1       0.351   8.523  19.365  0.00  0.00    +0.000 HD
ENDROOT
BRANCH   2   5
ATOM      5  C   UNL     1      -0.197  11.006  19.088  0.00  0.00    +0.000 A 
ATOM      6  C   UNL     1      -0.553  11.806  20.172  0.00  0.00    +0.000 A 
ATOM      7  C   UNL     1       0.260  12.359  21.284  0.00  0.00    +0.000 C 
ATOM      8  N   UNL     1      -1.883  12.137  20.122  0.00  0.00    +0.000 NA
ATOM      9  C   UNL     1      -2.343  11.619  19.012  0.00  0.00    +0.000 A 
ATOM     10  C   UNL     1      -3.643  11.668  18.438  0.00  0.00    +0.000 A 
ATOM     11  C   UNL     1      -3.873  11.085  17.244  0.00  0.00    +0.000 A 
ATOM     12  C   UNL     1      -2.808  10.400  16.530  0.00  0.00    +0.000 A 
ATOM     13 CL   UNL     1      -3.160   9.688  15.008  0.00  0.00    +0.000 Cl
ATOM     14  C   UNL     1      -1.584  10.333  17.074  0.00  0.00    +0.000 A 
ATOM     15  N   UNL     1      -1.347  10.941  18.312  0.00  0.00    +0.000 N 
ENDBRANCH   2   5
BRANCH   1  17
ATOM     16  C   UNL     1       2.257   7.076  18.763  0.00  0.00    +0.000 C 
ATOM     17  N   UNL     1       2.305   8.368  18.758  0.00  0.00    +0.000 NA
BRANCH  16  20
ATOM     18  C   UNL     1       4.835   4.336  18.923  0.00  0.00    +0.000 A 
ATOM     19  C   UNL     1       3.664   5.069  19.116  0.00  0.00    +0.000 A 
ATOM     20  C   UNL     1       3.474   6.292  18.468  0.00  0.00    +0.000 A 
ATOM     21  C   UNL     1       4.432   6.774  17.575  0.00  0.00    +0.000 A 
ATOM     22  C   UNL     1       5.571   6.006  17.314  0.00  0.00    +0.000 A 
ATOM     23  C   UNL     1       5.766   4.794  17.983  0.00  0.00    +0.000 A 
BRANCH  23  24
ATOM     24  O   UNL     1       6.891   4.054  17.739  0.00  0.00    +0.000 OA
ATOM     25  H   UNL     1       7.416   3.988  18.552  0.00  0.00    +0.000 HD
ENDBRANCH  23  24
BRANCH  18  26
ATOM     26  O   UNL     1       5.128   3.194  19.631  0.00  0.00    +0.000 OA
BRANCH  26  28
ATOM     27  C   UNL     1       3.687   1.588  18.547  0.00  0.00    +0.000 C 
ATOM     28  C   UNL     1       4.008   2.324  19.832  0.00  0.00    +0.000 C 
ENDBRANCH  26  28
ENDBRANCH  18  26
ENDBRANCH  16  20
ENDBRANCH   1  17
TORSDOF 6
ENDMDL
MODEL 9
REMARK VINA RESULT:      -7.5      3.694      9.390
REMARK  Name = 
REMARK  8 active torsions:
REMARK  status: ('A' for Active; 'I' for Inactive)
REMARK    1  A    between atoms: C_1  and  C_2
REMARK    2  A    between atoms: C_2  and  O_3
REMARK    3  A    between atoms: O_3  and  C_4
REMARK    4  A    between atoms: C_6  and  C_7
REMARK    5  A    between atoms: N_8  and  N_9
REMARK    6  A    between atoms: C_10  and  C_12
REMARK    7  A    between atoms: C_13  and  C_14
REMARK    8  A    between atoms: C_25  and  O_26
REMARK                            x       y       z     vdW  Elec       q    Type
REMARK                         _______ _______ _______ _____ _____    ______ ____
ROOT
ATOM      1  N   UNL     1       9.177  10.715  18.067  0.00  0.00    +0.000 N 
ATOM      2  C   UNL     1       9.356  11.644  19.085  0.00  0.00    +0.000 C 
ATOM      3  O   UNL     1       9.221  11.367  20.275  0.00  0.00    +0.000 OA
ATOM      4  H   UNL     1       9.408  10.941  17.108  0.00  0.00    +0.000 HD
ENDROOT
BRANCH   2   5
ATOM      5  C   UNL     1       9.752  12.963  18.637  0.00  0.00    +0.000 A 
ATOM      6  C   UNL     1      10.950  13.425  18.098  0.00  0.00    +0.000 A 
ATOM      7  C   UNL     1      12.197  12.706  17.734  0.00  0.00    +0.000 C 
ATOM      8  N   UNL     1      10.889  14.772  17.849  0.00  0.00    +0.000 NA
ATOM      9  C   UNL     1       9.673  15.142  18.158  0.00  0.00    +0.000 A 
ATOM     10  C   UNL     1       9.044  16.415  18.075  0.00  0.00    +0.000 A 
ATOM     11  C   UNL     1       7.747  16.547  18.416  0.00  0.00    +0.000 A 
ATOM     12  C   UNL     1       6.974  15.403  18.873  0.00  0.00    +0.000 A 
ATOM     13 CL   UNL     1       5.322  15.633  19.281  0.00  0.00    +0.000 Cl
ATOM     14  C   UNL     1       7.565  14.203  18.972  0.00  0.00    +0.000 A 
ATOM     15  N   UNL     1       8.911  14.068  18.615  0.00  0.00    +0.000 N 
ENDBRANCH   2   5
BRANCH   1  17
ATOM     16  C   UNL     1       7.884   8.912  17.614  0.00  0.00    +0.000 C 
ATOM     17  N   UNL     1       8.778   9.454  18.375  0.00  0.00    +0.000 NA
BRANCH  16  20
ATOM     18  C   UNL     1       5.743   5.815  17.548  0.00  0.00    +0.000 A 
ATOM     19  C   UNL     1       6.259   7.077  17.256  0.00  0.00    +0.000 A 
ATOM     20  C   UNL     1       7.417   7.537  17.889  0.00  0.00    +0.000 A 
ATOM     21  C   UNL     1       8.104   6.718  18.786  0.00  0.00    +0.000 A 
ATOM     22  C   UNL     1       7.638   5.421  19.022  0.00  0.00    +0.000 A 
ATOM     23  C   UNL     1       6.467   4.974  18.402  0.00  0.00    +0.000 A 
BRANCH  23  24
ATOM     24  O   UNL     1       6.004   3.711  18.650  0.00  0.00    +0.000 OA
ATOM     25  H   UNL     1       5.643   3.334  17.832  0.00  0.00    +0.000 HD
ENDBRANCH  23  24
BRANCH  18  26
ATOM     26  O   UNL     1       4.543   5.364  17.051  0.00  0.00    +0.000 OA
BRANCH  26  28
ATOM     27  C   UNL     1       2.355   4.695  17.823  0.00  0.00    +0.000 C 
ATOM     28  C   UNL     1       3.399   5.793  17.801  0.00  0.00    +0.000 C 
ENDBRANCH  26  28
ENDBRANCH  18  26
ENDBRANCH  16  20
ENDBRANCH   1  17
TORSDOF 6
ENDMDL
