MODEL 1
REMARK VINA RESULT:      -9.0      0.000      0.000
REMARK  Name = 
REMARK  3 active torsions:
REMARK  status: ('A' for Active; 'I' for Inactive)
REMARK    1  A    between atoms: C_1  and  O_2
REMARK    2  A    between atoms: O_2  and  C_3
REMARK    3  A    between atoms: C_12  and  C_13
REMARK                            x       y       z     vdW  Elec       q    Type
REMARK                         _______ _______ _______ _____ _____    ______ ____
ROOT
ATOM      1  C   UNL     1       7.013   7.056  17.928  0.00  0.00    +0.000 A 
ATOM      2  C   UNL     1       8.064   6.552  18.641  0.00  0.00    +0.000 A 
ATOM      3  C   UNL     1       7.741   5.503  19.460  0.00  0.00    +0.000 A 
ATOM      4  N   UNL     1       6.499   4.983  19.561  0.00  0.00    +0.000 NA
ATOM      5  C   UNL     1       5.531   5.537  18.813  0.00  0.00    +0.000 A 
ATOM      6  N   UNL     1       4.242   5.075  18.921  0.00  0.00    +0.000 N 
ATOM      7  C   UNL     1       3.965   3.752  19.439  0.00  0.00    +0.000 C 
ATOM      8  C   UNL     1       2.969   3.174  18.439  0.00  0.00    +0.000 C 
ATOM      9  C   UNL     1       2.201   4.387  17.935  0.00  0.00    +0.000 C 
ATOM     10  C   UNL     1       3.230   5.533  17.969  0.00  0.00    +0.000 C 
ATOM     11  N   UNL     1       5.768   6.560  17.981  0.00  0.00    +0.000 NA
ENDROOT
BRANCH  10  12
ATOM     12  C   UNL     1       2.613   6.842  18.431  0.00  0.00    +0.000 A 
ATOM     13  C   UNL     1       2.386   7.895  17.530  0.00  0.00    +0.000 A 
ATOM     14  C   UNL     1       1.787   9.081  17.956  0.00  0.00    +0.000 A 
ATOM     15  C   UNL     1       1.385   9.235  19.282  0.00  0.00    +0.000 A 
ATOM     16  C   UNL     1       1.544   8.168  20.176  0.00  0.00    +0.000 A 
ATOM     17  C   UNL     1       2.199   7.002  19.762  0.00  0.00    +0.000 A 
ATOM     18  O   UNL     1       1.082   8.148  21.472  0.00  0.00    +0.000 OA
ATOM     19  C   UNL     1      -0.181   8.803  21.619  0.00  0.00    +0.000 C 
ATOM     20  C   UNL     1       0.001  10.294  21.849  0.00  0.00    +0.000 C 
ATOM     21  C   UNL     1       1.053  10.878  20.922  0.00  0.00    +0.000 C 
ATOM     22  O   UNL     1       0.837  10.457  19.579  0.00  0.00    +0.000 OA
ENDBRANCH  10  12
BRANCH   1  24
ATOM     23  C   UNL     1       8.044   9.135  17.781  0.00  0.00    +0.000 C 
ATOM     24  O   UNL     1       7.272   8.140  17.111  0.00  0.00    +0.000 OA
ENDBRANCH   1  24
TORSDOF 2
ENDMDL
MODEL 2
REMARK VINA RESULT:      -8.7      0.957      1.872
REMARK  Name = 
REMARK  3 active torsions:
REMARK  status: ('A' for Active; 'I' for Inactive)
REMARK    1  A    between atoms: C_1  and  O_2
REMARK    2  A    between atoms: O_2  and  C_3
REMARK    3  A    between atoms: C_12  and  C_13
REMARK                            x       y       z     vdW  Elec       q    Type
REMARK                         _______ _______ _______ _____ _____    ______ ____
ROOT
ATOM      1  C   UNL     1       6.956   7.013  17.915  0.00  0.00    +0.000 A 
ATOM      2  C   UNL     1       8.046   6.478  18.542  0.00  0.00    +0.000 A 
ATOM      3  C   UNL     1       7.787   5.334  19.249  0.00  0.00    +0.000 A 
ATOM      4  N   UNL     1       6.570   4.757  19.325  0.00  0.00    +0.000 NA
ATOM      5  C   UNL     1       5.559   5.349  18.667  0.00  0.00    +0.000 A 
ATOM      6  N   UNL     1       4.293   4.826  18.757  0.00  0.00    +0.000 N 
ATOM      7  C   UNL     1       4.081   3.444  19.134  0.00  0.00    +0.000 C 
ATOM      8  C   UNL     1       3.077   2.938  18.103  0.00  0.00    +0.000 C 
ATOM      9  C   UNL     1       2.250   4.167  17.754  0.00  0.00    +0.000 C 
ATOM     10  C   UNL     1       3.236   5.343  17.887  0.00  0.00    +0.000 C 
ATOM     11  N   UNL     1       5.733   6.465  17.946  0.00  0.00    +0.000 NA
ENDROOT
BRANCH  10  12
ATOM     12  C   UNL     1       2.585   6.568  18.505  0.00  0.00    +0.000 A 
ATOM     13  C   UNL     1       2.216   6.588  19.860  0.00  0.00    +0.000 A 
ATOM     14  C   UNL     1       1.651   7.730  20.429  0.00  0.00    +0.000 A 
ATOM     15  C   UNL     1       1.458   8.880  19.665  0.00  0.00    +0.000 A 
ATOM     16  C   UNL     1       1.883   8.897  18.330  0.00  0.00    +0.000 A 
ATOM     17  C   UNL     1       2.396   7.732  17.745  0.00  0.00    +0.000 A 
ATOM     18  O   UNL     1       1.863  10.000  17.508  0.00  0.00    +0.000 OA
ATOM     19  C   UNL     1       2.181  11.211  18.199  0.00  0.00    +0.000 C 
ATOM     20  C   UNL     1       0.940  11.822  18.828  0.00  0.00    +0.000 C 
ATOM     21  C   UNL     1       0.079  10.770  19.504  0.00  0.00    +0.000 C 
ATOM     22  O   UNL     1       0.868   9.923  20.333  0.00  0.00    +0.000 OA
ENDBRANCH  10  12
BRANCH   1  24
ATOM     23  C   UNL     1       8.145   9.010  17.824  0.00  0.00    +0.000 C 
ATOM     24  O   UNL     1       7.150   8.188  17.215  0.00  0.00    +0.000 OA
ENDBRANCH   1  24
TORSDOF 2
ENDMDL
MODEL 3
REMARK VINA RESULT:      -7.5      1.457      2.268
REMARK  Name = 
REMARK  3 active torsions:
REMARK  status: ('A' for Active; 'I' for Inactive)
REMARK    1  A    between atoms: C_1  and  O_2
REMARK    2  A    between atoms: O_2  and  C_3
REMARK    3  A    between atoms: C_12  and  C_13
REMARK                            x       y       z     vdW  Elec       q    Type
REMARK                         _______ _______ _______ _____ _____    ______ ____
ROOT
ATOM      1  C   UNL     1       6.177   6.173  17.222  0.00  0.00    +0.000 A 
ATOM      2  C   UNL     1       7.402   5.735  17.640  0.00  0.00    +0.000 A 
ATOM      3  C   UNL     1       7.360   4.827  18.664  0.00  0.00    +0.000 A 
ATOM      4  N   UNL     1       6.217   4.376  19.221  0.00  0.00    +0.000 NA
ATOM      5  C   UNL     1       5.059   4.855  18.738  0.00  0.00    +0.000 A 
ATOM      6  N   UNL     1       3.872   4.464  19.308  0.00  0.00    +0.000 N 
ATOM      7  C   UNL     1       3.782   3.239  20.077  0.00  0.00    +0.000 C 
ATOM      8  C   UNL     1       2.527   2.564  19.533  0.00  0.00    +0.000 C 
ATOM      9  C   UNL     1       1.630   3.721  19.118  0.00  0.00    +0.000 C 
ATOM     10  C   UNL     1       2.609   4.819  18.662  0.00  0.00    +0.000 C 
ATOM     11  N   UNL     1       5.015   5.738  17.732  0.00  0.00    +0.000 NA
ENDROOT
BRANCH  10  12
ATOM     12  C   UNL     1       2.158   6.204  19.094  0.00  0.00    +0.000 A 
ATOM     13  C   UNL     1       1.860   6.483  20.437  0.00  0.00    +0.000 A 
ATOM     14  C   UNL     1       1.480   7.766  20.831  0.00  0.00    +0.000 A 
ATOM     15  C   UNL     1       1.407   8.801  19.900  0.00  0.00    +0.000 A 
ATOM     16  C   UNL     1       1.767   8.553  18.569  0.00  0.00    +0.000 A 
ATOM     17  C   UNL     1       2.091   7.252  18.163  0.00  0.00    +0.000 A 
ATOM     18  O   UNL     1       1.855   9.508  17.582  0.00  0.00    +0.000 OA
ATOM     19  C   UNL     1       2.365  10.755  18.064  0.00  0.00    +0.000 C 
ATOM     20  C   UNL     1       1.248  11.623  18.620  0.00  0.00    +0.000 C 
ATOM     21  C   UNL     1       0.287  10.818  19.476  0.00  0.00    +0.000 C 
ATOM     22  O   UNL     1       0.994  10.006  20.408  0.00  0.00    +0.000 OA
ENDBRANCH  10  12
BRANCH   1  24
ATOM     23  C   UNL     1       5.172   6.818  15.227  0.00  0.00    +0.000 C 
ATOM     24  O   UNL     1       6.158   7.118  16.214  0.00  0.00    +0.000 OA
ENDBRANCH   1  24
TORSDOF 2
ENDMDL
MODEL 4
REMARK VINA RESULT:      -7.5      1.117      1.271
REMARK  Name = 
REMARK  3 active torsions:
REMARK  status: ('A' for Active; 'I' for Inactive)
REMARK    1  A    between atoms: C_1  and  O_2
REMARK    2  A    between atoms: O_2  and  C_3
REMARK    3  A    between atoms: C_12  and  C_13
REMARK                            x       y       z     vdW  Elec       q    Type
REMARK                         _______ _______ _______ _____ _____    ______ ____
ROOT
ATOM      1  C   UNL     1       6.275   6.261  17.460  0.00  0.00    +0.000 A 
ATOM      2  C   UNL     1       7.470   5.876  18.001  0.00  0.00    +0.000 A 
ATOM      3  C   UNL     1       7.359   5.129  19.143  0.00  0.00    +0.000 A 
ATOM      4  N   UNL     1       6.181   4.778  19.700  0.00  0.00    +0.000 NA
ATOM      5  C   UNL     1       5.058   5.193  19.092  0.00  0.00    +0.000 A 
ATOM      6  N   UNL     1       3.837   4.904  19.650  0.00  0.00    +0.000 N 
ATOM      7  C   UNL     1       3.685   3.807  20.583  0.00  0.00    +0.000 C 
ATOM      8  C   UNL     1       2.447   3.073  20.079  0.00  0.00    +0.000 C 
ATOM      9  C   UNL     1       1.594   4.167  19.453  0.00  0.00    +0.000 C 
ATOM     10  C   UNL     1       2.615   5.175  18.893  0.00  0.00    +0.000 C 
ATOM     11  N   UNL     1       5.082   5.920  17.966  0.00  0.00    +0.000 NA
ENDROOT
BRANCH  10  12
ATOM     12  C   UNL     1       2.169   6.613  19.093  0.00  0.00    +0.000 A 
ATOM     13  C   UNL     1       2.109   7.511  18.015  0.00  0.00    +0.000 A 
ATOM     14  C   UNL     1       1.664   8.820  18.201  0.00  0.00    +0.000 A 
ATOM     15  C   UNL     1       1.253   9.256  19.460  0.00  0.00    +0.000 A 
ATOM     16  C   UNL     1       1.244   8.352  20.531  0.00  0.00    +0.000 A 
ATOM     17  C   UNL     1       1.746   7.056  20.355  0.00  0.00    +0.000 A 
ATOM     18  O   UNL     1       0.751   8.619  21.787  0.00  0.00    +0.000 OA
ATOM     19  C   UNL     1      -0.416   9.447  21.758  0.00  0.00    +0.000 C 
ATOM     20  C   UNL     1      -0.041  10.919  21.737  0.00  0.00    +0.000 C 
ATOM     21  C   UNL     1       1.103  11.191  20.776  0.00  0.00    +0.000 C 
ATOM     22  O   UNL     1       0.867  10.571  19.517  0.00  0.00    +0.000 OA
ENDBRANCH  10  12
BRANCH   1  24
ATOM     23  C   UNL     1       5.208   6.812  15.468  0.00  0.00    +0.000 C 
ATOM     24  O   UNL     1       6.325   7.048  16.325  0.00  0.00    +0.000 OA
ENDBRANCH   1  24
TORSDOF 2
ENDMDL
MODEL 5
REMARK VINA RESULT:      -7.2      2.254      4.270
REMARK  Name = 
REMARK  3 active torsions:
REMARK  status: ('A' for Active; 'I' for Inactive)
REMARK    1  A    between atoms: C_1  and  O_2
REMARK    2  A    between atoms: O_2  and  C_3
REMARK    3  A    between atoms: C_12  and  C_13
REMARK                            x       y       z     vdW  Elec       q    Type
REMARK                         _______ _______ _______ _____ _____    ______ ____
ROOT
ATOM      1  C   UNL     1       1.592   3.056  19.738  0.00  0.00    +0.000 A 
ATOM      2  C   UNL     1       1.162   1.988  19.003  0.00  0.00    +0.000 A 
ATOM      3  C   UNL     1       1.622   1.966  17.713  0.00  0.00    +0.000 A 
ATOM      4  N   UNL     1       2.444   2.902  17.193  0.00  0.00    +0.000 NA
ATOM      5  C   UNL     1       2.823   3.911  17.995  0.00  0.00    +0.000 A 
ATOM      6  N   UNL     1       3.617   4.914  17.495  0.00  0.00    +0.000 N 
ATOM      7  C   UNL     1       4.426   4.705  16.312  0.00  0.00    +0.000 C 
ATOM      8  C   UNL     1       5.791   5.259  16.705  0.00  0.00    +0.000 C 
ATOM      9  C   UNL     1       5.471   6.376  17.687  0.00  0.00    +0.000 C 
ATOM     10  C   UNL     1       4.196   5.899  18.408  0.00  0.00    +0.000 C 
ATOM     11  N   UNL     1       2.423   3.998  19.271  0.00  0.00    +0.000 NA
ENDROOT
BRANCH  10  12
ATOM     12  C   UNL     1       3.220   7.036  18.658  0.00  0.00    +0.000 A 
ATOM     13  C   UNL     1       2.796   7.871  17.611  0.00  0.00    +0.000 A 
ATOM     14  C   UNL     1       1.873   8.891  17.842  0.00  0.00    +0.000 A 
ATOM     15  C   UNL     1       1.338   9.087  19.115  0.00  0.00    +0.000 A 
ATOM     16  C   UNL     1       1.700   8.219  20.153  0.00  0.00    +0.000 A 
ATOM     17  C   UNL     1       2.671   7.234  19.934  0.00  0.00    +0.000 A 
ATOM     18  O   UNL     1       1.157   8.228  21.417  0.00  0.00    +0.000 OA
ATOM     19  C   UNL     1      -0.242   8.527  21.416  0.00  0.00    +0.000 C 
ATOM     20  C   UNL     1      -0.480  10.027  21.447  0.00  0.00    +0.000 C 
ATOM     21  C   UNL     1       0.451  10.761  20.497  0.00  0.00    +0.000 C 
ATOM     22  O   UNL     1       0.464  10.139  19.217  0.00  0.00    +0.000 OA
ENDBRANCH  10  12
BRANCH   1  24
ATOM     23  C   UNL     1       2.200   3.311  21.968  0.00  0.00    +0.000 C 
ATOM     24  O   UNL     1       1.130   3.150  21.037  0.00  0.00    +0.000 OA
ENDBRANCH   1  24
TORSDOF 2
ENDMDL
MODEL 6
REMARK VINA RESULT:      -6.8      2.312      4.504
REMARK  Name = 
REMARK  3 active torsions:
REMARK  status: ('A' for Active; 'I' for Inactive)
REMARK    1  A    between atoms: C_1  and  O_2
REMARK    2  A    between atoms: O_2  and  C_3
REMARK    3  A    between atoms: C_12  and  C_13
REMARK                            x       y       z     vdW  Elec       q    Type
REMARK                         _______ _______ _______ _____ _____    ______ ____
ROOT
ATOM      1  C   UNL     1       2.905   2.878  20.001  0.00  0.00    +0.000 A 
ATOM      2  C   UNL     1       2.571   1.707  19.381  0.00  0.00    +0.000 A 
ATOM      3  C   UNL     1       2.739   1.718  18.022  0.00  0.00    +0.000 A 
ATOM      4  N   UNL     1       3.207   2.779  17.332  0.00  0.00    +0.000 NA
ATOM      5  C   UNL     1       3.520   3.885  18.028  0.00  0.00    +0.000 A 
ATOM      6  N   UNL     1       3.951   5.006  17.362  0.00  0.00    +0.000 N 
ATOM      7  C   UNL     1       4.515   4.913  16.031  0.00  0.00    +0.000 C 
ATOM      8  C   UNL     1       5.778   5.763  16.114  0.00  0.00    +0.000 C 
ATOM      9  C   UNL     1       5.439   6.836  17.139  0.00  0.00    +0.000 C 
ATOM     10  C   UNL     1       4.483   6.136  18.124  0.00  0.00    +0.000 C 
ATOM     11  N   UNL     1       3.392   3.950  19.360  0.00  0.00    +0.000 NA
ENDROOT
BRANCH  10  12
ATOM     12  C   UNL     1       3.359   7.052  18.577  0.00  0.00    +0.000 A 
ATOM     13  C   UNL     1       2.661   6.807  19.771  0.00  0.00    +0.000 A 
ATOM     14  C   UNL     1       1.654   7.673  20.199  0.00  0.00    +0.000 A 
ATOM     15  C   UNL     1       1.334   8.809  19.457  0.00  0.00    +0.000 A 
ATOM     16  C   UNL     1       2.068   9.102  18.299  0.00  0.00    +0.000 A 
ATOM     17  C   UNL     1       3.037   8.202  17.840  0.00  0.00    +0.000 A 
ATOM     18  O   UNL     1       1.935  10.247  17.548  0.00  0.00    +0.000 OA
ATOM     19  C   UNL     1       1.686  11.407  18.347  0.00  0.00    +0.000 C 
ATOM     20  C   UNL     1       0.201  11.573  18.620  0.00  0.00    +0.000 C 
ATOM     21  C   UNL     1      -0.453  10.251  18.982  0.00  0.00    +0.000 C 
ATOM     22  O   UNL     1       0.308   9.561  19.968  0.00  0.00    +0.000 OA
ENDBRANCH  10  12
BRANCH   1  24
ATOM     23  C   UNL     1       1.412   2.516  21.747  0.00  0.00    +0.000 C 
ATOM     24  O   UNL     1       2.722   2.938  21.369  0.00  0.00    +0.000 OA
ENDBRANCH   1  24
TORSDOF 2
ENDMDL
MODEL 7
REMARK VINA RESULT:      -6.7      4.306      8.081
REMARK  Name = 
REMARK  3 active torsions:
REMARK  status: ('A' for Active; 'I' for Inactive)
REMARK    1  A    between atoms: C_1  and  O_2
REMARK    2  A    between atoms: O_2  and  C_3
REMARK    3  A    between atoms: C_12  and  C_13
REMARK                            x       y       z     vdW  Elec       q    Type
REMARK                         _______ _______ _______ _____ _____    ______ ____
ROOT
ATOM      1  C   UNL     1      -2.673  10.273  17.166  0.00  0.00    +0.000 A 
ATOM      2  C   UNL     1      -3.911  10.749  17.492  0.00  0.00    +0.000 A 
ATOM      3  C   UNL     1      -3.921  11.621  18.548  0.00  0.00    +0.000 A 
ATOM      4  N   UNL     1      -2.814  12.004  19.217  0.00  0.00    +0.000 NA
ATOM      5  C   UNL     1      -1.638  11.492  18.817  0.00  0.00    +0.000 A 
ATOM      6  N   UNL     1      -0.491  11.813  19.500  0.00  0.00    +0.000 N 
ATOM      7  C   UNL     1      -0.418  13.007  20.317  0.00  0.00    +0.000 C 
ATOM      8  C   UNL     1       0.905  13.646  19.907  0.00  0.00    +0.000 C 
ATOM      9  C   UNL     1       1.787  12.464  19.529  0.00  0.00    +0.000 C 
ATOM     10  C   UNL     1       0.808  11.425  18.951  0.00  0.00    +0.000 C 
ATOM     11  N   UNL     1      -1.543  10.640  17.787  0.00  0.00    +0.000 NA
ENDROOT
BRANCH  10  12
ATOM     12  C   UNL     1       1.164  10.009  19.370  0.00  0.00    +0.000 A 
ATOM     13  C   UNL     1       0.769   9.500  20.618  0.00  0.00    +0.000 A 
ATOM     14  C   UNL     1       1.070   8.187  20.981  0.00  0.00    +0.000 A 
ATOM     15  C   UNL     1       1.753   7.348  20.102  0.00  0.00    +0.000 A 
ATOM     16  C   UNL     1       2.095   7.821  18.828  0.00  0.00    +0.000 A 
ATOM     17  C   UNL     1       1.845   9.156  18.488  0.00  0.00    +0.000 A 
ATOM     18  O   UNL     1       2.659   7.062  17.829  0.00  0.00    +0.000 OA
ATOM     19  C   UNL     1       2.156   5.723  17.800  0.00  0.00    +0.000 C 
ATOM     20  C   UNL     1       2.940   4.825  18.742  0.00  0.00    +0.000 C 
ATOM     21  C   UNL     1       3.204   5.506  20.074  0.00  0.00    +0.000 C 
ATOM     22  O   UNL     1       2.013   6.093  20.589  0.00  0.00    +0.000 OA
ENDBRANCH  10  12
BRANCH   1  24
ATOM     23  C   UNL     1      -3.042   9.930  14.895  0.00  0.00    +0.000 C 
ATOM     24  O   UNL     1      -2.605   9.361  16.129  0.00  0.00    +0.000 OA
ENDBRANCH   1  24
TORSDOF 2
ENDMDL
MODEL 8
REMARK VINA RESULT:      -6.6      5.947      8.337
REMARK  Name = 
REMARK  3 active torsions:
REMARK  status: ('A' for Active; 'I' for Inactive)
REMARK    1  A    between atoms: C_1  and  O_2
REMARK    2  A    between atoms: O_2  and  C_3
REMARK    3  A    between atoms: C_12  and  C_13
REMARK                            x       y       z     vdW  Elec       q    Type
REMARK                         _______ _______ _______ _____ _____    ______ ____
ROOT
ATOM      1  C   UNL     1      -0.880  10.524  22.819  0.00  0.00    +0.000 A 
ATOM      2  C   UNL     1      -0.055   9.505  23.205  0.00  0.00    +0.000 A 
ATOM      3  C   UNL     1       0.908   9.179  22.289  0.00  0.00    +0.000 A 
ATOM      4  N   UNL     1       1.059   9.804  21.103  0.00  0.00    +0.000 NA
ATOM      5  C   UNL     1       0.208  10.801  20.813  0.00  0.00    +0.000 A 
ATOM      6  N   UNL     1       0.291  11.433  19.596  0.00  0.00    +0.000 N 
ATOM      7  C   UNL     1       1.512  11.393  18.817  0.00  0.00    +0.000 C 
ATOM      8  C   UNL     1       1.720  12.845  18.399  0.00  0.00    +0.000 C 
ATOM      9  C   UNL     1       0.310  13.406  18.285  0.00  0.00    +0.000 C 
ATOM     10  C   UNL     1      -0.493  12.644  19.357  0.00  0.00    +0.000 C 
ATOM     11  N   UNL     1      -0.755  11.187  21.660  0.00  0.00    +0.000 NA
ENDROOT
BRANCH  10  12
ATOM     12  C   UNL     1      -1.892  12.291  18.881  0.00  0.00    +0.000 A 
ATOM     13  C   UNL     1      -2.092  11.535  17.714  0.00  0.00    +0.000 A 
ATOM     14  C   UNL     1      -3.378  11.186  17.304  0.00  0.00    +0.000 A 
ATOM     15  C   UNL     1      -4.490  11.565  18.055  0.00  0.00    +0.000 A 
ATOM     16  C   UNL     1      -4.301  12.261  19.256  0.00  0.00    +0.000 A 
ATOM     17  C   UNL     1      -3.014  12.663  19.636  0.00  0.00    +0.000 A 
ATOM     18  O   UNL     1      -5.298  12.587  20.146  0.00  0.00    +0.000 OA
ATOM     19  C   UNL     1      -6.297  11.568  20.254  0.00  0.00    +0.000 C 
ATOM     20  C   UNL     1      -7.371  11.741  19.193  0.00  0.00    +0.000 C 
ATOM     21  C   UNL     1      -6.770  12.070  17.838  0.00  0.00    +0.000 C 
ATOM     22  O   UNL     1      -5.698  11.185  17.529  0.00  0.00    +0.000 OA
ENDBRANCH  10  12
BRANCH   1  24
ATOM     23  C   UNL     1      -2.583  12.047  23.255  0.00  0.00    +0.000 C 
ATOM     24  O   UNL     1      -1.895  10.874  23.689  0.00  0.00    +0.000 OA
ENDBRANCH   1  24
TORSDOF 2
ENDMDL
MODEL 9
REMARK VINA RESULT:      -6.4      7.222      9.943
REMARK  Name = 
REMARK  3 active torsions:
REMARK  status: ('A' for Active; 'I' for Inactive)
REMARK    1  A    between atoms: C_1  and  O_2
REMARK    2  A    between atoms: O_2  and  C_3
REMARK    3  A    between atoms: C_12  and  C_13
REMARK                            x       y       z     vdW  Elec       q    Type
REMARK                         _______ _______ _______ _____ _____    ______ ____
ROOT
ATOM      1  C   UNL     1      -6.042  11.861  19.591  0.00  0.00    +0.000 A 
ATOM      2  C   UNL     1      -7.025  12.556  18.943  0.00  0.00    +0.000 A 
ATOM      3  C   UNL     1      -6.773  12.789  17.618  0.00  0.00    +0.000 A 
ATOM      4  N   UNL     1      -5.662  12.367  16.978  0.00  0.00    +0.000 NA
ATOM      5  C   UNL     1      -4.756  11.682  17.694  0.00  0.00    +0.000 A 
ATOM      6  N   UNL     1      -3.586  11.276  17.099  0.00  0.00    +0.000 N 
ATOM      7  C   UNL     1      -3.488  11.147  15.660  0.00  0.00    +0.000 C 
ATOM      8  C   UNL     1      -2.825   9.788  15.464  0.00  0.00    +0.000 C 
ATOM      9  C   UNL     1      -1.937   9.626  16.689  0.00  0.00    +0.000 C 
ATOM     10  C   UNL     1      -2.694  10.361  17.811  0.00  0.00    +0.000 C 
ATOM     11  N   UNL     1      -4.933  11.405  18.993  0.00  0.00    +0.000 NA
ENDROOT
BRANCH  10  12
ATOM     12  C   UNL     1      -1.756  11.131  18.725  0.00  0.00    +0.000 A 
ATOM     13  C   UNL     1      -1.152  10.513  19.832  0.00  0.00    +0.000 A 
ATOM     14  C   UNL     1      -0.265  11.217  20.645  0.00  0.00    +0.000 A 
ATOM     15  C   UNL     1       0.054  12.545  20.364  0.00  0.00    +0.000 A 
ATOM     16  C   UNL     1      -0.489  13.154  19.224  0.00  0.00    +0.000 A 
ATOM     17  C   UNL     1      -1.425  12.465  18.442  0.00  0.00    +0.000 A 
ATOM     18  O   UNL     1      -0.163  14.411  18.769  0.00  0.00    +0.000 OA
ATOM     19  C   UNL     1       1.221  14.723  18.950  0.00  0.00    +0.000 C 
ATOM     20  C   UNL     1       1.473  15.304  20.332  0.00  0.00    +0.000 C 
ATOM     21  C   UNL     1       0.723  14.536  21.407  0.00  0.00    +0.000 C 
ATOM     22  O   UNL     1       0.914  13.133  21.255  0.00  0.00    +0.000 OA
ENDBRANCH  10  12
BRANCH   1  24
ATOM     23  C   UNL     1      -5.569  12.608  21.742  0.00  0.00    +0.000 C 
ATOM     24  O   UNL     1      -6.226  11.627  20.940  0.00  0.00    +0.000 OA
ENDBRANCH   1  24
TORSDOF 2
ENDMDL
