MODEL 1
REMARK VINA RESULT:      -7.7      0.000      0.000
REMARK  Name = 
REMARK  0 active torsions:
REMARK  status: ('A' for Active; 'I' for Inactive)
REMARK                            x       y       z     vdW  Elec       q    Type
REMARK                         _______ _______ _______ _____ _____    ______ ____
ROOT
ATOM      1  C   UNL     1       3.416   3.212  17.280  0.00  0.00    +0.000 A 
ATOM      2  C   UNL     1       4.512   4.089  17.238  0.00  0.00    +0.000 A 
ATOM      3  C   UNL     1       4.352   5.506  17.417  0.00  0.00    +0.000 A 
ATOM      4  C   UNL     1       3.107   6.063  17.775  0.00  0.00    +0.000 A 
ATOM      5  C   UNL     1       2.180   5.029  18.171  0.00  0.00    +0.000 A 
ATOM      6  C   UNL     1       2.168   3.740  17.577  0.00  0.00    +0.000 A 
ATOM      7  O   UNL     1       2.607   4.503  19.567  0.00  0.00    +0.000 OA
ATOM      8  C   UNL     1       1.653   4.879  20.536  0.00  0.00    +0.000 C 
ATOM      9  C   UNL     1       1.933   6.319  20.719  0.00  0.00    +0.000 C 
ATOM     10  O   UNL     1       1.020   6.988  21.528  0.00  0.00    +0.000 OA
ATOM     11  C   UNL     1       1.047   8.287  20.988  0.00  0.00    +0.000 C 
ATOM     12  C   UNL     1      -0.076   9.075  21.507  0.00  0.00    +0.000 C 
ATOM     13  O   UNL     1       0.523  10.362  21.505  0.00  0.00    +0.000 OA
ATOM     14  C   UNL     1      -0.312  11.144  20.804  0.00  0.00    +0.000 A 
ATOM     15  C   UNL     1      -1.286  11.752  21.649  0.00  0.00    +0.000 A 
ATOM     16  C   UNL     1      -2.300  12.492  21.114  0.00  0.00    +0.000 A 
ATOM     17  C   UNL     1      -2.259  12.705  19.744  0.00  0.00    +0.000 A 
ATOM     18  C   UNL     1      -1.293  12.069  18.928  0.00  0.00    +0.000 A 
ATOM     19  C   UNL     1      -0.289  11.204  19.380  0.00  0.00    +0.000 A 
ATOM     20  O   UNL     1       0.269  10.226  18.530  0.00  0.00    +0.000 OA
ATOM     21  C   UNL     1       1.736   9.964  18.323  0.00  0.00    +0.000 C 
ATOM     22  C   UNL     1       2.265   8.489  17.534  0.00  0.00    +0.000 C 
ATOM     23  O   UNL     1       3.036   7.409  18.258  0.00  0.00    +0.000 OA
ENDROOT
TORSDOF 0
ENDMDL
MODEL 2
REMARK VINA RESULT:      -7.1      1.541      8.060
REMARK  Name = 
REMARK  0 active torsions:
REMARK  status: ('A' for Active; 'I' for Inactive)
REMARK                            x       y       z     vdW  Elec       q    Type
REMARK                         _______ _______ _______ _____ _____    ______ ____
ROOT
ATOM      1  C   UNL     1      -3.403  14.080  22.385  0.00  0.00    +0.000 A 
ATOM      2  C   UNL     1      -2.231  14.318  23.121  0.00  0.00    +0.000 A 
ATOM      3  C   UNL     1      -1.163  13.358  23.171  0.00  0.00    +0.000 A 
ATOM      4  C   UNL     1      -1.188  12.191  22.379  0.00  0.00    +0.000 A 
ATOM      5  C   UNL     1      -2.238  12.269  21.391  0.00  0.00    +0.000 A 
ATOM      6  C   UNL     1      -3.479  12.913  21.637  0.00  0.00    +0.000 A 
ATOM      7  O   UNL     1      -1.803  13.280  20.298  0.00  0.00    +0.000 OA
ATOM      8  C   UNL     1      -1.550  12.602  19.087  0.00  0.00    +0.000 C 
ATOM      9  C   UNL     1      -0.251  11.950  19.351  0.00  0.00    +0.000 C 
ATOM     10  O   UNL     1       0.171  11.076  18.355  0.00  0.00    +0.000 OA
ATOM     11  C   UNL     1       0.920  10.136  19.087  0.00  0.00    +0.000 C 
ATOM     12  C   UNL     1       1.199   8.956  18.260  0.00  0.00    +0.000 C 
ATOM     13  O   UNL     1       2.456   8.585  18.805  0.00  0.00    +0.000 OA
ATOM     14  C   UNL     1       2.326   7.297  19.159  0.00  0.00    +0.000 A 
ATOM     15  C   UNL     1       2.688   6.426  18.090  0.00  0.00    +0.000 A 
ATOM     16  C   UNL     1       2.514   5.077  18.208  0.00  0.00    +0.000 A 
ATOM     17  C   UNL     1       2.082   4.611  19.442  0.00  0.00    +0.000 A 
ATOM     18  C   UNL     1       1.708   5.502  20.475  0.00  0.00    +0.000 A 
ATOM     19  C   UNL     1       1.746   6.900  20.399  0.00  0.00    +0.000 A 
ATOM     20  O   UNL     1       0.902   7.698  21.199  0.00  0.00    +0.000 OA
ATOM     21  C   UNL     1       1.324   8.881  22.028  0.00  0.00    +0.000 C 
ATOM     22  C   UNL     1       0.119   9.987  22.663  0.00  0.00    +0.000 C 
ATOM     23  O   UNL     1       0.005  11.421  22.199  0.00  0.00    +0.000 OA
ENDROOT
TORSDOF 0
ENDMDL
MODEL 3
REMARK VINA RESULT:      -6.6      2.025      8.331
REMARK  Name = 
REMARK  0 active torsions:
REMARK  status: ('A' for Active; 'I' for Inactive)
REMARK                            x       y       z     vdW  Elec       q    Type
REMARK                         _______ _______ _______ _____ _____    ______ ____
ROOT
ATOM      1  C   UNL     1      -4.611  13.807  23.150  0.00  0.00    +0.000 A 
ATOM      2  C   UNL     1      -3.461  14.184  23.861  0.00  0.00    +0.000 A 
ATOM      3  C   UNL     1      -2.256  13.403  23.816  0.00  0.00    +0.000 A 
ATOM      4  C   UNL     1      -2.131  12.296  22.951  0.00  0.00    +0.000 A 
ATOM      5  C   UNL     1      -3.221  12.265  22.004  0.00  0.00    +0.000 A 
ATOM      6  C   UNL     1      -4.535  12.690  22.330  0.00  0.00    +0.000 A 
ATOM      7  O   UNL     1      -2.994  13.395  20.965  0.00  0.00    +0.000 OA
ATOM      8  C   UNL     1      -2.689  12.839  19.705  0.00  0.00    +0.000 C 
ATOM      9  C   UNL     1      -1.295  12.386  19.885  0.00  0.00    +0.000 C 
ATOM     10  O   UNL     1      -0.784  11.650  18.821  0.00  0.00    +0.000 OA
ATOM     11  C   UNL     1       0.133  10.798  19.467  0.00  0.00    +0.000 C 
ATOM     12  C   UNL     1       0.558   9.729  18.557  0.00  0.00    +0.000 C 
ATOM     13  O   UNL     1       1.879   9.529  19.036  0.00  0.00    +0.000 OA
ATOM     14  C   UNL     1       1.966   8.218  19.310  0.00  0.00    +0.000 A 
ATOM     15  C   UNL     1       2.414   7.480  18.176  0.00  0.00    +0.000 A 
ATOM     16  C   UNL     1       2.457   6.116  18.212  0.00  0.00    +0.000 A 
ATOM     17  C   UNL     1       2.155   5.516  19.425  0.00  0.00    +0.000 A 
ATOM     18  C   UNL     1       1.689   6.273  20.526  0.00  0.00    +0.000 A 
ATOM     19  C   UNL     1       1.507   7.661  20.539  0.00  0.00    +0.000 A 
ATOM     20  O   UNL     1       0.582   8.268  21.416  0.00  0.00    +0.000 OA
ATOM     21  C   UNL     1       0.849   9.452  22.306  0.00  0.00    +0.000 C 
ATOM     22  C   UNL     1      -0.486  10.313  23.049  0.00  0.00    +0.000 C 
ATOM     23  O   UNL     1      -0.842  11.736  22.684  0.00  0.00    +0.000 OA
ENDROOT
TORSDOF 0
ENDMDL
MODEL 4
REMARK VINA RESULT:      -6.4      1.300      7.688
REMARK  Name = 
REMARK  0 active torsions:
REMARK  status: ('A' for Active; 'I' for Inactive)
REMARK                            x       y       z     vdW  Elec       q    Type
REMARK                         _______ _______ _______ _____ _____    ______ ____
ROOT
ATOM      1  C   UNL     1      -1.458  12.206  20.168  0.00  0.00    +0.000 A 
ATOM      2  C   UNL     1      -0.655  12.152  21.319  0.00  0.00    +0.000 A 
ATOM      3  C   UNL     1       0.061  10.961  21.684  0.00  0.00    +0.000 A 
ATOM      4  C   UNL     1       0.097   9.837  20.833  0.00  0.00    +0.000 A 
ATOM      5  C   UNL     1      -0.426  10.169  19.529  0.00  0.00    +0.000 A 
ATOM      6  C   UNL     1      -1.485  11.095  19.338  0.00  0.00    +0.000 A 
ATOM      7  O   UNL     1       0.621  11.046  18.794  0.00  0.00    +0.000 OA
ATOM      8  C   UNL     1       1.179  10.329  17.715  0.00  0.00    +0.000 C 
ATOM      9  C   UNL     1       2.085   9.381  18.395  0.00  0.00    +0.000 C 
ATOM     10  O   UNL     1       2.664   8.433  17.558  0.00  0.00    +0.000 OA
ATOM     11  C   UNL     1       2.830   7.338  18.427  0.00  0.00    +0.000 C 
ATOM     12  C   UNL     1       3.147   6.127  17.661  0.00  0.00    +0.000 C 
ATOM     13  O   UNL     1       3.966   5.461  18.610  0.00  0.00    +0.000 OA
ATOM     14  C   UNL     1       3.423   4.242  18.758  0.00  0.00    +0.000 A 
ATOM     15  C   UNL     1       3.978   3.312  17.832  0.00  0.00    +0.000 A 
ATOM     16  C   UNL     1       3.478   2.045  17.740  0.00  0.00    +0.000 A 
ATOM     17  C   UNL     1       2.498   1.696  18.658  0.00  0.00    +0.000 A 
ATOM     18  C   UNL     1       1.950   2.649  19.549  0.00  0.00    +0.000 A 
ATOM     19  C   UNL     1       2.325   3.995  19.631  0.00  0.00    +0.000 A 
ATOM     20  O   UNL     1       1.431   4.974  20.117  0.00  0.00    +0.000 OA
ATOM     21  C   UNL     1       1.738   6.017  21.157  0.00  0.00    +0.000 C 
ATOM     22  C   UNL     1       0.658   7.381  21.382  0.00  0.00    +0.000 C 
ATOM     23  O   UNL     1       1.059   8.801  21.054  0.00  0.00    +0.000 OA
ENDROOT
TORSDOF 0
ENDMDL
MODEL 5
REMARK VINA RESULT:      -6.4      1.474      3.084
REMARK  Name = 
REMARK  0 active torsions:
REMARK  status: ('A' for Active; 'I' for Inactive)
REMARK                            x       y       z     vdW  Elec       q    Type
REMARK                         _______ _______ _______ _____ _____    ______ ____
ROOT
ATOM      1  C   UNL     1       5.280   3.937  18.953  0.00  0.00    +0.000 A 
ATOM      2  C   UNL     1       4.021   3.317  19.015  0.00  0.00    +0.000 A 
ATOM      3  C   UNL     1       2.854   4.023  19.464  0.00  0.00    +0.000 A 
ATOM      4  C   UNL     1       2.892   5.406  19.737  0.00  0.00    +0.000 A 
ATOM      5  C   UNL     1       4.124   5.986  19.255  0.00  0.00    +0.000 A 
ATOM      6  C   UNL     1       5.359   5.286  19.268  0.00  0.00    +0.000 A 
ATOM      7  O   UNL     1       4.054   6.059  17.707  0.00  0.00    +0.000 OA
ATOM      8  C   UNL     1       3.971   7.404  17.290  0.00  0.00    +0.000 C 
ATOM      9  C   UNL     1       2.574   7.754  17.617  0.00  0.00    +0.000 C 
ATOM     10  O   UNL     1       2.258   9.098  17.443  0.00  0.00    +0.000 OA
ATOM     11  C   UNL     1       1.262   9.294  18.418  0.00  0.00    +0.000 C 
ATOM     12  C   UNL     1       1.011  10.727  18.605  0.00  0.00    +0.000 C 
ATOM     13  O   UNL     1      -0.368  10.679  18.938  0.00  0.00    +0.000 OA
ATOM     14  C   UNL     1      -0.477  11.338  20.103  0.00  0.00    +0.000 A 
ATOM     15  C   UNL     1      -0.719  12.727  19.891  0.00  0.00    +0.000 A 
ATOM     16  C   UNL     1      -0.745  13.593  20.946  0.00  0.00    +0.000 A 
ATOM     17  C   UNL     1      -0.638  13.035  22.211  0.00  0.00    +0.000 A 
ATOM     18  C   UNL     1      -0.374  11.656  22.388  0.00  0.00    +0.000 A 
ATOM     19  C   UNL     1      -0.219  10.719  21.359  0.00  0.00    +0.000 A 
ATOM     20  O   UNL     1       0.537   9.543  21.551  0.00  0.00    +0.000 OA
ATOM     21  C   UNL     1       0.107   8.144  21.199  0.00  0.00    +0.000 C 
ATOM     22  C   UNL     1       1.286   6.846  21.150  0.00  0.00    +0.000 C 
ATOM     23  O   UNL     1       1.674   6.146  19.867  0.00  0.00    +0.000 OA
ENDROOT
TORSDOF 0
ENDMDL
MODEL 6
REMARK VINA RESULT:      -6.4      3.143      8.828
REMARK  Name = 
REMARK  0 active torsions:
REMARK  status: ('A' for Active; 'I' for Inactive)
REMARK                            x       y       z     vdW  Elec       q    Type
REMARK                         _______ _______ _______ _____ _____    ______ ____
ROOT
ATOM      1  C   UNL     1      -7.697  13.129  20.924  0.00  0.00    +0.000 A 
ATOM      2  C   UNL     1      -6.857  14.211  21.234  0.00  0.00    +0.000 A 
ATOM      3  C   UNL     1      -5.432  14.057  21.330  0.00  0.00    +0.000 A 
ATOM      4  C   UNL     1      -4.801  12.843  20.988  0.00  0.00    +0.000 A 
ATOM      5  C   UNL     1      -5.724  11.961  20.315  0.00  0.00    +0.000 A 
ATOM      6  C   UNL     1      -7.107  11.906  20.634  0.00  0.00    +0.000 A 
ATOM      7  O   UNL     1      -5.963  12.507  18.883  0.00  0.00    +0.000 OA
ATOM      8  C   UNL     1      -5.389  11.636  17.933  0.00  0.00    +0.000 C 
ATOM      9  C   UNL     1      -3.946  11.921  18.068  0.00  0.00    +0.000 C 
ATOM     10  O   UNL     1      -3.118  11.076  17.337  0.00  0.00    +0.000 OA
ATOM     11  C   UNL     1      -1.954  11.049  18.127  0.00  0.00    +0.000 C 
ATOM     12  C   UNL     1      -1.066   9.968  17.684  0.00  0.00    +0.000 C 
ATOM     13  O   UNL     1       0.187  10.556  17.996  0.00  0.00    +0.000 OA
ATOM     14  C   UNL     1       0.821   9.660  18.768  0.00  0.00    +0.000 A 
ATOM     15  C   UNL     1       1.597   8.757  17.983  0.00  0.00    +0.000 A 
ATOM     16  C   UNL     1       2.225   7.696  18.568  0.00  0.00    +0.000 A 
ATOM     17  C   UNL     1       2.158   7.620  19.952  0.00  0.00    +0.000 A 
ATOM     18  C   UNL     1       1.360   8.517  20.701  0.00  0.00    +0.000 A 
ATOM     19  C   UNL     1       0.593   9.561  20.171  0.00  0.00    +0.000 A 
ATOM     20  O   UNL     1      -0.542  10.052  20.850  0.00  0.00    +0.000 OA
ATOM     21  C   UNL     1      -0.856  11.498  21.124  0.00  0.00    +0.000 C 
ATOM     22  C   UNL     1      -2.465  11.968  21.641  0.00  0.00    +0.000 C 
ATOM     23  O   UNL     1      -3.385  12.805  20.782  0.00  0.00    +0.000 OA
ENDROOT
TORSDOF 0
ENDMDL
MODEL 7
REMARK VINA RESULT:      -6.4      2.736      8.876
REMARK  Name = 
REMARK  0 active torsions:
REMARK  status: ('A' for Active; 'I' for Inactive)
REMARK                            x       y       z     vdW  Elec       q    Type
REMARK                         _______ _______ _______ _____ _____    ______ ____
ROOT
ATOM      1  C   UNL     1      -6.300  13.830  23.375  0.00  0.00    +0.000 A 
ATOM      2  C   UNL     1      -5.245  14.687  23.730  0.00  0.00    +0.000 A 
ATOM      3  C   UNL     1      -3.872  14.315  23.533  0.00  0.00    +0.000 A 
ATOM      4  C   UNL     1      -3.523  13.130  22.853  0.00  0.00    +0.000 A 
ATOM      5  C   UNL     1      -4.678  12.557  22.203  0.00  0.00    +0.000 A 
ATOM      6  C   UNL     1      -5.985  12.631  22.752  0.00  0.00    +0.000 A 
ATOM      7  O   UNL     1      -5.027  13.434  20.971  0.00  0.00    +0.000 OA
ATOM      8  C   UNL     1      -4.765  12.722  19.782  0.00  0.00    +0.000 C 
ATOM      9  C   UNL     1      -3.290  12.762  19.704  0.00  0.00    +0.000 C 
ATOM     10  O   UNL     1      -2.743  11.991  18.684  0.00  0.00    +0.000 OA
ATOM     11  C   UNL     1      -1.498  11.625  19.228  0.00  0.00    +0.000 C 
ATOM     12  C   UNL     1      -0.891  10.553  18.430  0.00  0.00    +0.000 C 
ATOM     13  O   UNL     1       0.479  10.875  18.615  0.00  0.00    +0.000 OA
ATOM     14  C   UNL     1       1.052   9.749  19.070  0.00  0.00    +0.000 A 
ATOM     15  C   UNL     1       1.529   8.941  17.997  0.00  0.00    +0.000 A 
ATOM     16  C   UNL     1       2.040   7.699  18.242  0.00  0.00    +0.000 A 
ATOM     17  C   UNL     1       2.167   7.330  19.573  0.00  0.00    +0.000 A 
ATOM     18  C   UNL     1       1.662   8.144  20.615  0.00  0.00    +0.000 A 
ATOM     19  C   UNL     1       1.021   9.378  20.445  0.00  0.00    +0.000 A 
ATOM     20  O   UNL     1       0.105   9.863  21.402  0.00  0.00    +0.000 OA
ATOM     21  C   UNL     1       0.097  11.242  22.003  0.00  0.00    +0.000 C 
ATOM     22  C   UNL     1      -1.308  11.810  22.886  0.00  0.00    +0.000 C 
ATOM     23  O   UNL     1      -2.184  12.937  22.388  0.00  0.00    +0.000 OA
ENDROOT
TORSDOF 0
ENDMDL
MODEL 8
REMARK VINA RESULT:      -6.3      1.310      7.349
REMARK  Name = 
REMARK  0 active torsions:
REMARK  status: ('A' for Active; 'I' for Inactive)
REMARK                            x       y       z     vdW  Elec       q    Type
REMARK                         _______ _______ _______ _____ _____    ______ ____
ROOT
ATOM      1  C   UNL     1      -1.569  13.425  21.777  0.00  0.00    +0.000 A 
ATOM      2  C   UNL     1      -2.370  12.986  20.711  0.00  0.00    +0.000 A 
ATOM      3  C   UNL     1      -1.890  12.033  19.749  0.00  0.00    +0.000 A 
ATOM      4  C   UNL     1      -0.642  11.396  19.907  0.00  0.00    +0.000 A 
ATOM      5  C   UNL     1      -0.112  11.636  21.228  0.00  0.00    +0.000 A 
ATOM      6  C   UNL     1      -0.312  12.855  21.928  0.00  0.00    +0.000 A 
ATOM      7  O   UNL     1      -0.930  10.792  22.241  0.00  0.00    +0.000 OA
ATOM      8  C   UNL     1      -0.126   9.761  22.770  0.00  0.00    +0.000 C 
ATOM      9  C   UNL     1      -0.057   8.802  21.648  0.00  0.00    +0.000 C 
ATOM     10  O   UNL     1       0.816   7.737  21.849  0.00  0.00    +0.000 OA
ATOM     11  C   UNL     1       1.233   7.447  20.537  0.00  0.00    +0.000 C 
ATOM     12  C   UNL     1       2.393   6.550  20.560  0.00  0.00    +0.000 C 
ATOM     13  O   UNL     1       2.158   5.836  19.356  0.00  0.00    +0.000 OA
ATOM     14  C   UNL     1       3.290   5.954  18.644  0.00  0.00    +0.000 A 
ATOM     15  C   UNL     1       4.197   4.893  18.933  0.00  0.00    +0.000 A 
ATOM     16  C   UNL     1       5.454   4.894  18.400  0.00  0.00    +0.000 A 
ATOM     17  C   UNL     1       5.744   5.903  17.493  0.00  0.00    +0.000 A 
ATOM     18  C   UNL     1       4.832   6.956  17.246  0.00  0.00    +0.000 A 
ATOM     19  C   UNL     1       3.569   7.094  17.836  0.00  0.00    +0.000 A 
ATOM     20  O   UNL     1       2.960   8.359  17.970  0.00  0.00    +0.000 OA
ATOM     21  C   UNL     1       1.547   8.709  17.588  0.00  0.00    +0.000 C 
ATOM     22  C   UNL     1       0.826  10.205  18.153  0.00  0.00    +0.000 C 
ATOM     23  O   UNL     1      -0.326  10.236  19.132  0.00  0.00    +0.000 OA
ENDROOT
TORSDOF 0
ENDMDL
MODEL 9
REMARK VINA RESULT:      -6.3      7.376     10.712
REMARK  Name = 
REMARK  0 active torsions:
REMARK  status: ('A' for Active; 'I' for Inactive)
REMARK                            x       y       z     vdW  Elec       q    Type
REMARK                         _______ _______ _______ _____ _____    ______ ____
ROOT
ATOM      1  C   UNL     1       0.953  14.354  21.239  0.00  0.00    +0.000 A 
ATOM      2  C   UNL     1       1.514  15.408  21.977  0.00  0.00    +0.000 A 
ATOM      3  C   UNL     1       2.933  15.523  22.170  0.00  0.00    +0.000 A 
ATOM      4  C   UNL     1       3.834  14.657  21.517  0.00  0.00    +0.000 A 
ATOM      5  C   UNL     1       3.157  13.894  20.495  0.00  0.00    +0.000 A 
ATOM      6  C   UNL     1       1.814  13.454  20.628  0.00  0.00    +0.000 A 
ATOM      7  O   UNL     1       2.846  14.841  19.307  0.00  0.00    +0.000 OA
ATOM      8  C   UNL     1       3.632  14.488  18.190  0.00  0.00    +0.000 C 
ATOM      9  C   UNL     1       4.968  14.995  18.566  0.00  0.00    +0.000 C 
ATOM     10  O   UNL     1       5.989  14.641  17.690  0.00  0.00    +0.000 OA
ATOM     11  C   UNL     1       7.103  14.578  18.547  0.00  0.00    +0.000 C 
ATOM     12  C   UNL     1       8.227  13.921  17.871  0.00  0.00    +0.000 C 
ATOM     13  O   UNL     1       9.303  14.606  18.492  0.00  0.00    +0.000 OA
ATOM     14  C   UNL     1      10.100  13.646  18.988  0.00  0.00    +0.000 A 
ATOM     15  C   UNL     1      11.084  13.247  18.037  0.00  0.00    +0.000 A 
ATOM     16  C   UNL     1      11.918  12.200  18.304  0.00  0.00    +0.000 A 
ATOM     17  C   UNL     1      11.826  11.639  19.569  0.00  0.00    +0.000 A 
ATOM     18  C   UNL     1      10.822  12.040  20.482  0.00  0.00    +0.000 A 
ATOM     19  C   UNL     1       9.856  13.025  20.247  0.00  0.00    +0.000 A 
ATOM     20  O   UNL     1       8.618  13.010  20.924  0.00  0.00    +0.000 OA
ATOM     21  C   UNL     1       7.975  14.177  21.624  0.00  0.00    +0.000 C 
ATOM     22  C   UNL     1       6.286  14.102  22.091  0.00  0.00    +0.000 C 
ATOM     23  O   UNL     1       5.227  14.979  21.463  0.00  0.00    +0.000 OA
ENDROOT
TORSDOF 0
ENDMDL
