MODEL 1
REMARK VINA RESULT:      -7.7      0.000      0.000
REMARK  Name = 
REMARK  7 active torsions:
REMARK  status: ('A' for Active; 'I' for Inactive)
REMARK    1  A    between atoms: C_1  and  N_2
REMARK    2  A    between atoms: N_2  and  C_3
REMARK    3  A    between atoms: N_2  and  C_19
REMARK    4  A    between atoms: C_3  and  C_4
REMARK    5  A    between atoms: C_4  and  C_5
REMARK    6  A    between atoms: C_5  and  N_6
REMARK    7  A    between atoms: C_19  and  C_20
REMARK                            x       y       z     vdW  Elec       q    Type
REMARK                         _______ _______ _______ _____ _____    ______ ____
ROOT
ATOM      1  N   UNL     1       2.399   7.795  18.264  0.00  0.00    +0.000 NA
ATOM      2  C   UNL     1       2.163   9.206  17.856  0.00  0.00    +0.000 C 
ATOM      3  C   UNL     1       0.796   9.781  18.291  0.00  0.00    +0.000 C 
ATOM      4  C   UNL     1       0.597   9.521  19.733  0.00  0.00    +0.000 A 
ATOM      5  C   UNL     1       1.245   8.473  20.345  0.00  0.00    +0.000 A 
ATOM      6  N   UNL     1       0.880   8.466  21.664  0.00  0.00    +0.000 N 
ATOM      7  C   UNL     1       0.055   9.542  21.923  0.00  0.00    +0.000 A 
ATOM      8  C   UNL     1      -0.516   9.969  23.129  0.00  0.00    +0.000 A 
ATOM      9  C   UNL     1      -1.298  11.127  23.098  0.00  0.00    +0.000 A 
ATOM     10  C   UNL     1      -1.508  11.825  21.910  0.00  0.00    +0.000 A 
ATOM     11  C   UNL     1      -0.939  11.381  20.713  0.00  0.00    +0.000 A 
ATOM     12  C   UNL     1      -0.142  10.220  20.719  0.00  0.00    +0.000 A 
ATOM     13  C   UNL     1       2.242   7.560  19.722  0.00  0.00    +0.000 C 
ATOM     14  H   UNL     1       1.200   7.809  22.359  0.00  0.00    +0.000 HD
ENDROOT
BRANCH   1  15
ATOM     15  C   UNL     1       3.738   7.330  17.839  0.00  0.00    +0.000 C 
BRANCH  15  16
ATOM     16  C   UNL     1       3.694   5.963  17.152  0.00  0.00    +0.000 C 
BRANCH  16  17
ATOM     17  C   UNL     1       4.929   5.106  17.462  0.00  0.00    +0.000 C 
BRANCH  17  19
ATOM     18  C   UNL     1       6.473   5.369  19.322  0.00  0.00    +0.000 C 
ATOM     19  N   UNL     1       5.124   4.954  18.918  0.00  0.00    +0.000 NA
BRANCH  19  20
ATOM     20  C   UNL     1       4.838   3.566  19.337  0.00  0.00    +0.000 C 
BRANCH  20  21
ATOM     21  C   UNL     1       3.357   3.323  19.557  0.00  0.00    +0.000 A 
ATOM     22  C   UNL     1       2.641   2.480  18.694  0.00  0.00    +0.000 A 
ATOM     23  C   UNL     1       1.256   2.358  18.811  0.00  0.00    +0.000 A 
ATOM     24  C   UNL     1       0.575   3.070  19.796  0.00  0.00    +0.000 A 
ATOM     25  C   UNL     1       1.279   3.890  20.677  0.00  0.00    +0.000 A 
ATOM     26  C   UNL     1       2.665   4.012  20.563  0.00  0.00    +0.000 A 
ENDBRANCH  20  21
ENDBRANCH  19  20
ENDBRANCH  17  19
ENDBRANCH  16  17
ENDBRANCH  15  16
ENDBRANCH   1  15
TORSDOF 6
ENDMDL
MODEL 2
REMARK VINA RESULT:      -7.6      1.011      1.236
REMARK  Name = 
REMARK  7 active torsions:
REMARK  status: ('A' for Active; 'I' for Inactive)
REMARK    1  A    between atoms: C_1  and  N_2
REMARK    2  A    between atoms: N_2  and  C_3
REMARK    3  A    between atoms: N_2  and  C_19
REMARK    4  A    between atoms: C_3  and  C_4
REMARK    5  A    between atoms: C_4  and  C_5
REMARK    6  A    between atoms: C_5  and  N_6
REMARK    7  A    between atoms: C_19  and  C_20
REMARK                            x       y       z     vdW  Elec       q    Type
REMARK                         _______ _______ _______ _____ _____    ______ ____
ROOT
ATOM      1  N   UNL     1       2.075   8.028  18.319  0.00  0.00    +0.000 NA
ATOM      2  C   UNL     1       1.783   9.405  17.836  0.00  0.00    +0.000 C 
ATOM      3  C   UNL     1       0.415   9.967  18.287  0.00  0.00    +0.000 C 
ATOM      4  C   UNL     1       0.276   9.790  19.749  0.00  0.00    +0.000 A 
ATOM      5  C   UNL     1       0.977   8.800  20.397  0.00  0.00    +0.000 A 
ATOM      6  N   UNL     1       0.660   8.863  21.727  0.00  0.00    +0.000 N 
ATOM      7  C   UNL     1      -0.187   9.929  21.952  0.00  0.00    +0.000 A 
ATOM      8  C   UNL     1      -0.727  10.413  23.151  0.00  0.00    +0.000 A 
ATOM      9  C   UNL     1      -1.543  11.545  23.081  0.00  0.00    +0.000 A 
ATOM     10  C   UNL     1      -1.817  12.163  21.863  0.00  0.00    +0.000 A 
ATOM     11  C   UNL     1      -1.278  11.663  20.673  0.00  0.00    +0.000 A 
ATOM     12  C   UNL     1      -0.447  10.527  20.719  0.00  0.00    +0.000 A 
ATOM     13  C   UNL     1       1.977   7.878  19.793  0.00  0.00    +0.000 C 
ATOM     14  H   UNL     1       1.024   8.258  22.448  0.00  0.00    +0.000 HD
ENDROOT
BRANCH   1  15
ATOM     15  C   UNL     1       3.411   7.575  17.872  0.00  0.00    +0.000 C 
BRANCH  15  16
ATOM     16  C   UNL     1       3.748   6.166  18.364  0.00  0.00    +0.000 C 
BRANCH  16  17
ATOM     17  C   UNL     1       3.703   5.121  17.241  0.00  0.00    +0.000 C 
BRANCH  17  19
ATOM     18  C   UNL     1       5.633   3.806  16.564  0.00  0.00    +0.000 C 
ATOM     19  N   UNL     1       4.561   3.960  17.554  0.00  0.00    +0.000 NA
BRANCH  19  20
ATOM     20  C   UNL     1       3.749   2.731  17.666  0.00  0.00    +0.000 C 
BRANCH  20  21
ATOM     21  C   UNL     1       2.890   2.718  18.916  0.00  0.00    +0.000 A 
ATOM     22  C   UNL     1       1.503   2.911  18.826  0.00  0.00    +0.000 A 
ATOM     23  C   UNL     1       0.729   3.033  19.980  0.00  0.00    +0.000 A 
ATOM     24  C   UNL     1       1.330   2.955  21.234  0.00  0.00    +0.000 A 
ATOM     25  C   UNL     1       2.703   2.735  21.337  0.00  0.00    +0.000 A 
ATOM     26  C   UNL     1       3.480   2.611  20.184  0.00  0.00    +0.000 A 
ENDBRANCH  20  21
ENDBRANCH  19  20
ENDBRANCH  17  19
ENDBRANCH  16  17
ENDBRANCH  15  16
ENDBRANCH   1  15
TORSDOF 6
ENDMDL
MODEL 3
REMARK VINA RESULT:      -7.6      1.233      1.614
REMARK  Name = 
REMARK  7 active torsions:
REMARK  status: ('A' for Active; 'I' for Inactive)
REMARK    1  A    between atoms: C_1  and  N_2
REMARK    2  A    between atoms: N_2  and  C_3
REMARK    3  A    between atoms: N_2  and  C_19
REMARK    4  A    between atoms: C_3  and  C_4
REMARK    5  A    between atoms: C_4  and  C_5
REMARK    6  A    between atoms: C_5  and  N_6
REMARK    7  A    between atoms: C_19  and  C_20
REMARK                            x       y       z     vdW  Elec       q    Type
REMARK                         _______ _______ _______ _____ _____    ______ ____
ROOT
ATOM      1  N   UNL     1       2.913   7.205  18.214  0.00  0.00    +0.000 NA
ATOM      2  C   UNL     1       2.754   8.622  17.789  0.00  0.00    +0.000 C 
ATOM      3  C   UNL     1       1.397   9.257  18.166  0.00  0.00    +0.000 C 
ATOM      4  C   UNL     1       1.130   9.017  19.601  0.00  0.00    +0.000 A 
ATOM      5  C   UNL     1       1.709   7.947  20.243  0.00  0.00    +0.000 A 
ATOM      6  N   UNL     1       1.292   7.965  21.547  0.00  0.00    +0.000 N 
ATOM      7  C   UNL     1       0.504   9.077  21.767  0.00  0.00    +0.000 A 
ATOM      8  C   UNL     1      -0.095   9.537  22.947  0.00  0.00    +0.000 A 
ATOM      9  C   UNL     1      -0.825  10.727  22.879  0.00  0.00    +0.000 A 
ATOM     10  C   UNL     1      -0.959  11.424  21.680  0.00  0.00    +0.000 A 
ATOM     11  C   UNL     1      -0.362  10.948  20.509  0.00  0.00    +0.000 A 
ATOM     12  C   UNL     1       0.384   9.754  20.553  0.00  0.00    +0.000 A 
ATOM     13  C   UNL     1       2.689   6.988  19.666  0.00  0.00    +0.000 C 
ATOM     14  H   UNL     1       1.556   7.300  22.258  0.00  0.00    +0.000 HD
ENDROOT
BRANCH   1  15
ATOM     15  C   UNL     1       4.247   6.680  17.845  0.00  0.00    +0.000 C 
BRANCH  15  16
ATOM     16  C   UNL     1       4.584   6.916  16.371  0.00  0.00    +0.000 C 
BRANCH  16  17
ATOM     17  C   UNL     1       5.312   5.725  15.733  0.00  0.00    +0.000 C 
BRANCH  17  19
ATOM     18  C   UNL     1       7.203   4.531  16.686  0.00  0.00    +0.000 C 
ATOM     19  N   UNL     1       5.754   4.757  16.756  0.00  0.00    +0.000 NA
BRANCH  19  20
ATOM     20  C   UNL     1       5.004   3.490  16.630  0.00  0.00    +0.000 C 
BRANCH  20  21
ATOM     21  C   UNL     1       3.903   3.367  17.666  0.00  0.00    +0.000 A 
ATOM     22  C   UNL     1       4.209   3.019  18.990  0.00  0.00    +0.000 A 
ATOM     23  C   UNL     1       3.191   2.774  19.912  0.00  0.00    +0.000 A 
ATOM     24  C   UNL     1       1.858   2.883  19.522  0.00  0.00    +0.000 A 
ATOM     25  C   UNL     1       1.541   3.256  18.217  0.00  0.00    +0.000 A 
ATOM     26  C   UNL     1       2.557   3.503  17.294  0.00  0.00    +0.000 A 
ENDBRANCH  20  21
ENDBRANCH  19  20
ENDBRANCH  17  19
ENDBRANCH  16  17
ENDBRANCH  15  16
ENDBRANCH   1  15
TORSDOF 6
ENDMDL
MODEL 4
REMARK VINA RESULT:      -7.6      0.868      1.297
REMARK  Name = 
REMARK  7 active torsions:
REMARK  status: ('A' for Active; 'I' for Inactive)
REMARK    1  A    between atoms: C_1  and  N_2
REMARK    2  A    between atoms: N_2  and  C_3
REMARK    3  A    between atoms: N_2  and  C_19
REMARK    4  A    between atoms: C_3  and  C_4
REMARK    5  A    between atoms: C_4  and  C_5
REMARK    6  A    between atoms: C_5  and  N_6
REMARK    7  A    between atoms: C_19  and  C_20
REMARK                            x       y       z     vdW  Elec       q    Type
REMARK                         _______ _______ _______ _____ _____    ______ ____
ROOT
ATOM      1  N   UNL     1       2.337   7.867  18.194  0.00  0.00    +0.000 NA
ATOM      2  C   UNL     1       2.089   9.281  17.802  0.00  0.00    +0.000 C 
ATOM      3  C   UNL     1       0.726   9.845  18.263  0.00  0.00    +0.000 C 
ATOM      4  C   UNL     1       0.550   9.571  19.706  0.00  0.00    +0.000 A 
ATOM      5  C   UNL     1       1.212   8.520  20.297  0.00  0.00    +0.000 A 
ATOM      6  N   UNL     1       0.867   8.499  21.622  0.00  0.00    +0.000 N 
ATOM      7  C   UNL     1       0.041   9.568  21.903  0.00  0.00    +0.000 A 
ATOM      8  C   UNL     1      -0.514   9.982  23.122  0.00  0.00    +0.000 A 
ATOM      9  C   UNL     1      -1.301  11.136  23.114  0.00  0.00    +0.000 A 
ATOM     10  C   UNL     1      -1.532  11.845  21.936  0.00  0.00    +0.000 A 
ATOM     11  C   UNL     1      -0.979  11.415  20.726  0.00  0.00    +0.000 A 
ATOM     12  C   UNL     1      -0.177  10.257  20.709  0.00  0.00    +0.000 A 
ATOM     13  C   UNL     1       2.203   7.617  19.652  0.00  0.00    +0.000 C 
ATOM     14  H   UNL     1       1.200   7.837  22.306  0.00  0.00    +0.000 HD
ENDROOT
BRANCH   1  15
ATOM     15  C   UNL     1       3.671   7.411  17.744  0.00  0.00    +0.000 C 
BRANCH  15  16
ATOM     16  C   UNL     1       3.678   5.941  17.319  0.00  0.00    +0.000 C 
BRANCH  16  17
ATOM     17  C   UNL     1       4.382   5.034  18.337  0.00  0.00    +0.000 C 
BRANCH  17  19
ATOM     18  C   UNL     1       5.228   3.961  16.326  0.00  0.00    +0.000 C 
ATOM     19  N   UNL     1       4.808   3.763  17.719  0.00  0.00    +0.000 NA
BRANCH  19  20
ATOM     20  C   UNL     1       3.736   2.752  17.820  0.00  0.00    +0.000 C 
BRANCH  20  21
ATOM     21  C   UNL     1       2.913   2.908  19.085  0.00  0.00    +0.000 A 
ATOM     22  C   UNL     1       3.457   2.569  20.333  0.00  0.00    +0.000 A 
ATOM     23  C   UNL     1       2.663   2.584  21.480  0.00  0.00    +0.000 A 
ATOM     24  C   UNL     1       1.320   2.946  21.393  0.00  0.00    +0.000 A 
ATOM     25  C   UNL     1       0.775   3.313  20.163  0.00  0.00    +0.000 A 
ATOM     26  C   UNL     1       1.568   3.300  19.014  0.00  0.00    +0.000 A 
ENDBRANCH  20  21
ENDBRANCH  19  20
ENDBRANCH  17  19
ENDBRANCH  16  17
ENDBRANCH  15  16
ENDBRANCH   1  15
TORSDOF 6
ENDMDL
MODEL 5
REMARK VINA RESULT:      -7.4      0.921      1.907
REMARK  Name = 
REMARK  7 active torsions:
REMARK  status: ('A' for Active; 'I' for Inactive)
REMARK    1  A    between atoms: C_1  and  N_2
REMARK    2  A    between atoms: N_2  and  C_3
REMARK    3  A    between atoms: N_2  and  C_19
REMARK    4  A    between atoms: C_3  and  C_4
REMARK    5  A    between atoms: C_4  and  C_5
REMARK    6  A    between atoms: C_5  and  N_6
REMARK    7  A    between atoms: C_19  and  C_20
REMARK                            x       y       z     vdW  Elec       q    Type
REMARK                         _______ _______ _______ _____ _____    ______ ____
ROOT
ATOM      1  N   UNL     1       2.529   7.693  18.926  0.00  0.00    +0.000 NA
ATOM      2  C   UNL     1       1.902   7.017  20.094  0.00  0.00    +0.000 C 
ATOM      3  C   UNL     1       1.640   7.940  21.306  0.00  0.00    +0.000 C 
ATOM      4  C   UNL     1       0.927   9.153  20.847  0.00  0.00    +0.000 A 
ATOM      5  C   UNL     1       1.044   9.573  19.542  0.00  0.00    +0.000 A 
ATOM      6  N   UNL     1       0.290  10.706  19.397  0.00  0.00    +0.000 N 
ATOM      7  C   UNL     1      -0.366  10.981  20.580  0.00  0.00    +0.000 A 
ATOM      8  C   UNL     1      -1.281  11.998  20.887  0.00  0.00    +0.000 A 
ATOM      9  C   UNL     1      -1.816  12.016  22.178  0.00  0.00    +0.000 A 
ATOM     10  C   UNL     1      -1.447  11.064  23.126  0.00  0.00    +0.000 A 
ATOM     11  C   UNL     1      -0.526  10.061  22.807  0.00  0.00    +0.000 A 
ATOM     12  C   UNL     1       0.023  10.017  21.511  0.00  0.00    +0.000 A 
ATOM     13  C   UNL     1       1.776   8.880  18.448  0.00  0.00    +0.000 C 
ATOM     14  H   UNL     1       0.185  11.238  18.546  0.00  0.00    +0.000 HD
ENDROOT
BRANCH   1  15
ATOM     15  C   UNL     1       2.719   6.752  17.800  0.00  0.00    +0.000 C 
BRANCH  15  16
ATOM     16  C   UNL     1       4.114   6.853  17.179  0.00  0.00    +0.000 C 
BRANCH  16  17
ATOM     17  C   UNL     1       4.919   5.553  17.318  0.00  0.00    +0.000 C 
BRANCH  17  19
ATOM     18  C   UNL     1       6.313   5.391  19.304  0.00  0.00    +0.000 C 
ATOM     19  N   UNL     1       4.991   5.116  18.726  0.00  0.00    +0.000 NA
BRANCH  19  20
ATOM     20  C   UNL     1       4.639   3.686  18.845  0.00  0.00    +0.000 C 
BRANCH  20  21
ATOM     21  C   UNL     1       3.203   3.480  19.290  0.00  0.00    +0.000 A 
ATOM     22  C   UNL     1       2.858   3.589  20.645  0.00  0.00    +0.000 A 
ATOM     23  C   UNL     1       1.569   3.271  21.075  0.00  0.00    +0.000 A 
ATOM     24  C   UNL     1       0.612   2.849  20.155  0.00  0.00    +0.000 A 
ATOM     25  C   UNL     1       0.935   2.764  18.801  0.00  0.00    +0.000 A 
ATOM     26  C   UNL     1       2.223   3.083  18.368  0.00  0.00    +0.000 A 
ENDBRANCH  20  21
ENDBRANCH  19  20
ENDBRANCH  17  19
ENDBRANCH  16  17
ENDBRANCH  15  16
ENDBRANCH   1  15
TORSDOF 6
ENDMDL
MODEL 6
REMARK VINA RESULT:      -7.4      1.253      2.072
REMARK  Name = 
REMARK  7 active torsions:
REMARK  status: ('A' for Active; 'I' for Inactive)
REMARK    1  A    between atoms: C_1  and  N_2
REMARK    2  A    between atoms: N_2  and  C_3
REMARK    3  A    between atoms: N_2  and  C_19
REMARK    4  A    between atoms: C_3  and  C_4
REMARK    5  A    between atoms: C_4  and  C_5
REMARK    6  A    between atoms: C_5  and  N_6
REMARK    7  A    between atoms: C_19  and  C_20
REMARK                            x       y       z     vdW  Elec       q    Type
REMARK                         _______ _______ _______ _____ _____    ______ ____
ROOT
ATOM      1  N   UNL     1       2.153   8.111  19.308  0.00  0.00    +0.000 NA
ATOM      2  C   UNL     1       1.550   7.529  20.538  0.00  0.00    +0.000 C 
ATOM      3  C   UNL     1       1.247   8.556  21.652  0.00  0.00    +0.000 C 
ATOM      4  C   UNL     1       0.486   9.687  21.076  0.00  0.00    +0.000 A 
ATOM      5  C   UNL     1       0.590   9.980  19.736  0.00  0.00    +0.000 A 
ATOM      6  N   UNL     1      -0.209  11.061  19.480  0.00  0.00    +0.000 N 
ATOM      7  C   UNL     1      -0.880  11.426  20.630  0.00  0.00    +0.000 A 
ATOM      8  C   UNL     1      -1.836  12.429  20.836  0.00  0.00    +0.000 A 
ATOM      9  C   UNL     1      -2.374  12.553  22.119  0.00  0.00    +0.000 A 
ATOM     10  C   UNL     1      -1.970  11.716  23.157  0.00  0.00    +0.000 A 
ATOM     11  C   UNL     1      -1.008  10.724  22.938  0.00  0.00    +0.000 A 
ATOM     12  C   UNL     1      -0.454  10.575  21.651  0.00  0.00    +0.000 A 
ATOM     13  C   UNL     1       1.353   9.213  18.714  0.00  0.00    +0.000 C 
ATOM     14  H   UNL     1      -0.333  11.501  18.580  0.00  0.00    +0.000 HD
ENDROOT
BRANCH   1  15
ATOM     15  C   UNL     1       2.384   7.072  18.280  0.00  0.00    +0.000 C 
BRANCH  15  16
ATOM     16  C   UNL     1       3.794   6.480  18.350  0.00  0.00    +0.000 C 
BRANCH  16  17
ATOM     17  C   UNL     1       4.076   5.487  17.213  0.00  0.00    +0.000 C 
BRANCH  17  19
ATOM     18  C   UNL     1       6.083   4.135  16.981  0.00  0.00    +0.000 C 
ATOM     19  N   UNL     1       4.817   4.308  17.703  0.00  0.00    +0.000 NA
BRANCH  19  20
ATOM     20  C   UNL     1       3.977   3.095  17.618  0.00  0.00    +0.000 C 
BRANCH  20  21
ATOM     21  C   UNL     1       3.027   2.968  18.792  0.00  0.00    +0.000 A 
ATOM     22  C   UNL     1       1.641   3.082  18.600  0.00  0.00    +0.000 A 
ATOM     23  C   UNL     1       0.774   3.098  19.693  0.00  0.00    +0.000 A 
ATOM     24  C   UNL     1       1.281   2.992  20.987  0.00  0.00    +0.000 A 
ATOM     25  C   UNL     1       2.653   2.849  21.189  0.00  0.00    +0.000 A 
ATOM     26  C   UNL     1       3.522   2.830  20.097  0.00  0.00    +0.000 A 
ENDBRANCH  20  21
ENDBRANCH  19  20
ENDBRANCH  17  19
ENDBRANCH  16  17
ENDBRANCH  15  16
ENDBRANCH   1  15
TORSDOF 6
ENDMDL
MODEL 7
REMARK VINA RESULT:      -7.2      1.080      1.931
REMARK  Name = 
REMARK  7 active torsions:
REMARK  status: ('A' for Active; 'I' for Inactive)
REMARK    1  A    between atoms: C_1  and  N_2
REMARK    2  A    between atoms: N_2  and  C_3
REMARK    3  A    between atoms: N_2  and  C_19
REMARK    4  A    between atoms: C_3  and  C_4
REMARK    5  A    between atoms: C_4  and  C_5
REMARK    6  A    between atoms: C_5  and  N_6
REMARK    7  A    between atoms: C_19  and  C_20
REMARK                            x       y       z     vdW  Elec       q    Type
REMARK                         _______ _______ _______ _____ _____    ______ ____
ROOT
ATOM      1  N   UNL     1       2.598   7.809  18.742  0.00  0.00    +0.000 NA
ATOM      2  C   UNL     1       1.870   7.463  19.992  0.00  0.00    +0.000 C 
ATOM      3  C   UNL     1       1.505   8.675  20.879  0.00  0.00    +0.000 C 
ATOM      4  C   UNL     1       0.837   9.701  20.049  0.00  0.00    +0.000 A 
ATOM      5  C   UNL     1       1.069   9.754  18.694  0.00  0.00    +0.000 A 
ATOM      6  N   UNL     1       0.334  10.788  18.182  0.00  0.00    +0.000 N 
ATOM      7  C   UNL     1      -0.423  11.360  19.185  0.00  0.00    +0.000 A 
ATOM      8  C   UNL     1      -1.358  12.402  19.126  0.00  0.00    +0.000 A 
ATOM      9  C   UNL     1      -2.003  12.759  20.312  0.00  0.00    +0.000 A 
ATOM     10  C   UNL     1      -1.721  12.108  21.512  0.00  0.00    +0.000 A 
ATOM     11  C   UNL     1      -0.779  11.076  21.557  0.00  0.00    +0.000 A 
ATOM     12  C   UNL     1      -0.119  10.694  20.373  0.00  0.00    +0.000 A 
ATOM     13  C   UNL     1       1.893   8.805  17.896  0.00  0.00    +0.000 C 
ATOM     14  H   UNL     1       0.304  11.066  17.213  0.00  0.00    +0.000 HD
ENDROOT
BRANCH   1  15
ATOM     15  C   UNL     1       2.883   6.602  17.935  0.00  0.00    +0.000 C 
BRANCH  15  16
ATOM     16  C   UNL     1       4.156   6.742  17.097  0.00  0.00    +0.000 C 
BRANCH  16  17
ATOM     17  C   UNL     1       5.126   5.569  17.294  0.00  0.00    +0.000 C 
BRANCH  17  19
ATOM     18  C   UNL     1       6.354   5.382  19.385  0.00  0.00    +0.000 C 
ATOM     19  N   UNL     1       5.099   5.079  18.687  0.00  0.00    +0.000 NA
BRANCH  19  20
ATOM     20  C   UNL     1       4.797   3.633  18.722  0.00  0.00    +0.000 C 
BRANCH  20  21
ATOM     21  C   UNL     1       3.380   3.350  19.181  0.00  0.00    +0.000 A 
ATOM     22  C   UNL     1       2.500   2.626  18.363  0.00  0.00    +0.000 A 
ATOM     23  C   UNL     1       1.159   2.478  18.721  0.00  0.00    +0.000 A 
ATOM     24  C   UNL     1       0.687   3.044  19.903  0.00  0.00    +0.000 A 
ATOM     25  C   UNL     1       1.559   3.741  20.739  0.00  0.00    +0.000 A 
ATOM     26  C   UNL     1       2.900   3.889  20.384  0.00  0.00    +0.000 A 
ENDBRANCH  20  21
ENDBRANCH  19  20
ENDBRANCH  17  19
ENDBRANCH  16  17
ENDBRANCH  15  16
ENDBRANCH   1  15
TORSDOF 6
ENDMDL
MODEL 8
REMARK VINA RESULT:      -7.2      1.024      1.199
REMARK  Name = 
REMARK  7 active torsions:
REMARK  status: ('A' for Active; 'I' for Inactive)
REMARK    1  A    between atoms: C_1  and  N_2
REMARK    2  A    between atoms: N_2  and  C_3
REMARK    3  A    between atoms: N_2  and  C_19
REMARK    4  A    between atoms: C_3  and  C_4
REMARK    5  A    between atoms: C_4  and  C_5
REMARK    6  A    between atoms: C_5  and  N_6
REMARK    7  A    between atoms: C_19  and  C_20
REMARK                            x       y       z     vdW  Elec       q    Type
REMARK                         _______ _______ _______ _____ _____    ______ ____
ROOT
ATOM      1  N   UNL     1       3.068   7.474  18.018  0.00  0.00    +0.000 NA
ATOM      2  C   UNL     1       2.822   8.901  17.674  0.00  0.00    +0.000 C 
ATOM      3  C   UNL     1       1.429   9.429  18.086  0.00  0.00    +0.000 C 
ATOM      4  C   UNL     1       1.181   9.092  19.504  0.00  0.00    +0.000 A 
ATOM      5  C   UNL     1       1.826   8.024  20.085  0.00  0.00    +0.000 A 
ATOM      6  N   UNL     1       1.412   7.942  21.387  0.00  0.00    +0.000 N 
ATOM      7  C   UNL     1       0.558   8.989  21.670  0.00  0.00    +0.000 A 
ATOM      8  C   UNL     1      -0.065   9.344  22.873  0.00  0.00    +0.000 A 
ATOM      9  C   UNL     1      -0.867  10.488  22.873  0.00  0.00    +0.000 A 
ATOM     10  C   UNL     1      -1.045  11.244  21.716  0.00  0.00    +0.000 A 
ATOM     11  C   UNL     1      -0.424  10.872  20.519  0.00  0.00    +0.000 A 
ATOM     12  C   UNL     1       0.394   9.726  20.496  0.00  0.00    +0.000 A 
ATOM     13  C   UNL     1       2.862   7.161  19.455  0.00  0.00    +0.000 C 
ATOM     14  H   UNL     1       1.718   7.255  22.059  0.00  0.00    +0.000 HD
ENDROOT
BRANCH   1  15
ATOM     15  C   UNL     1       4.431   7.054  17.621  0.00  0.00    +0.000 C 
BRANCH  15  16
ATOM     16  C   UNL     1       4.465   6.404  16.235  0.00  0.00    +0.000 C 
BRANCH  16  17
ATOM     17  C   UNL     1       4.708   4.890  16.298  0.00  0.00    +0.000 C 
BRANCH  17  19
ATOM     18  C   UNL     1       6.086   4.249  18.197  0.00  0.00    +0.000 C 
ATOM     19  N   UNL     1       4.716   4.406  17.693  0.00  0.00    +0.000 NA
BRANCH  19  20
ATOM     20  C   UNL     1       3.951   3.147  17.810  0.00  0.00    +0.000 C 
BRANCH  20  21
ATOM     21  C   UNL     1       3.025   3.144  19.011  0.00  0.00    +0.000 A 
ATOM     22  C   UNL     1       1.773   3.774  18.945  0.00  0.00    +0.000 A 
ATOM     23  C   UNL     1       0.977   3.888  20.084  0.00  0.00    +0.000 A 
ATOM     24  C   UNL     1       1.419   3.367  21.299  0.00  0.00    +0.000 A 
ATOM     25  C   UNL     1       2.648   2.713  21.371  0.00  0.00    +0.000 A 
ATOM     26  C   UNL     1       3.446   2.596  20.232  0.00  0.00    +0.000 A 
ENDBRANCH  20  21
ENDBRANCH  19  20
ENDBRANCH  17  19
ENDBRANCH  16  17
ENDBRANCH  15  16
ENDBRANCH   1  15
TORSDOF 6
ENDMDL
MODEL 9
REMARK VINA RESULT:      -7.1      5.244      8.820
REMARK  Name = 
REMARK  7 active torsions:
REMARK  status: ('A' for Active; 'I' for Inactive)
REMARK    1  A    between atoms: C_1  and  N_2
REMARK    2  A    between atoms: N_2  and  C_3
REMARK    3  A    between atoms: N_2  and  C_19
REMARK    4  A    between atoms: C_3  and  C_4
REMARK    5  A    between atoms: C_4  and  C_5
REMARK    6  A    between atoms: C_5  and  N_6
REMARK    7  A    between atoms: C_19  and  C_20
REMARK                            x       y       z     vdW  Elec       q    Type
REMARK                         _______ _______ _______ _____ _____    ______ ____
ROOT
ATOM      1  N   UNL     1       7.223   6.675  17.697  0.00  0.00    +0.000 NA
ATOM      2  C   UNL     1       5.910   7.356  17.530  0.00  0.00    +0.000 C 
ATOM      3  C   UNL     1       4.791   6.459  16.953  0.00  0.00    +0.000 C 
ATOM      4  C   UNL     1       4.731   5.199  17.726  0.00  0.00    +0.000 A 
ATOM      5  C   UNL     1       5.843   4.744  18.396  0.00  0.00    +0.000 A 
ATOM      6  N   UNL     1       5.508   3.571  19.016  0.00  0.00    +0.000 N 
ATOM      7  C   UNL     1       4.171   3.301  18.808  0.00  0.00    +0.000 A 
ATOM      8  C   UNL     1       3.378   2.251  19.289  0.00  0.00    +0.000 A 
ATOM      9  C   UNL     1       2.026   2.247  18.934  0.00  0.00    +0.000 A 
ATOM     10  C   UNL     1       1.490   3.246  18.125  0.00  0.00    +0.000 A 
ATOM     11  C   UNL     1       2.296   4.283  17.644  0.00  0.00    +0.000 A 
ATOM     12  C   UNL     1       3.660   4.313  17.993  0.00  0.00    +0.000 A 
ATOM     13  C   UNL     1       7.155   5.437  18.515  0.00  0.00    +0.000 C 
ATOM     14  H   UNL     1       6.125   3.008  19.582  0.00  0.00    +0.000 HD
ENDROOT
BRANCH   1  15
ATOM     15  C   UNL     1       8.230   7.588  18.281  0.00  0.00    +0.000 C 
BRANCH  15  16
ATOM     16  C   UNL     1       7.972   9.054  17.926  0.00  0.00    +0.000 C 
BRANCH  16  17
ATOM     17  C   UNL     1       9.228   9.925  18.061  0.00  0.00    +0.000 C 
BRANCH  17  19
ATOM     18  C   UNL     1       8.753  12.297  17.814  0.00  0.00    +0.000 C 
ATOM     19  N   UNL     1       8.930  11.190  18.761  0.00  0.00    +0.000 NA
BRANCH  19  20
ATOM     20  C   UNL     1       9.980  11.494  19.755  0.00  0.00    +0.000 C 
BRANCH  20  21
ATOM     21  C   UNL     1       9.450  12.292  20.931  0.00  0.00    +0.000 A 
ATOM     22  C   UNL     1       9.835  13.629  21.113  0.00  0.00    +0.000 A 
ATOM     23  C   UNL     1       9.458  14.324  22.262  0.00  0.00    +0.000 A 
ATOM     24  C   UNL     1       8.685  13.694  23.235  0.00  0.00    +0.000 A 
ATOM     25  C   UNL     1       8.273  12.375  23.053  0.00  0.00    +0.000 A 
ATOM     26  C   UNL     1       8.647  11.677  21.903  0.00  0.00    +0.000 A 
ENDBRANCH  20  21
ENDBRANCH  19  20
ENDBRANCH  17  19
ENDBRANCH  16  17
ENDBRANCH  15  16
ENDBRANCH   1  15
TORSDOF 6
ENDMDL
