MODEL 1
REMARK VINA RESULT:      -6.9      0.000      0.000
REMARK  Name = 
REMARK  18 active torsions:
REMARK  status: ('A' for Active; 'I' for Inactive)
REMARK    1  A    between atoms: C_1  and  C_2
REMARK    2  A    between atoms: C_2  and  C_3
REMARK    3  A    between atoms: C_3  and  C_4
REMARK    4  A    between atoms: C_4  and  C_5
REMARK    5  A    between atoms: C_5  and  C_6
REMARK    6  A    between atoms: C_6  and  O_7
REMARK    7  A    between atoms: O_7  and  C_8
REMARK    8  A    between atoms: C_9  and  O_10
REMARK    9  A    between atoms: O_10  and  C_11
REMARK   10  A    between atoms: C_13  and  C_14
REMARK   11  A    between atoms: C_14  and  O_16
REMARK   12  A    between atoms: O_16  and  C_17
REMARK   13  A    between atoms: C_17  and  C_18
REMARK   14  A    between atoms: C_18  and  C_19
REMARK   15  A    between atoms: C_19  and  C_20
REMARK   16  A    between atoms: C_20  and  N_21
REMARK   17  A    between atoms: C_27  and  O_28
REMARK   18  A    between atoms: O_28  and  C_29
REMARK                            x       y       z     vdW  Elec       q    Type
REMARK                         _______ _______ _______ _____ _____    ______ ____
ROOT
ATOM      1  C   UNL     1       6.627   5.858  17.324  0.00  0.00    +0.000 A 
ATOM      2  C   UNL     1       6.191   5.424  18.611  0.00  0.00    +0.000 A 
ATOM      3  C   UNL     1       5.123   4.524  18.736  0.00  0.00    +0.000 A 
ATOM      4  C   UNL     1       4.444   4.064  17.615  0.00  0.00    +0.000 A 
ATOM      5  C   UNL     1       4.828   4.520  16.357  0.00  0.00    +0.000 A 
ATOM      6  C   UNL     1       5.915   5.394  16.193  0.00  0.00    +0.000 A 
ENDROOT
BRANCH   2   7
ATOM      7  O   UNL     1       6.902   5.759  19.739  0.00  0.00    +0.000 OA
ATOM      8  C   UNL     1       8.195   5.181  19.903  0.00  0.00    +0.000 C 
ENDBRANCH   2   7
BRANCH   4   9
ATOM      9  C   UNL     1       3.467   2.961  17.793  0.00  0.00    +0.000 C 
ATOM     10  O   UNL     1       3.755   1.824  18.140  0.00  0.00    +0.000 OA
BRANCH   9  11
ATOM     11  O   UNL     1       2.266   3.329  17.284  0.00  0.00    +0.000 OA
BRANCH  11  12
ATOM     12  C   UNL     1       1.708   4.457  17.944  0.00  0.00    +0.000 C 
BRANCH  12  13
ATOM     13  C   UNL     1       1.382   4.156  19.401  0.00  0.00    +0.000 C 
BRANCH  13  14
ATOM     14  C   UNL     1       1.835   5.291  20.322  0.00  0.00    +0.000 C 
BRANCH  14  15
ATOM     15  C   UNL     1       2.470   6.462  19.569  0.00  0.00    +0.000 C 
BRANCH  15  16
ATOM     16  N   UNL     1       1.789   7.720  19.849  0.00  0.00    +0.000 N 
ATOM     17  C   UNL     1       1.683   8.728  18.903  0.00  0.00    +0.000 A 
ATOM     18  C   UNL     1       1.024   9.827  19.402  0.00  0.00    +0.000 A 
ATOM     19  S   UNL     1       0.558   9.554  21.035  0.00  0.00    +0.000 S 
ATOM     20  C   UNL     1       1.256   7.993  21.025  0.00  0.00    +0.000 A 
ENDBRANCH  15  16
ENDBRANCH  14  15
ENDBRANCH  13  14
ENDBRANCH  12  13
ENDBRANCH  11  12
ENDBRANCH   9  11
ENDBRANCH   4   9
BRANCH   6  21
ATOM     21  O   UNL     1       6.123   5.622  14.857  0.00  0.00    +0.000 OA
ATOM     22  C   UNL     1       6.708   4.626  14.036  0.00  0.00    +0.000 C 
ENDBRANCH   6  21
BRANCH   1  23
ATOM     23  O   UNL     1       7.702   6.690  17.077  0.00  0.00    +0.000 OA
BRANCH  23  24
ATOM     24  C   UNL     1       7.565   8.069  17.417  0.00  0.00    +0.000 C 
BRANCH  24  25
ATOM     25  C   UNL     1       8.542   8.515  18.506  0.00  0.00    +0.000 C 
BRANCH  25  26
ATOM     26  C   UNL     1       8.765  10.029  18.377  0.00  0.00    +0.000 C 
BRANCH  26  27
ATOM     27  C   UNL     1       9.507  10.631  19.566  0.00  0.00    +0.000 C 
BRANCH  27  29
ATOM     28  C   UNL     1      10.797  11.695  17.674  0.00  0.00    +0.000 C 
ATOM     29  C   UNL     1      10.371  11.819  19.127  0.00  0.00    +0.000 C 
ENDBRANCH  27  29
ENDBRANCH  26  27
ENDBRANCH  25  26
ENDBRANCH  24  25
ENDBRANCH  23  24
ENDBRANCH   1  23
TORSDOF 15
ENDMDL
MODEL 2
REMARK VINA RESULT:      -6.5      2.917      6.145
REMARK  Name = 
REMARK  18 active torsions:
REMARK  status: ('A' for Active; 'I' for Inactive)
REMARK    1  A    between atoms: C_1  and  C_2
REMARK    2  A    between atoms: C_2  and  C_3
REMARK    3  A    between atoms: C_3  and  C_4
REMARK    4  A    between atoms: C_4  and  C_5
REMARK    5  A    between atoms: C_5  and  C_6
REMARK    6  A    between atoms: C_6  and  O_7
REMARK    7  A    between atoms: O_7  and  C_8
REMARK    8  A    between atoms: C_9  and  O_10
REMARK    9  A    between atoms: O_10  and  C_11
REMARK   10  A    between atoms: C_13  and  C_14
REMARK   11  A    between atoms: C_14  and  O_16
REMARK   12  A    between atoms: O_16  and  C_17
REMARK   13  A    between atoms: C_17  and  C_18
REMARK   14  A    between atoms: C_18  and  C_19
REMARK   15  A    between atoms: C_19  and  C_20
REMARK   16  A    between atoms: C_20  and  N_21
REMARK   17  A    between atoms: C_27  and  O_28
REMARK   18  A    between atoms: O_28  and  C_29
REMARK                            x       y       z     vdW  Elec       q    Type
REMARK                         _______ _______ _______ _____ _____    ______ ____
ROOT
ATOM      1  C   UNL     1       5.339   4.771  16.725  0.00  0.00    +0.000 A 
ATOM      2  C   UNL     1       5.440   6.192  16.798  0.00  0.00    +0.000 A 
ATOM      3  C   UNL     1       4.443   6.945  17.437  0.00  0.00    +0.000 A 
ATOM      4  C   UNL     1       3.323   6.329  17.978  0.00  0.00    +0.000 A 
ATOM      5  C   UNL     1       3.189   4.948  17.867  0.00  0.00    +0.000 A 
ATOM      6  C   UNL     1       4.184   4.160  17.266  0.00  0.00    +0.000 A 
ENDROOT
BRANCH   2   7
ATOM      7  O   UNL     1       6.582   6.834  16.382  0.00  0.00    +0.000 OA
ATOM      8  C   UNL     1       7.458   7.346  17.384  0.00  0.00    +0.000 C 
ENDBRANCH   2   7
BRANCH   4   9
ATOM      9  C   UNL     1       2.412   7.148  18.817  0.00  0.00    +0.000 C 
ATOM     10  O   UNL     1       2.032   6.840  19.938  0.00  0.00    +0.000 OA
BRANCH   9  11
ATOM     11  O   UNL     1       1.879   8.147  18.071  0.00  0.00    +0.000 OA
BRANCH  11  12
ATOM     12  C   UNL     1       1.393   9.226  18.858  0.00  0.00    +0.000 C 
BRANCH  12  13
ATOM     13  C   UNL     1       0.269   9.976  18.157  0.00  0.00    +0.000 C 
BRANCH  13  14
ATOM     14  C   UNL     1      -0.890  10.269  19.112  0.00  0.00    +0.000 C 
BRANCH  14  15
ATOM     15  C   UNL     1      -0.466  10.304  20.582  0.00  0.00    +0.000 C 
BRANCH  15  16
ATOM     16  N   UNL     1      -1.018  11.460  21.278  0.00  0.00    +0.000 N 
ATOM     17  C   UNL     1      -1.842  12.378  20.645  0.00  0.00    +0.000 A 
ATOM     18  C   UNL     1      -2.216  13.395  21.492  0.00  0.00    +0.000 A 
ATOM     19  S   UNL     1      -1.524  13.161  23.049  0.00  0.00    +0.000 S 
ATOM     20  C   UNL     1      -0.745  11.725  22.542  0.00  0.00    +0.000 A 
ENDBRANCH  15  16
ENDBRANCH  14  15
ENDBRANCH  13  14
ENDBRANCH  12  13
ENDBRANCH  11  12
ENDBRANCH   9  11
ENDBRANCH   4   9
BRANCH   6  21
ATOM     21  O   UNL     1       3.839   2.837  17.357  0.00  0.00    +0.000 OA
ATOM     22  C   UNL     1       2.536   2.456  17.765  0.00  0.00    +0.000 C 
ENDBRANCH   6  21
BRANCH   1  23
ATOM     23  O   UNL     1       6.285   3.924  16.178  0.00  0.00    +0.000 OA
BRANCH  23  24
ATOM     24  C   UNL     1       6.714   4.183  14.842  0.00  0.00    +0.000 C 
BRANCH  24  25
ATOM     25  C   UNL     1       5.610   3.965  13.807  0.00  0.00    +0.000 C 
BRANCH  25  26
ATOM     26  C   UNL     1       6.245   3.427  12.517  0.00  0.00    +0.000 C 
BRANCH  26  27
ATOM     27  C   UNL     1       5.240   2.760  11.583  0.00  0.00    +0.000 C 
BRANCH  27  29
ATOM     28  C   UNL     1       3.117   3.100  10.259  0.00  0.00    +0.000 C 
ATOM     29  C   UNL     1       4.062   3.696  11.290  0.00  0.00    +0.000 C 
ENDBRANCH  27  29
ENDBRANCH  26  27
ENDBRANCH  25  26
ENDBRANCH  24  25
ENDBRANCH  23  24
ENDBRANCH   1  23
TORSDOF 15
ENDMDL
MODEL 3
REMARK VINA RESULT:      -6.5      2.568      6.020
REMARK  Name = 
REMARK  18 active torsions:
REMARK  status: ('A' for Active; 'I' for Inactive)
REMARK    1  A    between atoms: C_1  and  C_2
REMARK    2  A    between atoms: C_2  and  C_3
REMARK    3  A    between atoms: C_3  and  C_4
REMARK    4  A    between atoms: C_4  and  C_5
REMARK    5  A    between atoms: C_5  and  C_6
REMARK    6  A    between atoms: C_6  and  O_7
REMARK    7  A    between atoms: O_7  and  C_8
REMARK    8  A    between atoms: C_9  and  O_10
REMARK    9  A    between atoms: O_10  and  C_11
REMARK   10  A    between atoms: C_13  and  C_14
REMARK   11  A    between atoms: C_14  and  O_16
REMARK   12  A    between atoms: O_16  and  C_17
REMARK   13  A    between atoms: C_17  and  C_18
REMARK   14  A    between atoms: C_18  and  C_19
REMARK   15  A    between atoms: C_19  and  C_20
REMARK   16  A    between atoms: C_20  and  N_21
REMARK   17  A    between atoms: C_27  and  O_28
REMARK   18  A    between atoms: O_28  and  C_29
REMARK                            x       y       z     vdW  Elec       q    Type
REMARK                         _______ _______ _______ _____ _____    ______ ____
ROOT
ATOM      1  C   UNL     1       5.545   4.610  16.714  0.00  0.00    +0.000 A 
ATOM      2  C   UNL     1       4.288   4.160  17.216  0.00  0.00    +0.000 A 
ATOM      3  C   UNL     1       3.434   5.043  17.894  0.00  0.00    +0.000 A 
ATOM      4  C   UNL     1       3.809   6.360  18.124  0.00  0.00    +0.000 A 
ATOM      5  C   UNL     1       5.055   6.796  17.685  0.00  0.00    +0.000 A 
ATOM      6  C   UNL     1       5.920   5.950  16.971  0.00  0.00    +0.000 A 
ENDROOT
BRANCH   2   7
ATOM      7  O   UNL     1       3.824   2.902  16.912  0.00  0.00    +0.000 OA
ATOM      8  C   UNL     1       2.661   2.441  17.597  0.00  0.00    +0.000 C 
ENDBRANCH   2   7
BRANCH   4   9
ATOM      9  C   UNL     1       2.786   7.294  18.658  0.00  0.00    +0.000 C 
ATOM     10  O   UNL     1       2.461   7.373  19.835  0.00  0.00    +0.000 OA
BRANCH   9  11
ATOM     11  O   UNL     1       2.104   7.859  17.631  0.00  0.00    +0.000 OA
BRANCH  11  12
ATOM     12  C   UNL     1       1.872   9.248  17.819  0.00  0.00    +0.000 C 
BRANCH  12  13
ATOM     13  C   UNL     1       0.386   9.579  17.819  0.00  0.00    +0.000 C 
BRANCH  13  14
ATOM     14  C   UNL     1       0.088  10.815  18.670  0.00  0.00    +0.000 C 
BRANCH  14  15
ATOM     15  C   UNL     1       1.009  10.948  19.885  0.00  0.00    +0.000 C 
BRANCH  15  16
ATOM     16  N   UNL     1       0.297  10.708  21.134  0.00  0.00    +0.000 N 
ATOM     17  C   UNL     1      -0.768  11.498  21.539  0.00  0.00    +0.000 A 
ATOM     18  C   UNL     1      -1.262  11.100  22.759  0.00  0.00    +0.000 A 
ATOM     19  S   UNL     1      -0.377   9.749  23.350  0.00  0.00    +0.000 S 
ATOM     20  C   UNL     1       0.636   9.747  21.972  0.00  0.00    +0.000 A 
ENDBRANCH  15  16
ENDBRANCH  14  15
ENDBRANCH  13  14
ENDBRANCH  12  13
ENDBRANCH  11  12
ENDBRANCH   9  11
ENDBRANCH   4   9
BRANCH   6  21
ATOM     21  O   UNL     1       7.038   6.647  16.595  0.00  0.00    +0.000 OA
ATOM     22  C   UNL     1       7.467   7.778  17.333  0.00  0.00    +0.000 C 
ENDBRANCH   6  21
BRANCH   1  23
ATOM     23  O   UNL     1       6.437   3.851  15.981  0.00  0.00    +0.000 OA
BRANCH  23  24
ATOM     24  C   UNL     1       6.643   4.204  14.614  0.00  0.00    +0.000 C 
BRANCH  24  25
ATOM     25  C   UNL     1       5.436   3.888  13.728  0.00  0.00    +0.000 C 
BRANCH  25  26
ATOM     26  C   UNL     1       5.934   3.607  12.303  0.00  0.00    +0.000 C 
BRANCH  26  27
ATOM     27  C   UNL     1       5.027   2.658  11.525  0.00  0.00    +0.000 C 
BRANCH  27  29
ATOM     28  C   UNL     1       3.488   3.934   9.984  0.00  0.00    +0.000 C 
ATOM     29  C   UNL     1       3.631   3.264  11.340  0.00  0.00    +0.000 C 
ENDBRANCH  27  29
ENDBRANCH  26  27
ENDBRANCH  25  26
ENDBRANCH  24  25
ENDBRANCH  23  24
ENDBRANCH   1  23
TORSDOF 15
ENDMDL
MODEL 4
REMARK VINA RESULT:      -6.1      0.936      2.513
REMARK  Name = 
REMARK  18 active torsions:
REMARK  status: ('A' for Active; 'I' for Inactive)
REMARK    1  A    between atoms: C_1  and  C_2
REMARK    2  A    between atoms: C_2  and  C_3
REMARK    3  A    between atoms: C_3  and  C_4
REMARK    4  A    between atoms: C_4  and  C_5
REMARK    5  A    between atoms: C_5  and  C_6
REMARK    6  A    between atoms: C_6  and  O_7
REMARK    7  A    between atoms: O_7  and  C_8
REMARK    8  A    between atoms: C_9  and  O_10
REMARK    9  A    between atoms: O_10  and  C_11
REMARK   10  A    between atoms: C_13  and  C_14
REMARK   11  A    between atoms: C_14  and  O_16
REMARK   12  A    between atoms: O_16  and  C_17
REMARK   13  A    between atoms: C_17  and  C_18
REMARK   14  A    between atoms: C_18  and  C_19
REMARK   15  A    between atoms: C_19  and  C_20
REMARK   16  A    between atoms: C_20  and  N_21
REMARK   17  A    between atoms: C_27  and  O_28
REMARK   18  A    between atoms: O_28  and  C_29
REMARK                            x       y       z     vdW  Elec       q    Type
REMARK                         _______ _______ _______ _____ _____    ______ ____
ROOT
ATOM      1  C   UNL     1       6.375   5.507  17.366  0.00  0.00    +0.000 A 
ATOM      2  C   UNL     1       5.559   4.921  16.353  0.00  0.00    +0.000 A 
ATOM      3  C   UNL     1       4.582   3.971  16.686  0.00  0.00    +0.000 A 
ATOM      4  C   UNL     1       4.412   3.554  17.999  0.00  0.00    +0.000 A 
ATOM      5  C   UNL     1       5.238   4.081  18.989  0.00  0.00    +0.000 A 
ATOM      6  C   UNL     1       6.202   5.060  18.697  0.00  0.00    +0.000 A 
ENDROOT
BRANCH   2   7
ATOM      7  O   UNL     1       5.609   5.385  15.060  0.00  0.00    +0.000 OA
ATOM      8  C   UNL     1       6.310   4.598  14.100  0.00  0.00    +0.000 C 
ENDBRANCH   2   7
BRANCH   4   9
ATOM      9  C   UNL     1       3.233   2.710  18.318  0.00  0.00    +0.000 C 
ATOM     10  O   UNL     1       2.683   1.955  17.528  0.00  0.00    +0.000 OA
BRANCH   9  11
ATOM     11  O   UNL     1       2.718   3.081  19.516  0.00  0.00    +0.000 OA
BRANCH  11  12
ATOM     12  C   UNL     1       1.972   4.288  19.445  0.00  0.00    +0.000 C 
BRANCH  12  13
ATOM     13  C   UNL     1       1.946   5.017  20.782  0.00  0.00    +0.000 C 
BRANCH  13  14
ATOM     14  C   UNL     1       1.421   6.446  20.631  0.00  0.00    +0.000 C 
BRANCH  14  15
ATOM     15  C   UNL     1       2.245   7.292  19.659  0.00  0.00    +0.000 C 
BRANCH  15  16
ATOM     16  N   UNL     1       1.647   8.604  19.441  0.00  0.00    +0.000 N 
ATOM     17  C   UNL     1       1.791   9.290  18.245  0.00  0.00    +0.000 A 
ATOM     18  C   UNL     1       1.165  10.514  18.282  0.00  0.00    +0.000 A 
ATOM     19  S   UNL     1       0.416  10.756  19.811  0.00  0.00    +0.000 S 
ATOM     20  C   UNL     1       0.958   9.234  20.373  0.00  0.00    +0.000 A 
ENDBRANCH  15  16
ENDBRANCH  14  15
ENDBRANCH  13  14
ENDBRANCH  12  13
ENDBRANCH  11  12
ENDBRANCH   9  11
ENDBRANCH   4   9
BRANCH   6  21
ATOM     21  O   UNL     1       6.817   5.457  19.855  0.00  0.00    +0.000 OA
ATOM     22  C   UNL     1       8.220   5.325  20.010  0.00  0.00    +0.000 C 
ENDBRANCH   6  21
BRANCH   1  23
ATOM     23  O   UNL     1       7.322   6.493  17.166  0.00  0.00    +0.000 OA
BRANCH  23  24
ATOM     24  C   UNL     1       6.966   7.834  17.498  0.00  0.00    +0.000 C 
BRANCH  24  25
ATOM     25  C   UNL     1       8.158   8.791  17.479  0.00  0.00    +0.000 C 
BRANCH  25  26
ATOM     26  C   UNL     1       8.744   8.874  18.896  0.00  0.00    +0.000 C 
BRANCH  26  27
ATOM     27  C   UNL     1       9.269  10.262  19.250  0.00  0.00    +0.000 C 
BRANCH  27  29
ATOM     28  C   UNL     1       9.561  12.626  18.410  0.00  0.00    +0.000 C 
ATOM     29  C   UNL     1       9.210  11.196  18.035  0.00  0.00    +0.000 C 
ENDBRANCH  27  29
ENDBRANCH  26  27
ENDBRANCH  25  26
ENDBRANCH  24  25
ENDBRANCH  23  24
ENDBRANCH   1  23
TORSDOF 15
ENDMDL
MODEL 5
REMARK VINA RESULT:      -6.1      2.659      5.910
REMARK  Name = 
REMARK  18 active torsions:
REMARK  status: ('A' for Active; 'I' for Inactive)
REMARK    1  A    between atoms: C_1  and  C_2
REMARK    2  A    between atoms: C_2  and  C_3
REMARK    3  A    between atoms: C_3  and  C_4
REMARK    4  A    between atoms: C_4  and  C_5
REMARK    5  A    between atoms: C_5  and  C_6
REMARK    6  A    between atoms: C_6  and  O_7
REMARK    7  A    between atoms: O_7  and  C_8
REMARK    8  A    between atoms: C_9  and  O_10
REMARK    9  A    between atoms: O_10  and  C_11
REMARK   10  A    between atoms: C_13  and  C_14
REMARK   11  A    between atoms: C_14  and  O_16
REMARK   12  A    between atoms: O_16  and  C_17
REMARK   13  A    between atoms: C_17  and  C_18
REMARK   14  A    between atoms: C_18  and  C_19
REMARK   15  A    between atoms: C_19  and  C_20
REMARK   16  A    between atoms: C_20  and  N_21
REMARK   17  A    between atoms: C_27  and  O_28
REMARK   18  A    between atoms: O_28  and  C_29
REMARK                            x       y       z     vdW  Elec       q    Type
REMARK                         _______ _______ _______ _____ _____    ______ ____
ROOT
ATOM      1  C   UNL     1       4.864   5.260  17.284  0.00  0.00    +0.000 A 
ATOM      2  C   UNL     1       3.554   4.991  17.781  0.00  0.00    +0.000 A 
ATOM      3  C   UNL     1       2.672   6.042  18.074  0.00  0.00    +0.000 A 
ATOM      4  C   UNL     1       3.066   7.364  17.922  0.00  0.00    +0.000 A 
ATOM      5  C   UNL     1       4.359   7.641  17.487  0.00  0.00    +0.000 A 
ATOM      6  C   UNL     1       5.256   6.613  17.151  0.00  0.00    +0.000 A 
ENDROOT
BRANCH   2   7
ATOM      7  O   UNL     1       3.079   3.702  17.837  0.00  0.00    +0.000 OA
ATOM      8  C   UNL     1       3.347   2.947  19.017  0.00  0.00    +0.000 C 
ENDBRANCH   2   7
BRANCH   4   9
ATOM      9  C   UNL     1       2.030   8.421  18.046  0.00  0.00    +0.000 C 
ATOM     10  O   UNL     1       2.075   9.509  17.490  0.00  0.00    +0.000 OA
BRANCH   9  11
ATOM     11  O   UNL     1       1.170   8.100  19.043  0.00  0.00    +0.000 OA
BRANCH  11  12
ATOM     12  C   UNL     1       1.679   8.413  20.333  0.00  0.00    +0.000 C 
BRANCH  12  13
ATOM     13  C   UNL     1       0.610   8.284  21.410  0.00  0.00    +0.000 C 
BRANCH  13  14
ATOM     14  C   UNL     1       0.637   9.474  22.371  0.00  0.00    +0.000 C 
BRANCH  14  15
ATOM     15  C   UNL     1      -0.441  10.517  22.068  0.00  0.00    +0.000 C 
BRANCH  15  16
ATOM     16  N   UNL     1      -0.178  11.221  20.818  0.00  0.00    +0.000 N 
ATOM     17  C   UNL     1      -1.006  11.096  19.713  0.00  0.00    +0.000 A 
ATOM     18  C   UNL     1      -0.543  11.829  18.645  0.00  0.00    +0.000 A 
ATOM     19  S   UNL     1       0.908  12.650  19.068  0.00  0.00    +0.000 S 
ATOM     20  C   UNL     1       0.876  11.996  20.648  0.00  0.00    +0.000 A 
ENDBRANCH  15  16
ENDBRANCH  14  15
ENDBRANCH  13  14
ENDBRANCH  12  13
ENDBRANCH  11  12
ENDBRANCH   9  11
ENDBRANCH   4   9
BRANCH   6  21
ATOM     21  O   UNL     1       6.424   7.157  16.683  0.00  0.00    +0.000 OA
ATOM     22  C   UNL     1       7.539   7.322  17.542  0.00  0.00    +0.000 C 
ENDBRANCH   6  21
BRANCH   1  23
ATOM     23  O   UNL     1       5.792   4.310  16.906  0.00  0.00    +0.000 OA
BRANCH  23  24
ATOM     24  C   UNL     1       5.594   3.649  15.656  0.00  0.00    +0.000 C 
BRANCH  24  25
ATOM     25  C   UNL     1       6.357   4.308  14.506  0.00  0.00    +0.000 C 
BRANCH  25  26
ATOM     26  C   UNL     1       5.562   4.102  13.208  0.00  0.00    +0.000 C 
BRANCH  26  27
ATOM     27  C   UNL     1       6.267   3.189  12.209  0.00  0.00    +0.000 C 
BRANCH  27  29
ATOM     28  C   UNL     1       3.923   3.182  11.270  0.00  0.00    +0.000 C 
ATOM     29  C   UNL     1       5.250   2.445  11.336  0.00  0.00    +0.000 C 
ENDBRANCH  27  29
ENDBRANCH  26  27
ENDBRANCH  25  26
ENDBRANCH  24  25
ENDBRANCH  23  24
ENDBRANCH   1  23
TORSDOF 15
ENDMDL
MODEL 6
REMARK VINA RESULT:      -6.1      3.127      6.178
REMARK  Name = 
REMARK  18 active torsions:
REMARK  status: ('A' for Active; 'I' for Inactive)
REMARK    1  A    between atoms: C_1  and  C_2
REMARK    2  A    between atoms: C_2  and  C_3
REMARK    3  A    between atoms: C_3  and  C_4
REMARK    4  A    between atoms: C_4  and  C_5
REMARK    5  A    between atoms: C_5  and  C_6
REMARK    6  A    between atoms: C_6  and  O_7
REMARK    7  A    between atoms: O_7  and  C_8
REMARK    8  A    between atoms: C_9  and  O_10
REMARK    9  A    between atoms: O_10  and  C_11
REMARK   10  A    between atoms: C_13  and  C_14
REMARK   11  A    between atoms: C_14  and  O_16
REMARK   12  A    between atoms: O_16  and  C_17
REMARK   13  A    between atoms: C_17  and  C_18
REMARK   14  A    between atoms: C_18  and  C_19
REMARK   15  A    between atoms: C_19  and  C_20
REMARK   16  A    between atoms: C_20  and  N_21
REMARK   17  A    between atoms: C_27  and  O_28
REMARK   18  A    between atoms: O_28  and  C_29
REMARK                            x       y       z     vdW  Elec       q    Type
REMARK                         _______ _______ _______ _____ _____    ______ ____
ROOT
ATOM      1  C   UNL     1       5.059   5.205  16.892  0.00  0.00    +0.000 A 
ATOM      2  C   UNL     1       5.236   6.621  16.904  0.00  0.00    +0.000 A 
ATOM      3  C   UNL     1       4.251   7.458  17.449  0.00  0.00    +0.000 A 
ATOM      4  C   UNL     1       3.069   6.931  17.954  0.00  0.00    +0.000 A 
ATOM      5  C   UNL     1       2.863   5.555  17.900  0.00  0.00    +0.000 A 
ATOM      6  C   UNL     1       3.844   4.685  17.395  0.00  0.00    +0.000 A 
ENDROOT
BRANCH   2   7
ATOM      7  O   UNL     1       6.433   7.179  16.524  0.00  0.00    +0.000 OA
ATOM      8  C   UNL     1       7.427   7.367  17.530  0.00  0.00    +0.000 C 
ENDBRANCH   2   7
BRANCH   4   9
ATOM      9  C   UNL     1       2.162   7.839  18.701  0.00  0.00    +0.000 C 
ATOM     10  O   UNL     1       1.901   8.988  18.372  0.00  0.00    +0.000 OA
BRANCH   9  11
ATOM     11  O   UNL     1       1.872   7.298  19.910  0.00  0.00    +0.000 OA
BRANCH  11  12
ATOM     12  C   UNL     1       1.637   8.279  20.911  0.00  0.00    +0.000 C 
BRANCH  12  13
ATOM     13  C   UNL     1       0.201   8.241  21.415  0.00  0.00    +0.000 C 
BRANCH  13  14
ATOM     14  C   UNL     1      -0.160   9.520  22.174  0.00  0.00    +0.000 C 
BRANCH  14  15
ATOM     15  C   UNL     1      -0.116  10.774  21.298  0.00  0.00    +0.000 C 
BRANCH  15  16
ATOM     16  N   UNL     1      -0.685  11.931  21.979  0.00  0.00    +0.000 N 
ATOM     17  C   UNL     1      -0.075  13.176  21.954  0.00  0.00    +0.000 A 
ATOM     18  C   UNL     1      -0.779  14.102  22.687  0.00  0.00    +0.000 A 
ATOM     19  S   UNL     1      -2.179  13.380  23.376  0.00  0.00    +0.000 S 
ATOM     20  C   UNL     1      -1.797  11.862  22.687  0.00  0.00    +0.000 A 
ENDBRANCH  15  16
ENDBRANCH  14  15
ENDBRANCH  13  14
ENDBRANCH  12  13
ENDBRANCH  11  12
ENDBRANCH   9  11
ENDBRANCH   4   9
BRANCH   6  21
ATOM     21  O   UNL     1       3.419   3.389  17.528  0.00  0.00    +0.000 OA
ATOM     22  C   UNL     1       2.098   3.100  17.952  0.00  0.00    +0.000 C 
ENDBRANCH   6  21
BRANCH   1  23
ATOM     23  O   UNL     1       5.984   4.283  16.440  0.00  0.00    +0.000 OA
BRANCH  23  24
ATOM     24  C   UNL     1       6.519   4.466  15.131  0.00  0.00    +0.000 C 
BRANCH  24  25
ATOM     25  C   UNL     1       5.515   4.140  14.024  0.00  0.00    +0.000 C 
BRANCH  25  26
ATOM     26  C   UNL     1       6.188   3.200  13.012  0.00  0.00    +0.000 C 
BRANCH  26  27
ATOM     27  C   UNL     1       5.563   3.267  11.622  0.00  0.00    +0.000 C 
BRANCH  27  29
ATOM     28  C   UNL     1       3.412   3.602  10.342  0.00  0.00    +0.000 C 
ATOM     29  C   UNL     1       4.040   3.410  11.713  0.00  0.00    +0.000 C 
ENDBRANCH  27  29
ENDBRANCH  26  27
ENDBRANCH  25  26
ENDBRANCH  24  25
ENDBRANCH  23  24
ENDBRANCH   1  23
TORSDOF 15
ENDMDL
MODEL 7
REMARK VINA RESULT:      -6.1      1.120      1.589
REMARK  Name = 
REMARK  18 active torsions:
REMARK  status: ('A' for Active; 'I' for Inactive)
REMARK    1  A    between atoms: C_1  and  C_2
REMARK    2  A    between atoms: C_2  and  C_3
REMARK    3  A    between atoms: C_3  and  C_4
REMARK    4  A    between atoms: C_4  and  C_5
REMARK    5  A    between atoms: C_5  and  C_6
REMARK    6  A    between atoms: C_6  and  O_7
REMARK    7  A    between atoms: O_7  and  C_8
REMARK    8  A    between atoms: C_9  and  O_10
REMARK    9  A    between atoms: O_10  and  C_11
REMARK   10  A    between atoms: C_13  and  C_14
REMARK   11  A    between atoms: C_14  and  O_16
REMARK   12  A    between atoms: O_16  and  C_17
REMARK   13  A    between atoms: C_17  and  C_18
REMARK   14  A    between atoms: C_18  and  C_19
REMARK   15  A    between atoms: C_19  and  C_20
REMARK   16  A    between atoms: C_20  and  N_21
REMARK   17  A    between atoms: C_27  and  O_28
REMARK   18  A    between atoms: O_28  and  C_29
REMARK                            x       y       z     vdW  Elec       q    Type
REMARK                         _______ _______ _______ _____ _____    ______ ____
ROOT
ATOM      1  C   UNL     1       6.494   4.922  17.592  0.00  0.00    +0.000 A 
ATOM      2  C   UNL     1       6.056   4.913  18.950  0.00  0.00    +0.000 A 
ATOM      3  C   UNL     1       4.957   4.132  19.339  0.00  0.00    +0.000 A 
ATOM      4  C   UNL     1       4.253   3.381  18.407  0.00  0.00    +0.000 A 
ATOM      5  C   UNL     1       4.640   3.422  17.070  0.00  0.00    +0.000 A 
ATOM      6  C   UNL     1       5.756   4.165  16.652  0.00  0.00    +0.000 A 
ENDROOT
BRANCH   2   7
ATOM      7  O   UNL     1       6.789   5.545  19.925  0.00  0.00    +0.000 OA
ATOM      8  C   UNL     1       8.173   5.218  20.032  0.00  0.00    +0.000 C 
ENDBRANCH   2   7
BRANCH   4   9
ATOM      9  C   UNL     1       3.238   2.419  18.908  0.00  0.00    +0.000 C 
ATOM     10  O   UNL     1       2.569   1.680  18.199  0.00  0.00    +0.000 OA
BRANCH   9  11
ATOM     11  O   UNL     1       2.994   2.656  20.220  0.00  0.00    +0.000 OA
BRANCH  11  12
ATOM     12  C   UNL     1       1.625   2.926  20.488  0.00  0.00    +0.000 C 
BRANCH  12  13
ATOM     13  C   UNL     1       1.171   4.233  19.853  0.00  0.00    +0.000 C 
BRANCH  13  14
ATOM     14  C   UNL     1       1.711   5.443  20.618  0.00  0.00    +0.000 C 
BRANCH  14  15
ATOM     15  C   UNL     1       2.403   6.467  19.715  0.00  0.00    +0.000 C 
BRANCH  15  16
ATOM     16  N   UNL     1       1.819   7.796  19.856  0.00  0.00    +0.000 N 
ATOM     17  C   UNL     1       1.257   8.232  21.046  0.00  0.00    +0.000 A 
ATOM     18  C   UNL     1       0.748   9.504  20.932  0.00  0.00    +0.000 A 
ATOM     19  S   UNL     1       0.996  10.107  19.340  0.00  0.00    +0.000 S 
ATOM     20  C   UNL     1       1.761   8.655  18.856  0.00  0.00    +0.000 A 
ENDBRANCH  15  16
ENDBRANCH  14  15
ENDBRANCH  13  14
ENDBRANCH  12  13
ENDBRANCH  11  12
ENDBRANCH   9  11
ENDBRANCH   4   9
BRANCH   6  21
ATOM     21  O   UNL     1       5.959   3.973  15.311  0.00  0.00    +0.000 OA
ATOM     22  C   UNL     1       5.248   4.739  14.354  0.00  0.00    +0.000 C 
ENDBRANCH   6  21
BRANCH   1  23
ATOM     23  O   UNL     1       7.596   5.602  17.107  0.00  0.00    +0.000 OA
BRANCH  23  24
ATOM     24  C   UNL     1       7.383   6.896  16.545  0.00  0.00    +0.000 C 
BRANCH  24  25
ATOM     25  C   UNL     1       7.072   7.960  17.599  0.00  0.00    +0.000 C 
BRANCH  25  26
ATOM     26  C   UNL     1       8.392   8.425  18.232  0.00  0.00    +0.000 C 
BRANCH  26  27
ATOM     27  C   UNL     1       8.573   9.939  18.205  0.00  0.00    +0.000 C 
BRANCH  27  29
ATOM     28  C   UNL     1       9.246  11.526  20.049  0.00  0.00    +0.000 C 
ATOM     29  C   UNL     1       9.688  10.375  19.161  0.00  0.00    +0.000 C 
ENDBRANCH  27  29
ENDBRANCH  26  27
ENDBRANCH  25  26
ENDBRANCH  24  25
ENDBRANCH  23  24
ENDBRANCH   1  23
TORSDOF 15
ENDMDL
MODEL 8
REMARK VINA RESULT:      -6.0      2.900      7.748
REMARK  Name = 
REMARK  18 active torsions:
REMARK  status: ('A' for Active; 'I' for Inactive)
REMARK    1  A    between atoms: C_1  and  C_2
REMARK    2  A    between atoms: C_2  and  C_3
REMARK    3  A    between atoms: C_3  and  C_4
REMARK    4  A    between atoms: C_4  and  C_5
REMARK    5  A    between atoms: C_5  and  C_6
REMARK    6  A    between atoms: C_6  and  O_7
REMARK    7  A    between atoms: O_7  and  C_8
REMARK    8  A    between atoms: C_9  and  O_10
REMARK    9  A    between atoms: O_10  and  C_11
REMARK   10  A    between atoms: C_13  and  C_14
REMARK   11  A    between atoms: C_14  and  O_16
REMARK   12  A    between atoms: O_16  and  C_17
REMARK   13  A    between atoms: C_17  and  C_18
REMARK   14  A    between atoms: C_18  and  C_19
REMARK   15  A    between atoms: C_19  and  C_20
REMARK   16  A    between atoms: C_20  and  N_21
REMARK   17  A    between atoms: C_27  and  O_28
REMARK   18  A    between atoms: O_28  and  C_29
REMARK                            x       y       z     vdW  Elec       q    Type
REMARK                         _______ _______ _______ _____ _____    ______ ____
ROOT
ATOM      1  C   UNL     1       4.614   5.112  16.724  0.00  0.00    +0.000 A 
ATOM      2  C   UNL     1       5.947   4.885  16.269  0.00  0.00    +0.000 A 
ATOM      3  C   UNL     1       6.980   5.767  16.620  0.00  0.00    +0.000 A 
ATOM      4  C   UNL     1       6.722   6.897  17.385  0.00  0.00    +0.000 A 
ATOM      5  C   UNL     1       5.416   7.156  17.791  0.00  0.00    +0.000 A 
ATOM      6  C   UNL     1       4.364   6.276  17.488  0.00  0.00    +0.000 A 
ENDROOT
BRANCH   2   7
ATOM      7  O   UNL     1       6.273   3.723  15.610  0.00  0.00    +0.000 OA
ATOM      8  C   UNL     1       6.235   3.736  14.185  0.00  0.00    +0.000 C 
ENDBRANCH   2   7
BRANCH   4   9
ATOM      9  C   UNL     1       7.879   7.675  17.896  0.00  0.00    +0.000 C 
ATOM     10  O   UNL     1       8.549   7.366  18.872  0.00  0.00    +0.000 OA
BRANCH   9  11
ATOM     11  O   UNL     1       7.925   8.881  17.280  0.00  0.00    +0.000 OA
BRANCH  11  12
ATOM     12  C   UNL     1       8.193   9.950  18.178  0.00  0.00    +0.000 C 
BRANCH  12  13
ATOM     13  C   UNL     1       9.543  10.597  17.902  0.00  0.00    +0.000 C 
BRANCH  13  14
ATOM     14  C   UNL     1      10.173  11.147  19.183  0.00  0.00    +0.000 C 
BRANCH  14  15
ATOM     15  C   UNL     1       9.373  10.808  20.442  0.00  0.00    +0.000 C 
BRANCH  15  16
ATOM     16  N   UNL     1       8.944  12.008  21.151  0.00  0.00    +0.000 N 
ATOM     17  C   UNL     1       8.934  13.256  20.549  0.00  0.00    +0.000 A 
ATOM     18  C   UNL     1       8.518  14.237  21.419  0.00  0.00    +0.000 A 
ATOM     19  S   UNL     1       8.152  13.557  22.956  0.00  0.00    +0.000 S 
ATOM     20  C   UNL     1       8.568  11.988  22.416  0.00  0.00    +0.000 A 
ENDBRANCH  15  16
ENDBRANCH  14  15
ENDBRANCH  13  14
ENDBRANCH  12  13
ENDBRANCH  11  12
ENDBRANCH   9  11
ENDBRANCH   4   9
BRANCH   6  21
ATOM     21  O   UNL     1       3.207   6.726  18.068  0.00  0.00    +0.000 OA
ATOM     22  C   UNL     1       2.759   8.053  17.853  0.00  0.00    +0.000 C 
ENDBRANCH   6  21
BRANCH   1  23
ATOM     23  O   UNL     1       3.534   4.282  16.494  0.00  0.00    +0.000 OA
BRANCH  23  24
ATOM     24  C   UNL     1       3.215   3.315  17.493  0.00  0.00    +0.000 C 
BRANCH  24  25
ATOM     25  C   UNL     1       1.731   3.307  17.864  0.00  0.00    +0.000 C 
BRANCH  25  26
ATOM     26  C   UNL     1       1.499   4.334  18.982  0.00  0.00    +0.000 C 
BRANCH  26  27
ATOM     27  C   UNL     1       0.816   3.742  20.211  0.00  0.00    +0.000 C 
BRANCH  27  29
ATOM     28  C   UNL     1       2.527   2.729  21.767  0.00  0.00    +0.000 C 
ATOM     29  C   UNL     1       1.520   2.457  20.663  0.00  0.00    +0.000 C 
ENDBRANCH  27  29
ENDBRANCH  26  27
ENDBRANCH  25  26
ENDBRANCH  24  25
ENDBRANCH  23  24
ENDBRANCH   1  23
TORSDOF 15
ENDMDL
MODEL 9
REMARK VINA RESULT:      -5.9      3.225      6.325
REMARK  Name = 
REMARK  18 active torsions:
REMARK  status: ('A' for Active; 'I' for Inactive)
REMARK    1  A    between atoms: C_1  and  C_2
REMARK    2  A    between atoms: C_2  and  C_3
REMARK    3  A    between atoms: C_3  and  C_4
REMARK    4  A    between atoms: C_4  and  C_5
REMARK    5  A    between atoms: C_5  and  C_6
REMARK    6  A    between atoms: C_6  and  O_7
REMARK    7  A    between atoms: O_7  and  C_8
REMARK    8  A    between atoms: C_9  and  O_10
REMARK    9  A    between atoms: O_10  and  C_11
REMARK   10  A    between atoms: C_13  and  C_14
REMARK   11  A    between atoms: C_14  and  O_16
REMARK   12  A    between atoms: O_16  and  C_17
REMARK   13  A    between atoms: C_17  and  C_18
REMARK   14  A    between atoms: C_18  and  C_19
REMARK   15  A    between atoms: C_19  and  C_20
REMARK   16  A    between atoms: C_20  and  N_21
REMARK   17  A    between atoms: C_27  and  O_28
REMARK   18  A    between atoms: O_28  and  C_29
REMARK                            x       y       z     vdW  Elec       q    Type
REMARK                         _______ _______ _______ _____ _____    ______ ____
ROOT
ATOM      1  C   UNL     1       4.825   4.921  16.936  0.00  0.00    +0.000 A 
ATOM      2  C   UNL     1       4.834   6.346  16.997  0.00  0.00    +0.000 A 
ATOM      3  C   UNL     1       3.961   7.029  17.856  0.00  0.00    +0.000 A 
ATOM      4  C   UNL     1       3.045   6.336  18.638  0.00  0.00    +0.000 A 
ATOM      5  C   UNL     1       2.992   4.948  18.548  0.00  0.00    +0.000 A 
ATOM      6  C   UNL     1       3.876   4.230  17.725  0.00  0.00    +0.000 A 
ENDROOT
BRANCH   2   7
ATOM      7  O   UNL     1       5.797   7.068  16.332  0.00  0.00    +0.000 OA
ATOM      8  C   UNL     1       7.020   7.330  17.018  0.00  0.00    +0.000 C 
ENDBRANCH   2   7
BRANCH   4   9
ATOM      9  C   UNL     1       2.297   7.092  19.674  0.00  0.00    +0.000 C 
ATOM     10  O   UNL     1       1.583   6.584  20.527  0.00  0.00    +0.000 OA
BRANCH   9  11
ATOM     11  O   UNL     1       2.327   8.416  19.382  0.00  0.00    +0.000 OA
BRANCH  11  12
ATOM     12  C   UNL     1       1.294   8.807  18.487  0.00  0.00    +0.000 C 
BRANCH  12  13
ATOM     13  C   UNL     1       0.707  10.162  18.858  0.00  0.00    +0.000 C 
BRANCH  13  14
ATOM     14  C   UNL     1      -0.751  10.036  19.305  0.00  0.00    +0.000 C 
BRANCH  14  15
ATOM     15  C   UNL     1      -1.612  11.234  18.896  0.00  0.00    +0.000 C 
BRANCH  15  16
ATOM     16  N   UNL     1      -2.386  10.958  17.691  0.00  0.00    +0.000 N 
ATOM     17  C   UNL     1      -3.641  11.507  17.479  0.00  0.00    +0.000 A 
ATOM     18  C   UNL     1      -4.187  11.084  16.290  0.00  0.00    +0.000 A 
ATOM     19  S   UNL     1      -3.106  10.019  15.482  0.00  0.00    +0.000 S 
ATOM     20  C   UNL     1      -1.957  10.148  16.742  0.00  0.00    +0.000 A 
ENDBRANCH  15  16
ENDBRANCH  14  15
ENDBRANCH  13  14
ENDBRANCH  12  13
ENDBRANCH  11  12
ENDBRANCH   9  11
ENDBRANCH   4   9
BRANCH   6  21
ATOM     21  O   UNL     1       3.660   2.886  17.882  0.00  0.00    +0.000 OA
ATOM     22  C   UNL     1       2.363   2.338  17.720  0.00  0.00    +0.000 C 
ENDBRANCH   6  21
BRANCH   1  23
ATOM     23  O   UNL     1       5.677   4.142  16.176  0.00  0.00    +0.000 OA
BRANCH  23  24
ATOM     24  C   UNL     1       5.450   4.089  14.768  0.00  0.00    +0.000 C 
BRANCH  24  25
ATOM     25  C   UNL     1       6.722   4.319  13.950  0.00  0.00    +0.000 C 
BRANCH  25  26
ATOM     26  C   UNL     1       6.502   3.765  12.535  0.00  0.00    +0.000 C 
BRANCH  26  27
ATOM     27  C   UNL     1       5.100   3.202  12.320  0.00  0.00    +0.000 C 
BRANCH  27  29
ATOM     28  C   UNL     1       3.279   3.042  10.579  0.00  0.00    +0.000 C 
ATOM     29  C   UNL     1       4.409   3.890  11.138  0.00  0.00    +0.000 C 
ENDBRANCH  27  29
ENDBRANCH  26  27
ENDBRANCH  25  26
ENDBRANCH  24  25
ENDBRANCH  23  24
ENDBRANCH   1  23
TORSDOF 15
ENDMDL
