MODEL 1
REMARK VINA RESULT:      -7.9      0.000      0.000
REMARK  Name = 
REMARK  6 active torsions:
REMARK  status: ('A' for Active; 'I' for Inactive)
REMARK    1  A    between atoms: C_2  and  C_3
REMARK    2  A    between atoms: C_3  and  N_4
REMARK    3  A    between atoms: N_4  and  C_5
REMARK    4  A    between atoms: N_4  and  S_11
REMARK    5  A    between atoms: S_11  and  C_14
REMARK    6  A    between atoms: N_21  and  C_22
REMARK                            x       y       z     vdW  Elec       q    Type
REMARK                         _______ _______ _______ _____ _____    ______ ____
ROOT
ATOM      1  N   UNL     1       4.336   4.242  17.269  0.00  0.00    +0.000 NA
ENDROOT
BRANCH   1   2
ATOM      2  C   UNL     1       3.085   3.356  17.266  0.00  0.00    +0.000 C 
ATOM      3  C   UNL     1       3.214   1.994  17.959  0.00  0.00    +0.000 C 
ATOM      4  C   UNL     1       2.803   1.977  19.424  0.00  0.00    +0.000 C 
ATOM      5  C   UNL     1       1.385   2.492  19.597  0.00  0.00    +0.000 C 
ATOM      6  C   UNL     1       1.240   3.907  19.055  0.00  0.00    +0.000 C 
ATOM      7  C   UNL     1       1.774   4.087  17.626  0.00  0.00    +0.000 C 
ENDBRANCH   1   2
BRANCH   1   8
ATOM      8  S   UNL     1       4.940   4.731  18.820  0.00  0.00    +0.000 S 
ATOM      9  O   UNL     1       3.897   5.398  19.561  0.00  0.00    +0.000 OA
ATOM     10  O   UNL     1       5.677   3.612  19.366  0.00  0.00    +0.000 OA
BRANCH   8  11
ATOM     11  C   UNL     1       6.130   6.006  18.452  0.00  0.00    +0.000 A 
ATOM     12  C   UNL     1       7.391   5.960  19.060  0.00  0.00    +0.000 A 
ATOM     13  C   UNL     1       8.308   6.975  18.786  0.00  0.00    +0.000 A 
ATOM     14  C   UNL     1       7.963   8.009  17.920  0.00  0.00    +0.000 A 
ATOM     15  F   UNL     1       8.846   8.984  17.673  0.00  0.00    +0.000 F 
ATOM     16  C   UNL     1       6.713   8.051  17.307  0.00  0.00    +0.000 A 
ATOM     17  C   UNL     1       5.786   7.042  17.571  0.00  0.00    +0.000 A 
ENDBRANCH   8  11
ENDBRANCH   1   8
BRANCH   1  18
ATOM     18  C   UNL     1       5.457   3.718  16.404  0.00  0.00    +0.000 C 
BRANCH  18  20
ATOM     19  O   UNL     1       5.508   5.375  14.693  0.00  0.00    +0.000 OA
ATOM     20  C   UNL     1       5.668   4.187  14.980  0.00  0.00    +0.000 C 
ATOM     21  N   UNL     1       5.977   3.237  14.032  0.00  0.00    +0.000 N 
ATOM     22  H   UNL     1       5.937   2.260  14.299  0.00  0.00    +0.000 HD
BRANCH  21  23
ATOM     23  C   UNL     1       6.148   3.588  12.653  0.00  0.00    +0.000 C 
ATOM     24  C   UNL     1       6.590   2.564  11.642  0.00  0.00    +0.000 C 
ATOM     25  C   UNL     1       5.193   3.108  11.599  0.00  0.00    +0.000 C 
ENDBRANCH  21  23
ENDBRANCH  18  20
ENDBRANCH   1  18
TORSDOF 6
ENDMDL
MODEL 2
REMARK VINA RESULT:      -7.8      3.589      7.157
REMARK  Name = 
REMARK  6 active torsions:
REMARK  status: ('A' for Active; 'I' for Inactive)
REMARK    1  A    between atoms: C_2  and  C_3
REMARK    2  A    between atoms: C_3  and  N_4
REMARK    3  A    between atoms: N_4  and  C_5
REMARK    4  A    between atoms: N_4  and  S_11
REMARK    5  A    between atoms: S_11  and  C_14
REMARK    6  A    between atoms: N_21  and  C_22
REMARK                            x       y       z     vdW  Elec       q    Type
REMARK                         _______ _______ _______ _____ _____    ______ ____
ROOT
ATOM      1  N   UNL     1       4.069   5.016  17.609  0.00  0.00    +0.000 NA
ENDROOT
BRANCH   1   2
ATOM      2  C   UNL     1       5.552   5.030  17.223  0.00  0.00    +0.000 C 
ATOM      3  C   UNL     1       6.042   6.260  16.447  0.00  0.00    +0.000 C 
ATOM      4  C   UNL     1       6.609   7.378  17.309  0.00  0.00    +0.000 C 
ATOM      5  C   UNL     1       7.732   6.867  18.194  0.00  0.00    +0.000 C 
ATOM      6  C   UNL     1       7.256   5.736  19.095  0.00  0.00    +0.000 C 
ATOM      7  C   UNL     1       6.518   4.613  18.352  0.00  0.00    +0.000 C 
ENDBRANCH   1   2
BRANCH   1   8
ATOM      8  S   UNL     1       3.239   3.501  17.463  0.00  0.00    +0.000 S 
ATOM      9  O   UNL     1       2.090   3.655  16.603  0.00  0.00    +0.000 OA
ATOM     10  O   UNL     1       4.241   2.483  17.232  0.00  0.00    +0.000 OA
BRANCH   8  11
ATOM     11  C   UNL     1       2.563   3.204  19.085  0.00  0.00    +0.000 A 
ATOM     12  C   UNL     1       3.384   2.661  20.080  0.00  0.00    +0.000 A 
ATOM     13  C   UNL     1       2.841   2.409  21.340  0.00  0.00    +0.000 A 
ATOM     14  C   UNL     1       1.502   2.700  21.591  0.00  0.00    +0.000 A 
ATOM     15  F   UNL     1       0.988   2.443  22.799  0.00  0.00    +0.000 F 
ATOM     16  C   UNL     1       0.686   3.249  20.605  0.00  0.00    +0.000 A 
ATOM     17  C   UNL     1       1.216   3.507  19.340  0.00  0.00    +0.000 A 
ENDBRANCH   8  11
ENDBRANCH   1   8
BRANCH   1  18
ATOM     18  C   UNL     1       3.782   5.651  18.950  0.00  0.00    +0.000 C 
BRANCH  18  20
ATOM     19  O   UNL     1       2.864   7.710  18.180  0.00  0.00    +0.000 OA
ATOM     20  C   UNL     1       2.916   6.884  19.094  0.00  0.00    +0.000 C 
ATOM     21  N   UNL     1       2.256   7.067  20.288  0.00  0.00    +0.000 N 
ATOM     22  H   UNL     1       2.465   6.439  21.055  0.00  0.00    +0.000 HD
BRANCH  21  23
ATOM     23  C   UNL     1       1.453   8.230  20.525  0.00  0.00    +0.000 C 
ATOM     24  C   UNL     1       0.200   8.151  21.356  0.00  0.00    +0.000 C 
ATOM     25  C   UNL     1       1.401   8.884  21.876  0.00  0.00    +0.000 C 
ENDBRANCH  21  23
ENDBRANCH  18  20
ENDBRANCH   1  18
TORSDOF 6
ENDMDL
MODEL 3
REMARK VINA RESULT:      -7.6      0.155      1.006
REMARK  Name = 
REMARK  6 active torsions:
REMARK  status: ('A' for Active; 'I' for Inactive)
REMARK    1  A    between atoms: C_2  and  C_3
REMARK    2  A    between atoms: C_3  and  N_4
REMARK    3  A    between atoms: N_4  and  C_5
REMARK    4  A    between atoms: N_4  and  S_11
REMARK    5  A    between atoms: S_11  and  C_14
REMARK    6  A    between atoms: N_21  and  C_22
REMARK                            x       y       z     vdW  Elec       q    Type
REMARK                         _______ _______ _______ _____ _____    ______ ____
ROOT
ATOM      1  N   UNL     1       4.402   4.232  17.220  0.00  0.00    +0.000 NA
ENDROOT
BRANCH   1   2
ATOM      2  C   UNL     1       3.167   3.324  17.186  0.00  0.00    +0.000 C 
ATOM      3  C   UNL     1       3.271   2.004  17.960  0.00  0.00    +0.000 C 
ATOM      4  C   UNL     1       2.769   2.059  19.395  0.00  0.00    +0.000 C 
ATOM      5  C   UNL     1       1.335   2.557  19.450  0.00  0.00    +0.000 C 
ATOM      6  C   UNL     1       1.204   3.938  18.824  0.00  0.00    +0.000 C 
ATOM      7  C   UNL     1       1.825   4.050  17.423  0.00  0.00    +0.000 C 
ENDBRANCH   1   2
BRANCH   1   8
ATOM      8  S   UNL     1       4.949   4.746  18.783  0.00  0.00    +0.000 S 
ATOM      9  O   UNL     1       3.869   5.391  19.489  0.00  0.00    +0.000 OA
ATOM     10  O   UNL     1       5.699   3.650  19.357  0.00  0.00    +0.000 OA
BRANCH   8  11
ATOM     11  C   UNL     1       6.116   6.049  18.440  0.00  0.00    +0.000 A 
ATOM     12  C   UNL     1       5.756   7.076  17.557  0.00  0.00    +0.000 A 
ATOM     13  C   UNL     1       6.683   8.078  17.275  0.00  0.00    +0.000 A 
ATOM     14  C   UNL     1       7.942   8.049  17.869  0.00  0.00    +0.000 A 
ATOM     15  F   UNL     1       8.828   9.009  17.582  0.00  0.00    +0.000 F 
ATOM     16  C   UNL     1       8.298   7.035  18.754  0.00  0.00    +0.000 A 
ATOM     17  C   UNL     1       7.381   6.025  19.047  0.00  0.00    +0.000 A 
ENDBRANCH   8  11
ENDBRANCH   1   8
BRANCH   1  18
ATOM     18  C   UNL     1       5.558   3.719  16.394  0.00  0.00    +0.000 C 
BRANCH  18  20
ATOM     19  O   UNL     1       5.971   5.399  14.756  0.00  0.00    +0.000 OA
ATOM     20  C   UNL     1       5.820   4.196  14.982  0.00  0.00    +0.000 C 
ATOM     21  N   UNL     1       5.818   3.254  13.977  0.00  0.00    +0.000 N 
ATOM     22  H   UNL     1       5.530   2.309  14.204  0.00  0.00    +0.000 HD
BRANCH  21  23
ATOM     23  C   UNL     1       6.011   3.625  12.607  0.00  0.00    +0.000 C 
ATOM     24  C   UNL     1       6.715   2.705  11.646  0.00  0.00    +0.000 C 
ATOM     25  C   UNL     1       5.244   2.961  11.499  0.00  0.00    +0.000 C 
ENDBRANCH  21  23
ENDBRANCH  18  20
ENDBRANCH   1  18
TORSDOF 6
ENDMDL
MODEL 4
REMARK VINA RESULT:      -7.6      2.639      3.224
REMARK  Name = 
REMARK  6 active torsions:
REMARK  status: ('A' for Active; 'I' for Inactive)
REMARK    1  A    between atoms: C_2  and  C_3
REMARK    2  A    between atoms: C_3  and  N_4
REMARK    3  A    between atoms: N_4  and  C_5
REMARK    4  A    between atoms: N_4  and  S_11
REMARK    5  A    between atoms: S_11  and  C_14
REMARK    6  A    between atoms: N_21  and  C_22
REMARK                            x       y       z     vdW  Elec       q    Type
REMARK                         _______ _______ _______ _____ _____    ______ ____
ROOT
ATOM      1  N   UNL     1       3.973   4.643  17.236  0.00  0.00    +0.000 NA
ENDROOT
BRANCH   1   2
ATOM      2  C   UNL     1       2.833   3.618  17.205  0.00  0.00    +0.000 C 
ATOM      3  C   UNL     1       3.185   2.194  17.655  0.00  0.00    +0.000 C 
ATOM      4  C   UNL     1       2.944   1.909  19.129  0.00  0.00    +0.000 C 
ATOM      5  C   UNL     1       1.506   2.211  19.514  0.00  0.00    +0.000 C 
ATOM      6  C   UNL     1       1.150   3.662  19.224  0.00  0.00    +0.000 C 
ATOM      7  C   UNL     1       1.499   4.118  17.799  0.00  0.00    +0.000 C 
ENDBRANCH   1   2
BRANCH   1   8
ATOM      8  S   UNL     1       4.299   5.401  18.761  0.00  0.00    +0.000 S 
ATOM      9  O   UNL     1       3.882   4.533  19.835  0.00  0.00    +0.000 OA
ATOM     10  O   UNL     1       5.635   5.951  18.690  0.00  0.00    +0.000 OA
BRANCH   8  11
ATOM     11  C   UNL     1       3.173   6.781  18.822  0.00  0.00    +0.000 A 
ATOM     12  C   UNL     1       3.071   7.631  17.714  0.00  0.00    +0.000 A 
ATOM     13  C   UNL     1       2.206   8.723  17.779  0.00  0.00    +0.000 A 
ATOM     14  C   UNL     1       1.459   8.951  18.932  0.00  0.00    +0.000 A 
ATOM     15  F   UNL     1       0.641  10.008  18.988  0.00  0.00    +0.000 F 
ATOM     16  C   UNL     1       1.551   8.102  20.031  0.00  0.00    +0.000 A 
ATOM     17  C   UNL     1       2.413   7.005  19.980  0.00  0.00    +0.000 A 
ENDBRANCH   8  11
ENDBRANCH   1   8
BRANCH   1  18
ATOM     18  C   UNL     1       5.253   4.149  16.604  0.00  0.00    +0.000 C 
BRANCH  18  20
ATOM     19  O   UNL     1       5.668   5.657  14.807  0.00  0.00    +0.000 OA
ATOM     20  C   UNL     1       5.633   4.481  15.177  0.00  0.00    +0.000 C 
ATOM     21  N   UNL     1       5.868   3.432  14.316  0.00  0.00    +0.000 N 
ATOM     22  H   UNL     1       5.667   2.492  14.637  0.00  0.00    +0.000 HD
BRANCH  21  23
ATOM     23  C   UNL     1       6.187   3.657  12.937  0.00  0.00    +0.000 C 
ATOM     24  C   UNL     1       6.230   2.516  11.956  0.00  0.00    +0.000 C 
ATOM     25  C   UNL     1       5.143   3.545  11.864  0.00  0.00    +0.000 C 
ENDBRANCH  21  23
ENDBRANCH  18  20
ENDBRANCH   1  18
TORSDOF 6
ENDMDL
MODEL 5
REMARK VINA RESULT:      -7.5      1.356      1.896
REMARK  Name = 
REMARK  6 active torsions:
REMARK  status: ('A' for Active; 'I' for Inactive)
REMARK    1  A    between atoms: C_2  and  C_3
REMARK    2  A    between atoms: C_3  and  N_4
REMARK    3  A    between atoms: N_4  and  C_5
REMARK    4  A    between atoms: N_4  and  S_11
REMARK    5  A    between atoms: S_11  and  C_14
REMARK    6  A    between atoms: N_21  and  C_22
REMARK                            x       y       z     vdW  Elec       q    Type
REMARK                         _______ _______ _______ _____ _____    ______ ____
ROOT
ATOM      1  N   UNL     1       5.511   4.881  17.793  0.00  0.00    +0.000 NA
ENDROOT
BRANCH   1   2
ATOM      2  C   UNL     1       4.334   4.635  18.742  0.00  0.00    +0.000 C 
ATOM      3  C   UNL     1       2.981   5.219  18.316  0.00  0.00    +0.000 C 
ATOM      4  C   UNL     1       2.094   4.271  17.521  0.00  0.00    +0.000 C 
ATOM      5  C   UNL     1       1.861   2.979  18.283  0.00  0.00    +0.000 C 
ATOM      6  C   UNL     1       3.175   2.280  18.603  0.00  0.00    +0.000 C 
ATOM      7  C   UNL     1       4.219   3.188  19.269  0.00  0.00    +0.000 C 
ENDBRANCH   1   2
BRANCH   1   8
ATOM      8  S   UNL     1       7.070   5.094  18.523  0.00  0.00    +0.000 S 
ATOM      9  O   UNL     1       6.959   4.960  19.955  0.00  0.00    +0.000 OA
ATOM     10  O   UNL     1       8.016   4.320  17.748  0.00  0.00    +0.000 OA
BRANCH   8  11
ATOM     11  C   UNL     1       7.459   6.811  18.250  0.00  0.00    +0.000 A 
ATOM     12  C   UNL     1       8.524   7.392  18.950  0.00  0.00    +0.000 A 
ATOM     13  C   UNL     1       8.806   8.743  18.749  0.00  0.00    +0.000 A 
ATOM     14  C   UNL     1       8.035   9.491  17.863  0.00  0.00    +0.000 A 
ATOM     15  F   UNL     1       8.306  10.789  17.687  0.00  0.00    +0.000 F 
ATOM     16  C   UNL     1       6.981   8.913  17.159  0.00  0.00    +0.000 A 
ATOM     17  C   UNL     1       6.688   7.562  17.349  0.00  0.00    +0.000 A 
ENDBRANCH   8  11
ENDBRANCH   1   8
BRANCH   1  18
ATOM     18  C   UNL     1       5.590   3.895  16.651  0.00  0.00    +0.000 C 
BRANCH  18  20
ATOM     19  O   UNL     1       5.413   5.486  14.887  0.00  0.00    +0.000 OA
ATOM     20  C   UNL     1       5.716   4.335  15.208  0.00  0.00    +0.000 C 
ATOM     21  N   UNL     1       6.114   3.395  14.284  0.00  0.00    +0.000 N 
ATOM     22  H   UNL     1       6.193   2.429  14.583  0.00  0.00    +0.000 HD
BRANCH  21  23
ATOM     23  C   UNL     1       6.214   3.714  12.891  0.00  0.00    +0.000 C 
ATOM     24  C   UNL     1       6.485   2.644  11.867  0.00  0.00    +0.000 C 
ATOM     25  C   UNL     1       5.144   3.314  11.916  0.00  0.00    +0.000 C 
ENDBRANCH  21  23
ENDBRANCH  18  20
ENDBRANCH   1  18
TORSDOF 6
ENDMDL
MODEL 6
REMARK VINA RESULT:      -7.5      3.708      7.233
REMARK  Name = 
REMARK  6 active torsions:
REMARK  status: ('A' for Active; 'I' for Inactive)
REMARK    1  A    between atoms: C_2  and  C_3
REMARK    2  A    between atoms: C_3  and  N_4
REMARK    3  A    between atoms: N_4  and  C_5
REMARK    4  A    between atoms: N_4  and  S_11
REMARK    5  A    between atoms: S_11  and  C_14
REMARK    6  A    between atoms: N_21  and  C_22
REMARK                            x       y       z     vdW  Elec       q    Type
REMARK                         _______ _______ _______ _____ _____    ______ ____
ROOT
ATOM      1  N   UNL     1       3.708   5.580  17.608  0.00  0.00    +0.000 NA
ENDROOT
BRANCH   1   2
ATOM      2  C   UNL     1       4.687   6.291  16.667  0.00  0.00    +0.000 C 
ATOM      3  C   UNL     1       5.923   6.922  17.319  0.00  0.00    +0.000 C 
ATOM      4  C   UNL     1       7.153   6.027  17.367  0.00  0.00    +0.000 C 
ATOM      5  C   UNL     1       7.520   5.534  15.979  0.00  0.00    +0.000 C 
ATOM      6  C   UNL     1       6.370   4.767  15.342  0.00  0.00    +0.000 C 
ATOM      7  C   UNL     1       5.027   5.510  15.379  0.00  0.00    +0.000 C 
ENDBRANCH   1   2
BRANCH   1   8
ATOM      8  S   UNL     1       3.926   3.872  17.815  0.00  0.00    +0.000 S 
ATOM      9  O   UNL     1       3.314   3.167  16.715  0.00  0.00    +0.000 OA
ATOM     10  O   UNL     1       5.306   3.658  18.194  0.00  0.00    +0.000 OA
BRANCH   8  11
ATOM     11  C   UNL     1       2.929   3.465  19.234  0.00  0.00    +0.000 A 
ATOM     12  C   UNL     1       3.544   2.923  20.370  0.00  0.00    +0.000 A 
ATOM     13  C   UNL     1       2.753   2.584  21.468  0.00  0.00    +0.000 A 
ATOM     14  C   UNL     1       1.376   2.787  21.423  0.00  0.00    +0.000 A 
ATOM     15  F   UNL     1       0.625   2.447  22.477  0.00  0.00    +0.000 F 
ATOM     16  C   UNL     1       0.764   3.335  20.298  0.00  0.00    +0.000 A 
ATOM     17  C   UNL     1       1.543   3.679  19.193  0.00  0.00    +0.000 A 
ENDBRANCH   8  11
ENDBRANCH   1   8
BRANCH   1  18
ATOM     18  C   UNL     1       3.548   6.261  18.947  0.00  0.00    +0.000 C 
BRANCH  18  20
ATOM     19  O   UNL     1       2.226   8.115  18.247  0.00  0.00    +0.000 OA
ATOM     20  C   UNL     1       2.545   7.370  19.177  0.00  0.00    +0.000 C 
ATOM     21  N   UNL     1       2.064   7.545  20.455  0.00  0.00    +0.000 N 
ATOM     22  H   UNL     1       2.483   7.006  21.205  0.00  0.00    +0.000 HD
BRANCH  21  23
ATOM     23  C   UNL     1       1.146   8.600  20.770  0.00  0.00    +0.000 C 
ATOM     24  C   UNL     1      -0.079   8.339  21.605  0.00  0.00    +0.000 C 
ATOM     25  C   UNL     1       1.046   9.163  22.158  0.00  0.00    +0.000 C 
ENDBRANCH  21  23
ENDBRANCH  18  20
ENDBRANCH   1  18
TORSDOF 6
ENDMDL
MODEL 7
REMARK VINA RESULT:      -7.4      3.706      7.306
REMARK  Name = 
REMARK  6 active torsions:
REMARK  status: ('A' for Active; 'I' for Inactive)
REMARK    1  A    between atoms: C_2  and  C_3
REMARK    2  A    between atoms: C_3  and  N_4
REMARK    3  A    between atoms: N_4  and  C_5
REMARK    4  A    between atoms: N_4  and  S_11
REMARK    5  A    between atoms: S_11  and  C_14
REMARK    6  A    between atoms: N_21  and  C_22
REMARK                            x       y       z     vdW  Elec       q    Type
REMARK                         _______ _______ _______ _____ _____    ______ ____
ROOT
ATOM      1  N   UNL     1       3.687   5.322  17.624  0.00  0.00    +0.000 NA
ENDROOT
BRANCH   1   2
ATOM      2  C   UNL     1       5.160   5.072  17.282  0.00  0.00    +0.000 C 
ATOM      3  C   UNL     1       5.863   6.160  16.461  0.00  0.00    +0.000 C 
ATOM      4  C   UNL     1       6.588   7.216  17.282  0.00  0.00    +0.000 C 
ATOM      5  C   UNL     1       7.592   6.577  18.225  0.00  0.00    +0.000 C 
ATOM      6  C   UNL     1       6.916   5.591  19.167  0.00  0.00    +0.000 C 
ATOM      7  C   UNL     1       6.019   4.564  18.459  0.00  0.00    +0.000 C 
ENDBRANCH   1   2
BRANCH   1   8
ATOM      8  S   UNL     1       2.598   3.990  17.403  0.00  0.00    +0.000 S 
ATOM      9  O   UNL     1       1.338   4.471  16.889  0.00  0.00    +0.000 OA
ATOM     10  O   UNL     1       3.340   2.932  16.754  0.00  0.00    +0.000 OA
BRANCH   8  11
ATOM     11  C   UNL     1       2.237   3.432  19.056  0.00  0.00    +0.000 A 
ATOM     12  C   UNL     1       0.942   3.592  19.566  0.00  0.00    +0.000 A 
ATOM     13  C   UNL     1       0.674   3.175  20.869  0.00  0.00    +0.000 A 
ATOM     14  C   UNL     1       1.685   2.608  21.640  0.00  0.00    +0.000 A 
ATOM     15  F   UNL     1       1.420   2.222  22.894  0.00  0.00    +0.000 F 
ATOM     16  C   UNL     1       2.971   2.439  21.133  0.00  0.00    +0.000 A 
ATOM     17  C   UNL     1       3.254   2.851  19.830  0.00  0.00    +0.000 A 
ENDBRANCH   8  11
ENDBRANCH   1   8
BRANCH   1  18
ATOM     18  C   UNL     1       3.475   5.963  18.975  0.00  0.00    +0.000 C 
BRANCH  18  20
ATOM     19  O   UNL     1       2.196   7.826  18.219  0.00  0.00    +0.000 OA
ATOM     20  C   UNL     1       2.531   7.128  19.179  0.00  0.00    +0.000 C 
ATOM     21  N   UNL     1       2.124   7.405  20.465  0.00  0.00    +0.000 N 
ATOM     22  H   UNL     1       2.559   6.897  21.228  0.00  0.00    +0.000 HD
BRANCH  21  23
ATOM     23  C   UNL     1       1.268   8.518  20.754  0.00  0.00    +0.000 C 
ATOM     24  C   UNL     1      -0.007   8.334  21.533  0.00  0.00    +0.000 C 
ATOM     25  C   UNL     1       1.147   9.073  22.144  0.00  0.00    +0.000 C 
ENDBRANCH  21  23
ENDBRANCH  18  20
ENDBRANCH   1  18
TORSDOF 6
ENDMDL
MODEL 8
REMARK VINA RESULT:      -7.4      2.841      4.984
REMARK  Name = 
REMARK  6 active torsions:
REMARK  status: ('A' for Active; 'I' for Inactive)
REMARK    1  A    between atoms: C_2  and  C_3
REMARK    2  A    between atoms: C_3  and  N_4
REMARK    3  A    between atoms: N_4  and  C_5
REMARK    4  A    between atoms: N_4  and  S_11
REMARK    5  A    between atoms: S_11  and  C_14
REMARK    6  A    between atoms: N_21  and  C_22
REMARK                            x       y       z     vdW  Elec       q    Type
REMARK                         _______ _______ _______ _____ _____    ______ ____
ROOT
ATOM      1  N   UNL     1       3.571   4.629  18.232  0.00  0.00    +0.000 NA
ENDROOT
BRANCH   1   2
ATOM      2  C   UNL     1       2.842   3.363  18.696  0.00  0.00    +0.000 C 
ATOM      3  C   UNL     1       3.434   2.643  19.914  0.00  0.00    +0.000 C 
ATOM      4  C   UNL     1       2.846   3.059  21.254  0.00  0.00    +0.000 C 
ATOM      5  C   UNL     1       1.337   2.891  21.262  0.00  0.00    +0.000 C 
ATOM      6  C   UNL     1       0.684   3.708  20.156  0.00  0.00    +0.000 C 
ATOM      7  C   UNL     1       1.305   3.491  18.769  0.00  0.00    +0.000 C 
ENDBRANCH   1   2
BRANCH   1   8
ATOM      8  S   UNL     1       4.859   4.413  17.092  0.00  0.00    +0.000 S 
ATOM      9  O   UNL     1       5.444   3.104  17.260  0.00  0.00    +0.000 OA
ATOM     10  O   UNL     1       4.381   4.883  15.809  0.00  0.00    +0.000 OA
BRANCH   8  11
ATOM     11  C   UNL     1       6.121   5.552  17.625  0.00  0.00    +0.000 A 
ATOM     12  C   UNL     1       6.942   5.208  18.706  0.00  0.00    +0.000 A 
ATOM     13  C   UNL     1       7.911   6.116  19.133  0.00  0.00    +0.000 A 
ATOM     14  C   UNL     1       8.051   7.340  18.484  0.00  0.00    +0.000 A 
ATOM     15  F   UNL     1       8.976   8.209  18.908  0.00  0.00    +0.000 F 
ATOM     16  C   UNL     1       7.243   7.680  17.402  0.00  0.00    +0.000 A 
ATOM     17  C   UNL     1       6.270   6.781  16.964  0.00  0.00    +0.000 A 
ENDBRANCH   8  11
ENDBRANCH   1   8
BRANCH   1  18
ATOM     18  C   UNL     1       2.646   5.736  17.785  0.00  0.00    +0.000 C 
BRANCH  18  20
ATOM     19  O   UNL     1       3.128   8.057  18.016  0.00  0.00    +0.000 OA
ATOM     20  C   UNL     1       2.572   7.068  18.499  0.00  0.00    +0.000 C 
ATOM     21  N   UNL     1       1.926   7.108  19.714  0.00  0.00    +0.000 N 
ATOM     22  H   UNL     1       1.631   6.233  20.132  0.00  0.00    +0.000 HD
BRANCH  21  23
ATOM     23  C   UNL     1       1.851   8.318  20.479  0.00  0.00    +0.000 C 
ATOM     24  C   UNL     1       0.630   9.196  20.423  0.00  0.00    +0.000 C 
ATOM     25  C   UNL     1       0.950   8.434  21.675  0.00  0.00    +0.000 C 
ENDBRANCH  21  23
ENDBRANCH  18  20
ENDBRANCH   1  18
TORSDOF 6
ENDMDL
MODEL 9
REMARK VINA RESULT:      -7.4      3.727      7.276
REMARK  Name = 
REMARK  6 active torsions:
REMARK  status: ('A' for Active; 'I' for Inactive)
REMARK    1  A    between atoms: C_2  and  C_3
REMARK    2  A    between atoms: C_3  and  N_4
REMARK    3  A    between atoms: N_4  and  C_5
REMARK    4  A    between atoms: N_4  and  S_11
REMARK    5  A    between atoms: S_11  and  C_14
REMARK    6  A    between atoms: N_21  and  C_22
REMARK                            x       y       z     vdW  Elec       q    Type
REMARK                         _______ _______ _______ _____ _____    ______ ____
ROOT
ATOM      1  N   UNL     1       3.607   5.523  17.564  0.00  0.00    +0.000 NA
ENDROOT
BRANCH   1   2
ATOM      2  C   UNL     1       4.817   6.153  16.867  0.00  0.00    +0.000 C 
ATOM      3  C   UNL     1       6.094   6.289  17.707  0.00  0.00    +0.000 C 
ATOM      4  C   UNL     1       7.066   5.125  17.591  0.00  0.00    +0.000 C 
ATOM      5  C   UNL     1       7.448   4.877  16.142  0.00  0.00    +0.000 C 
ATOM      6  C   UNL     1       6.221   4.588  15.288  0.00  0.00    +0.000 C 
ATOM      7  C   UNL     1       5.094   5.620  15.444  0.00  0.00    +0.000 C 
ENDBRANCH   1   2
BRANCH   1   8
ATOM      8  S   UNL     1       3.520   3.790  17.559  0.00  0.00    +0.000 S 
ATOM      9  O   UNL     1       2.632   3.351  16.509  0.00  0.00    +0.000 OA
ATOM     10  O   UNL     1       4.872   3.291  17.682  0.00  0.00    +0.000 OA
BRANCH   8  11
ATOM     11  C   UNL     1       2.676   3.382  19.074  0.00  0.00    +0.000 A 
ATOM     12  C   UNL     1       1.288   3.548  19.151  0.00  0.00    +0.000 A 
ATOM     13  C   UNL     1       0.638   3.249  20.349  0.00  0.00    +0.000 A 
ATOM     14  C   UNL     1       1.370   2.793  21.442  0.00  0.00    +0.000 A 
ATOM     15  F   UNL     1       0.739   2.521  22.590  0.00  0.00    +0.000 F 
ATOM     16  C   UNL     1       2.750   2.618  21.365  0.00  0.00    +0.000 A 
ATOM     17  C   UNL     1       3.413   2.913  20.173  0.00  0.00    +0.000 A 
ENDBRANCH   8  11
ENDBRANCH   1   8
BRANCH   1  18
ATOM     18  C   UNL     1       3.354   6.062  18.952  0.00  0.00    +0.000 C 
BRANCH  18  20
ATOM     19  O   UNL     1       2.157   8.010  18.279  0.00  0.00    +0.000 OA
ATOM     20  C   UNL     1       2.453   7.252  19.206  0.00  0.00    +0.000 C 
ATOM     21  N   UNL     1       2.042   7.480  20.501  0.00  0.00    +0.000 N 
ATOM     22  H   UNL     1       2.448   6.917  21.240  0.00  0.00    +0.000 HD
BRANCH  21  23
ATOM     23  C   UNL     1       1.227   8.609  20.837  0.00  0.00    +0.000 C 
ATOM     24  C   UNL     1      -0.064   8.437  21.591  0.00  0.00    +0.000 C 
ATOM     25  C   UNL     1       1.110   9.097  22.252  0.00  0.00    +0.000 C 
ENDBRANCH  21  23
ENDBRANCH  18  20
ENDBRANCH   1  18
TORSDOF 6
ENDMDL
