MODEL 1
REMARK VINA RESULT:      -6.9      0.000      0.000
REMARK  Name = 
REMARK  6 active torsions:
REMARK  status: ('A' for Active; 'I' for Inactive)
REMARK    1  A    between atoms: N_12  and  C_13
REMARK    2  A    between atoms: C_13  and  C_14
REMARK    3  A    between atoms: C_14  and  C_15
REMARK    4  A    between atoms: C_15  and  C_16
REMARK    5  A    between atoms: C_16  and  C_17
REMARK    6  A    between atoms: C_17  and  N_18
REMARK                            x       y       z     vdW  Elec       q    Type
REMARK                         _______ _______ _______ _____ _____    ______ ____
ROOT
ATOM      1  O   UNL     1       5.085   2.591  20.030  0.00  0.00    +0.000 OA
ATOM      2  C   UNL     1       4.765   3.257  19.051  0.00  0.00    +0.000 A 
ATOM      3  C   UNL     1       5.541   4.443  18.702  0.00  0.00    +0.000 A 
ATOM      4  C   UNL     1       6.671   4.824  19.435  0.00  0.00    +0.000 A 
ATOM      5  C   UNL     1       7.401   5.940  19.033  0.00  0.00    +0.000 A 
ATOM      6  C   UNL     1       6.990   6.661  17.914  0.00  0.00    +0.000 A 
ATOM      7 CL   UNL     1       7.894   8.033  17.405  0.00  0.00    +0.000 Cl
ATOM      8  C   UNL     1       5.854   6.278  17.198  0.00  0.00    +0.000 A 
ATOM      9  C   UNL     1       5.118   5.152  17.588  0.00  0.00    +0.000 A 
ATOM     10  N   UNL     1       3.991   4.787  16.844  0.00  0.00    +0.000 NA
ATOM     11  N   UNL     1       3.354   3.754  17.142  0.00  0.00    +0.000 NA
ATOM     12  N   UNL     1       3.716   2.968  18.200  0.00  0.00    +0.000 N 
ENDROOT
BRANCH  12  13
ATOM     13  C   UNL     1       2.911   1.772  18.410  0.00  0.00    +0.000 C 
BRANCH  13  14
ATOM     14  C   UNL     1       1.501   2.075  18.927  0.00  0.00    +0.000 C 
BRANCH  14  15
ATOM     15  C   UNL     1       1.490   2.796  20.280  0.00  0.00    +0.000 C 
BRANCH  15  16
ATOM     16  C   UNL     1       1.093   4.264  20.107  0.00  0.00    +0.000 C 
BRANCH  16  17
ATOM     17  C   UNL     1       2.123   5.206  20.725  0.00  0.00    +0.000 C 
BRANCH  17  18
ATOM     18  N   UNL     1       1.960   6.567  20.252  0.00  0.00    +0.000 N 
ATOM     19  C   UNL     1       2.323   7.044  19.024  0.00  0.00    +0.000 A 
ATOM     20  C   UNL     1       1.970   8.373  19.045  0.00  0.00    +0.000 A 
ATOM     21  N   UNL     1       1.405   8.708  20.248  0.00  0.00    +0.000 NA
ATOM     22  C   UNL     1       1.410   7.600  20.953  0.00  0.00    +0.000 A 
ENDBRANCH  17  18
ENDBRANCH  16  17
ENDBRANCH  15  16
ENDBRANCH  14  15
ENDBRANCH  13  14
ENDBRANCH  12  13
TORSDOF 6
ENDMDL
MODEL 2
REMARK VINA RESULT:      -6.9      1.364      1.902
REMARK  Name = 
REMARK  6 active torsions:
REMARK  status: ('A' for Active; 'I' for Inactive)
REMARK    1  A    between atoms: N_12  and  C_13
REMARK    2  A    between atoms: C_13  and  C_14
REMARK    3  A    between atoms: C_14  and  C_15
REMARK    4  A    between atoms: C_15  and  C_16
REMARK    5  A    between atoms: C_16  and  C_17
REMARK    6  A    between atoms: C_17  and  N_18
REMARK                            x       y       z     vdW  Elec       q    Type
REMARK                         _______ _______ _______ _____ _____    ______ ____
ROOT
ATOM      1  O   UNL     1       2.858   3.633  16.683  0.00  0.00    +0.000 OA
ATOM      2  C   UNL     1       3.695   3.728  17.576  0.00  0.00    +0.000 A 
ATOM      3  C   UNL     1       4.743   4.738  17.476  0.00  0.00    +0.000 A 
ATOM      4  C   UNL     1       4.800   5.635  16.402  0.00  0.00    +0.000 A 
ATOM      5  C   UNL     1       5.796   6.608  16.377  0.00  0.00    +0.000 A 
ATOM      6  C   UNL     1       6.722   6.667  17.418  0.00  0.00    +0.000 A 
ATOM      7 CL   UNL     1       7.947   7.875  17.399  0.00  0.00    +0.000 Cl
ATOM      8  C   UNL     1       6.661   5.760  18.478  0.00  0.00    +0.000 A 
ATOM      9  C   UNL     1       5.658   4.784  18.516  0.00  0.00    +0.000 A 
ATOM     10  N   UNL     1       5.617   3.897  19.597  0.00  0.00    +0.000 NA
ATOM     11  N   UNL     1       4.697   3.055  19.679  0.00  0.00    +0.000 NA
ATOM     12  N   UNL     1       3.725   2.958  18.722  0.00  0.00    +0.000 N 
ENDROOT
BRANCH  12  13
ATOM     13  C   UNL     1       2.691   1.960  18.962  0.00  0.00    +0.000 C 
BRANCH  13  14
ATOM     14  C   UNL     1       1.640   2.412  19.981  0.00  0.00    +0.000 C 
BRANCH  14  15
ATOM     15  C   UNL     1       1.060   3.799  19.682  0.00  0.00    +0.000 C 
BRANCH  15  16
ATOM     16  C   UNL     1       1.517   4.815  20.733  0.00  0.00    +0.000 C 
BRANCH  16  17
ATOM     17  C   UNL     1       2.471   5.849  20.141  0.00  0.00    +0.000 C 
BRANCH  17  18
ATOM     18  N   UNL     1       1.889   7.177  20.137  0.00  0.00    +0.000 N 
ATOM     19  C   UNL     1       1.986   8.099  19.133  0.00  0.00    +0.000 A 
ATOM     20  C   UNL     1       1.277   9.188  19.585  0.00  0.00    +0.000 A 
ATOM     21  N   UNL     1       0.755   8.946  20.829  0.00  0.00    +0.000 NA
ATOM     22  C   UNL     1       1.138   7.727  21.135  0.00  0.00    +0.000 A 
ENDBRANCH  17  18
ENDBRANCH  16  17
ENDBRANCH  15  16
ENDBRANCH  14  15
ENDBRANCH  13  14
ENDBRANCH  12  13
TORSDOF 6
ENDMDL
MODEL 3
REMARK VINA RESULT:      -6.8      4.883      7.282
REMARK  Name = 
REMARK  6 active torsions:
REMARK  status: ('A' for Active; 'I' for Inactive)
REMARK    1  A    between atoms: N_12  and  C_13
REMARK    2  A    between atoms: C_13  and  C_14
REMARK    3  A    between atoms: C_14  and  C_15
REMARK    4  A    between atoms: C_15  and  C_16
REMARK    5  A    between atoms: C_16  and  C_17
REMARK    6  A    between atoms: C_17  and  N_18
REMARK                            x       y       z     vdW  Elec       q    Type
REMARK                         _______ _______ _______ _____ _____    ______ ____
ROOT
ATOM      1  O   UNL     1       3.853   7.124  18.066  0.00  0.00    +0.000 OA
ATOM      2  C   UNL     1       4.332   6.071  18.475  0.00  0.00    +0.000 A 
ATOM      3  C   UNL     1       3.526   5.192  19.317  0.00  0.00    +0.000 A 
ATOM      4  C   UNL     1       2.199   5.500  19.643  0.00  0.00    +0.000 A 
ATOM      5  C   UNL     1       1.461   4.606  20.413  0.00  0.00    +0.000 A 
ATOM      6  C   UNL     1       2.057   3.425  20.853  0.00  0.00    +0.000 A 
ATOM      7 CL   UNL     1       1.146   2.311  21.796  0.00  0.00    +0.000 Cl
ATOM      8  C   UNL     1       3.385   3.136  20.531  0.00  0.00    +0.000 A 
ATOM      9  C   UNL     1       4.133   4.024  19.749  0.00  0.00    +0.000 A 
ATOM     10  N   UNL     1       5.457   3.700  19.435  0.00  0.00    +0.000 NA
ATOM     11  N   UNL     1       6.123   4.452  18.691  0.00  0.00    +0.000 NA
ATOM     12  N   UNL     1       5.600   5.608  18.184  0.00  0.00    +0.000 N 
ENDROOT
BRANCH  12  13
ATOM     13  C   UNL     1       6.472   6.369  17.299  0.00  0.00    +0.000 C 
BRANCH  13  14
ATOM     14  C   UNL     1       7.663   7.005  18.023  0.00  0.00    +0.000 C 
BRANCH  14  15
ATOM     15  C   UNL     1       7.979   8.425  17.543  0.00  0.00    +0.000 C 
BRANCH  15  16
ATOM     16  C   UNL     1       8.627   9.244  18.663  0.00  0.00    +0.000 C 
BRANCH  16  17
ATOM     17  C   UNL     1       8.816  10.704  18.259  0.00  0.00    +0.000 C 
BRANCH  17  18
ATOM     18  N   UNL     1      10.080  11.234  18.733  0.00  0.00    +0.000 N 
ATOM     19  C   UNL     1      11.170  11.532  17.966  0.00  0.00    +0.000 A 
ATOM     20  C   UNL     1      12.108  12.002  18.855  0.00  0.00    +0.000 A 
ATOM     21  N   UNL     1      11.614  11.996  20.133  0.00  0.00    +0.000 NA
ATOM     22  C   UNL     1      10.389  11.532  20.029  0.00  0.00    +0.000 A 
ENDBRANCH  17  18
ENDBRANCH  16  17
ENDBRANCH  15  16
ENDBRANCH  14  15
ENDBRANCH  13  14
ENDBRANCH  12  13
TORSDOF 6
ENDMDL
MODEL 4
REMARK VINA RESULT:      -6.8      1.391      1.989
REMARK  Name = 
REMARK  6 active torsions:
REMARK  status: ('A' for Active; 'I' for Inactive)
REMARK    1  A    between atoms: N_12  and  C_13
REMARK    2  A    between atoms: C_13  and  C_14
REMARK    3  A    between atoms: C_14  and  C_15
REMARK    4  A    between atoms: C_15  and  C_16
REMARK    5  A    between atoms: C_16  and  C_17
REMARK    6  A    between atoms: C_17  and  N_18
REMARK                            x       y       z     vdW  Elec       q    Type
REMARK                         _______ _______ _______ _____ _____    ______ ____
ROOT
ATOM      1  O   UNL     1       3.540   3.682  16.328  0.00  0.00    +0.000 OA
ATOM      2  C   UNL     1       4.228   3.801  17.337  0.00  0.00    +0.000 A 
ATOM      3  C   UNL     1       5.199   4.886  17.423  0.00  0.00    +0.000 A 
ATOM      4  C   UNL     1       5.345   5.826  16.396  0.00  0.00    +0.000 A 
ATOM      5  C   UNL     1       6.256   6.868  16.547  0.00  0.00    +0.000 A 
ATOM      6  C   UNL     1       7.013   6.951  17.715  0.00  0.00    +0.000 A 
ATOM      7 CL   UNL     1       8.132   8.242  17.913  0.00  0.00    +0.000 Cl
ATOM      8  C   UNL     1       6.867   6.001  18.728  0.00  0.00    +0.000 A 
ATOM      9  C   UNL     1       5.946   4.955  18.589  0.00  0.00    +0.000 A 
ATOM     10  N   UNL     1       5.816   4.025  19.626  0.00  0.00    +0.000 NA
ATOM     11  N   UNL     1       4.960   3.117  19.545  0.00  0.00    +0.000 NA
ATOM     12  N   UNL     1       4.149   2.990  18.452  0.00  0.00    +0.000 N 
ENDROOT
BRANCH  12  13
ATOM     13  C   UNL     1       3.170   1.913  18.508  0.00  0.00    +0.000 C 
BRANCH  13  14
ATOM     14  C   UNL     1       2.095   2.126  19.579  0.00  0.00    +0.000 C 
BRANCH  14  15
ATOM     15  C   UNL     1       1.067   3.199  19.203  0.00  0.00    +0.000 C 
BRANCH  15  16
ATOM     16  C   UNL     1       0.710   4.055  20.421  0.00  0.00    +0.000 C 
BRANCH  16  17
ATOM     17  C   UNL     1       1.911   4.853  20.923  0.00  0.00    +0.000 C 
BRANCH  17  18
ATOM     18  N   UNL     1       1.959   6.178  20.337  0.00  0.00    +0.000 N 
ATOM     19  C   UNL     1       1.392   7.310  20.851  0.00  0.00    +0.000 A 
ATOM     20  C   UNL     1       1.709   8.302  19.952  0.00  0.00    +0.000 A 
ATOM     21  N   UNL     1       2.450   7.799  18.914  0.00  0.00    +0.000 NA
ATOM     22  C   UNL     1       2.587   6.519  19.175  0.00  0.00    +0.000 A 
ENDBRANCH  17  18
ENDBRANCH  16  17
ENDBRANCH  15  16
ENDBRANCH  14  15
ENDBRANCH  13  14
ENDBRANCH  12  13
TORSDOF 6
ENDMDL
MODEL 5
REMARK VINA RESULT:      -6.6      5.054      7.298
REMARK  Name = 
REMARK  6 active torsions:
REMARK  status: ('A' for Active; 'I' for Inactive)
REMARK    1  A    between atoms: N_12  and  C_13
REMARK    2  A    between atoms: C_13  and  C_14
REMARK    3  A    between atoms: C_14  and  C_15
REMARK    4  A    between atoms: C_15  and  C_16
REMARK    5  A    between atoms: C_16  and  C_17
REMARK    6  A    between atoms: C_17  and  N_18
REMARK                            x       y       z     vdW  Elec       q    Type
REMARK                         _______ _______ _______ _____ _____    ______ ____
ROOT
ATOM      1  O   UNL     1       4.363   7.315  16.858  0.00  0.00    +0.000 OA
ATOM      2  C   UNL     1       4.869   6.453  17.570  0.00  0.00    +0.000 A 
ATOM      3  C   UNL     1       4.018   5.451  18.203  0.00  0.00    +0.000 A 
ATOM      4  C   UNL     1       2.634   5.421  17.989  0.00  0.00    +0.000 A 
ATOM      5  C   UNL     1       1.874   4.417  18.583  0.00  0.00    +0.000 A 
ATOM      6  C   UNL     1       2.502   3.465  19.385  0.00  0.00    +0.000 A 
ATOM      7 CL   UNL     1       1.570   2.215  20.111  0.00  0.00    +0.000 Cl
ATOM      8  C   UNL     1       3.881   3.513  19.599  0.00  0.00    +0.000 A 
ATOM      9  C   UNL     1       4.656   4.514  18.999  0.00  0.00    +0.000 A 
ATOM     10  N   UNL     1       6.036   4.528  19.225  0.00  0.00    +0.000 NA
ATOM     11  N   UNL     1       6.752   5.378  18.654  0.00  0.00    +0.000 NA
ATOM     12  N   UNL     1       6.221   6.321  17.819  0.00  0.00    +0.000 N 
ENDROOT
BRANCH  12  13
ATOM     13  C   UNL     1       7.174   7.225  17.188  0.00  0.00    +0.000 C 
BRANCH  13  14
ATOM     14  C   UNL     1       8.110   7.911  18.188  0.00  0.00    +0.000 C 
BRANCH  14  15
ATOM     15  C   UNL     1       8.207   9.427  17.989  0.00  0.00    +0.000 C 
BRANCH  15  16
ATOM     16  C   UNL     1       9.146  10.050  19.025  0.00  0.00    +0.000 C 
BRANCH  16  17
ATOM     17  C   UNL     1      10.077  11.083  18.396  0.00  0.00    +0.000 C 
BRANCH  17  18
ATOM     18  N   UNL     1       9.614  12.437  18.631  0.00  0.00    +0.000 N 
ATOM     19  C   UNL     1       9.075  12.918  19.790  0.00  0.00    +0.000 A 
ATOM     20  C   UNL     1       8.798  14.240  19.528  0.00  0.00    +0.000 A 
ATOM     21  N   UNL     1       9.156  14.567  18.246  0.00  0.00    +0.000 NA
ATOM     22  C   UNL     1       9.647  13.464  17.731  0.00  0.00    +0.000 A 
ENDBRANCH  17  18
ENDBRANCH  16  17
ENDBRANCH  15  16
ENDBRANCH  14  15
ENDBRANCH  13  14
ENDBRANCH  12  13
TORSDOF 6
ENDMDL
MODEL 6
REMARK VINA RESULT:      -6.6      5.067      7.368
REMARK  Name = 
REMARK  6 active torsions:
REMARK  status: ('A' for Active; 'I' for Inactive)
REMARK    1  A    between atoms: N_12  and  C_13
REMARK    2  A    between atoms: C_13  and  C_14
REMARK    3  A    between atoms: C_14  and  C_15
REMARK    4  A    between atoms: C_15  and  C_16
REMARK    5  A    between atoms: C_16  and  C_17
REMARK    6  A    between atoms: C_17  and  N_18
REMARK                            x       y       z     vdW  Elec       q    Type
REMARK                         _______ _______ _______ _____ _____    ______ ____
ROOT
ATOM      1  O   UNL     1       7.070   4.306  18.522  0.00  0.00    +0.000 OA
ATOM      2  C   UNL     1       6.075   4.990  18.303  0.00  0.00    +0.000 A 
ATOM      3  C   UNL     1       4.770   4.532  18.767  0.00  0.00    +0.000 A 
ATOM      4  C   UNL     1       4.623   3.344  19.495  0.00  0.00    +0.000 A 
ATOM      5  C   UNL     1       3.361   2.975  19.952  0.00  0.00    +0.000 A 
ATOM      6  C   UNL     1       2.265   3.790  19.671  0.00  0.00    +0.000 A 
ATOM      7 CL   UNL     1       0.705   3.345  20.243  0.00  0.00    +0.000 Cl
ATOM      8  C   UNL     1       2.423   4.966  18.935  0.00  0.00    +0.000 A 
ATOM      9  C   UNL     1       3.689   5.350  18.478  0.00  0.00    +0.000 A 
ATOM     10  N   UNL     1       3.816   6.540  17.753  0.00  0.00    +0.000 NA
ATOM     11  N   UNL     1       4.945   6.929  17.386  0.00  0.00    +0.000 NA
ATOM     12  N   UNL     1       6.076   6.210  17.657  0.00  0.00    +0.000 N 
ENDROOT
BRANCH  12  13
ATOM     13  C   UNL     1       7.330   6.800  17.206  0.00  0.00    +0.000 C 
BRANCH  13  14
ATOM     14  C   UNL     1       7.989   7.697  18.258  0.00  0.00    +0.000 C 
BRANCH  14  15
ATOM     15  C   UNL     1       8.083   9.167  17.832  0.00  0.00    +0.000 C 
BRANCH  15  16
ATOM     16  C   UNL     1       9.167   9.894  18.632  0.00  0.00    +0.000 C 
BRANCH  16  17
ATOM     17  C   UNL     1       9.029  11.410  18.522  0.00  0.00    +0.000 C 
BRANCH  17  18
ATOM     18  N   UNL     1      10.279  12.086  18.813  0.00  0.00    +0.000 N 
ATOM     19  C   UNL     1      11.440  11.977  18.102  0.00  0.00    +0.000 A 
ATOM     20  C   UNL     1      12.331  12.798  18.755  0.00  0.00    +0.000 A 
ATOM     21  N   UNL     1      11.738  13.397  19.836  0.00  0.00    +0.000 NA
ATOM     22  C   UNL     1      10.502  12.952  19.844  0.00  0.00    +0.000 A 
ENDBRANCH  17  18
ENDBRANCH  16  17
ENDBRANCH  15  16
ENDBRANCH  14  15
ENDBRANCH  13  14
ENDBRANCH  12  13
TORSDOF 6
ENDMDL
MODEL 7
REMARK VINA RESULT:      -6.5      3.681      6.470
REMARK  Name = 
REMARK  6 active torsions:
REMARK  status: ('A' for Active; 'I' for Inactive)
REMARK    1  A    between atoms: N_12  and  C_13
REMARK    2  A    between atoms: C_13  and  C_14
REMARK    3  A    between atoms: C_14  and  C_15
REMARK    4  A    between atoms: C_15  and  C_16
REMARK    5  A    between atoms: C_16  and  C_17
REMARK    6  A    between atoms: C_17  and  N_18
REMARK                            x       y       z     vdW  Elec       q    Type
REMARK                         _______ _______ _______ _____ _____    ______ ____
ROOT
ATOM      1  O   UNL     1       2.018   9.395  17.593  0.00  0.00    +0.000 OA
ATOM      2  C   UNL     1       1.847   8.803  18.655  0.00  0.00    +0.000 A 
ATOM      3  C   UNL     1       1.068   9.436  19.715  0.00  0.00    +0.000 A 
ATOM      4  C   UNL     1       0.474  10.692  19.540  0.00  0.00    +0.000 A 
ATOM      5  C   UNL     1      -0.295  11.231  20.568  0.00  0.00    +0.000 A 
ATOM      6  C   UNL     1      -0.454  10.515  21.754  0.00  0.00    +0.000 A 
ATOM      7 CL   UNL     1      -1.413  11.171  23.022  0.00  0.00    +0.000 Cl
ATOM      8  C   UNL     1       0.153   9.269  21.919  0.00  0.00    +0.000 A 
ATOM      9  C   UNL     1       0.921   8.713  20.888  0.00  0.00    +0.000 A 
ATOM     10  N   UNL     1       1.507   7.458  21.081  0.00  0.00    +0.000 NA
ATOM     11  N   UNL     1       2.149   6.920  20.153  0.00  0.00    +0.000 NA
ATOM     12  N   UNL     1       2.316   7.537  18.944  0.00  0.00    +0.000 N 
ENDROOT
BRANCH  12  13
ATOM     13  C   UNL     1       3.051   6.780  17.939  0.00  0.00    +0.000 C 
BRANCH  13  14
ATOM     14  C   UNL     1       2.564   5.335  17.793  0.00  0.00    +0.000 C 
BRANCH  14  15
ATOM     15  C   UNL     1       3.691   4.301  17.885  0.00  0.00    +0.000 C 
BRANCH  15  16
ATOM     16  C   UNL     1       3.193   2.918  17.456  0.00  0.00    +0.000 C 
BRANCH  16  17
ATOM     17  C   UNL     1       3.285   1.905  18.594  0.00  0.00    +0.000 C 
BRANCH  17  18
ATOM     18  N   UNL     1       2.607   2.374  19.787  0.00  0.00    +0.000 N 
ATOM     19  C   UNL     1       1.291   2.726  19.882  0.00  0.00    +0.000 A 
ATOM     20  C   UNL     1       1.119   3.095  21.197  0.00  0.00    +0.000 A 
ATOM     21  N   UNL     1       2.293   2.972  21.894  0.00  0.00    +0.000 NA
ATOM     22  C   UNL     1       3.171   2.534  21.020  0.00  0.00    +0.000 A 
ENDBRANCH  17  18
ENDBRANCH  16  17
ENDBRANCH  15  16
ENDBRANCH  14  15
ENDBRANCH  13  14
ENDBRANCH  12  13
TORSDOF 6
ENDMDL
MODEL 8
REMARK VINA RESULT:      -6.5      4.541      6.795
REMARK  Name = 
REMARK  6 active torsions:
REMARK  status: ('A' for Active; 'I' for Inactive)
REMARK    1  A    between atoms: N_12  and  C_13
REMARK    2  A    between atoms: C_13  and  C_14
REMARK    3  A    between atoms: C_14  and  C_15
REMARK    4  A    between atoms: C_15  and  C_16
REMARK    5  A    between atoms: C_16  and  C_17
REMARK    6  A    between atoms: C_17  and  N_18
REMARK                            x       y       z     vdW  Elec       q    Type
REMARK                         _______ _______ _______ _____ _____    ______ ____
ROOT
ATOM      1  O   UNL     1       3.481   7.352  17.932  0.00  0.00    +0.000 OA
ATOM      2  C   UNL     1       4.023   6.293  18.233  0.00  0.00    +0.000 A 
ATOM      3  C   UNL     1       3.355   5.379  19.154  0.00  0.00    +0.000 A 
ATOM      4  C   UNL     1       2.088   5.660  19.679  0.00  0.00    +0.000 A 
ATOM      5  C   UNL     1       1.477   4.733  20.520  0.00  0.00    +0.000 A 
ATOM      6  C   UNL     1       2.141   3.548  20.831  0.00  0.00    +0.000 A 
ATOM      7 CL   UNL     1       1.386   2.394  21.859  0.00  0.00    +0.000 Cl
ATOM      8  C   UNL     1       3.410   3.285  20.310  0.00  0.00    +0.000 A 
ATOM      9  C   UNL     1       4.029   4.206  19.456  0.00  0.00    +0.000 A 
ATOM     10  N   UNL     1       5.295   3.908  18.942  0.00  0.00    +0.000 NA
ATOM     11  N   UNL     1       5.840   4.691  18.135  0.00  0.00    +0.000 NA
ATOM     12  N   UNL     1       5.239   5.856  17.745  0.00  0.00    +0.000 N 
ENDROOT
BRANCH  12  13
ATOM     13  C   UNL     1       5.967   6.654  16.768  0.00  0.00    +0.000 C 
BRANCH  13  14
ATOM     14  C   UNL     1       7.475   6.702  17.029  0.00  0.00    +0.000 C 
BRANCH  14  15
ATOM     15  C   UNL     1       7.852   7.520  18.270  0.00  0.00    +0.000 C 
BRANCH  15  16
ATOM     16  C   UNL     1       8.208   8.958  17.882  0.00  0.00    +0.000 C 
BRANCH  16  17
ATOM     17  C   UNL     1       9.051   9.641  18.956  0.00  0.00    +0.000 C 
BRANCH  17  18
ATOM     18  N   UNL     1       9.239  11.051  18.676  0.00  0.00    +0.000 N 
ATOM     19  C   UNL     1       8.562  11.788  17.745  0.00  0.00    +0.000 A 
ATOM     20  C   UNL     1       9.083  13.057  17.854  0.00  0.00    +0.000 A 
ATOM     21  N   UNL     1      10.051  13.104  18.823  0.00  0.00    +0.000 NA
ATOM     22  C   UNL     1      10.122  11.883  19.302  0.00  0.00    +0.000 A 
ENDBRANCH  17  18
ENDBRANCH  16  17
ENDBRANCH  15  16
ENDBRANCH  14  15
ENDBRANCH  13  14
ENDBRANCH  12  13
TORSDOF 6
ENDMDL
MODEL 9
REMARK VINA RESULT:      -6.5      2.905      5.512
REMARK  Name = 
REMARK  6 active torsions:
REMARK  status: ('A' for Active; 'I' for Inactive)
REMARK    1  A    between atoms: N_12  and  C_13
REMARK    2  A    between atoms: C_13  and  C_14
REMARK    3  A    between atoms: C_14  and  C_15
REMARK    4  A    between atoms: C_15  and  C_16
REMARK    5  A    between atoms: C_16  and  C_17
REMARK    6  A    between atoms: C_17  and  N_18
REMARK                            x       y       z     vdW  Elec       q    Type
REMARK                         _______ _______ _______ _____ _____    ______ ____
ROOT
ATOM      1  O   UNL     1       3.015   5.768  20.374  0.00  0.00    +0.000 OA
ATOM      2  C   UNL     1       2.879   6.648  19.529  0.00  0.00    +0.000 A 
ATOM      3  C   UNL     1       1.916   7.721  19.756  0.00  0.00    +0.000 A 
ATOM      4  C   UNL     1       1.165   7.798  20.935  0.00  0.00    +0.000 A 
ATOM      5  C   UNL     1       0.292   8.867  21.119  0.00  0.00    +0.000 A 
ATOM      6  C   UNL     1       0.175   9.837  20.124  0.00  0.00    +0.000 A 
ATOM      7 CL   UNL     1      -0.893  11.165  20.351  0.00  0.00    +0.000 Cl
ATOM      8  C   UNL     1       0.921   9.742  18.947  0.00  0.00    +0.000 A 
ATOM      9  C   UNL     1       1.809   8.675  18.756  0.00  0.00    +0.000 A 
ATOM     10  N   UNL     1       2.550   8.615  17.572  0.00  0.00    +0.000 NA
ATOM     11  N   UNL     1       3.388   7.703  17.406  0.00  0.00    +0.000 NA
ATOM     12  N   UNL     1       3.594   6.737  18.351  0.00  0.00    +0.000 N 
ENDROOT
BRANCH  12  13
ATOM     13  C   UNL     1       4.630   5.758  18.047  0.00  0.00    +0.000 C 
BRANCH  13  14
ATOM     14  C   UNL     1       4.527   5.189  16.629  0.00  0.00    +0.000 C 
BRANCH  14  15
ATOM     15  C   UNL     1       4.186   3.695  16.596  0.00  0.00    +0.000 C 
BRANCH  15  16
ATOM     16  C   UNL     1       2.995   3.391  17.508  0.00  0.00    +0.000 C 
BRANCH  16  17
ATOM     17  C   UNL     1       3.282   2.216  18.440  0.00  0.00    +0.000 C 
BRANCH  17  18
ATOM     18  N   UNL     1       2.702   2.418  19.754  0.00  0.00    +0.000 N 
ATOM     19  C   UNL     1       1.391   2.688  20.025  0.00  0.00    +0.000 A 
ATOM     20  C   UNL     1       1.329   2.791  21.396  0.00  0.00    +0.000 A 
ATOM     21  N   UNL     1       2.564   2.588  21.955  0.00  0.00    +0.000 NA
ATOM     22  C   UNL     1       3.370   2.364  20.943  0.00  0.00    +0.000 A 
ENDBRANCH  17  18
ENDBRANCH  16  17
ENDBRANCH  15  16
ENDBRANCH  14  15
ENDBRANCH  13  14
ENDBRANCH  12  13
TORSDOF 6
ENDMDL
