MODEL 1
REMARK VINA RESULT:      -7.4      0.000      0.000
REMARK  Name = 
REMARK  14 active torsions:
REMARK  status: ('A' for Active; 'I' for Inactive)
REMARK    1  A    between atoms: C_1  and  C_2
REMARK    2  A    between atoms: C_2  and  C_3
REMARK    3  A    between atoms: C_3  and  C_4
REMARK    4  A    between atoms: C_4  and  C_5
REMARK    5  A    between atoms: C_5  and  C_6
REMARK    6  A    between atoms: C_6  and  C_7
REMARK    7  A    between atoms: C_7  and  C_8
REMARK    8  A    between atoms: C_8  and  C_9
REMARK    9  A    between atoms: C_9  and  N_10
REMARK   10  A    between atoms: C_13  and  C_14
REMARK   11  A    between atoms: C_13  and  C_15
REMARK   12  A    between atoms: N_18  and  C_19
REMARK   13  A    between atoms: C_19  and  C_20
REMARK   14  A    between atoms: C_20  and  C_21
REMARK                            x       y       z     vdW  Elec       q    Type
REMARK                         _______ _______ _______ _____ _____    ______ ____
ROOT
ATOM      1  N   UNL     1       2.554   7.501  19.106  0.00  0.00    +0.000 N 
ATOM      2  C   UNL     1       2.709   6.145  18.983  0.00  0.00    +0.000 C 
ATOM      3  N   UNL     1       2.138   5.436  19.897  0.00  0.00    +0.000 NA
ATOM      4  C   UNL     1       2.189   3.993  19.769  0.00  0.00    +0.000 C 
ATOM      5  C   UNL     1       0.741   3.508  19.627  0.00  0.00    +0.000 C 
ATOM      6  C   UNL     1       2.800   3.435  21.059  0.00  0.00    +0.000 C 
ATOM      7  N   UNL     1       2.901   3.497  18.634  0.00  0.00    +0.000 N 
ATOM      8  C   UNL     1       3.472   4.367  17.785  0.00  0.00    +0.000 C 
ATOM      9  N   UNL     1       4.119   3.708  16.780  0.00  0.00    +0.000 N 
ATOM     10  N   UNL     1       3.403   5.645  17.917  0.00  0.00    +0.000 NA
ATOM     11  H   UNL     1       1.893   7.704  19.845  0.00  0.00    +0.000 HD
ATOM     12  H   UNL     1       3.107   2.514  18.578  0.00  0.00    +0.000 HD
ATOM     13  H   UNL     1       3.619   2.902  16.429  0.00  0.00    +0.000 HD
ENDROOT
BRANCH   1  14
ATOM     14  C   UNL     1       2.438   8.329  17.921  0.00  0.00    +0.000 C 
BRANCH  14  15
ATOM     15  C   UNL     1       1.122   9.111  17.924  0.00  0.00    +0.000 C 
BRANCH  15  16
ATOM     16  C   UNL     1       1.029  10.119  19.078  0.00  0.00    +0.000 C 
BRANCH  16  17
ATOM     17  C   UNL     1      -0.303  10.067  19.829  0.00  0.00    +0.000 C 
BRANCH  17  18
ATOM     18  C   UNL     1      -1.141  11.325  19.593  0.00  0.00    +0.000 C 
BRANCH  18  19
ATOM     19  C   UNL     1      -1.803  11.380  18.212  0.00  0.00    +0.000 C 
BRANCH  19  20
ATOM     20  C   UNL     1      -2.576  10.143  17.733  0.00  0.00    +0.000 C 
BRANCH  20  22
ATOM     21  C   UNL     1      -3.232  10.841  15.324  0.00  0.00    +0.000 C 
ATOM     22  C   UNL     1      -2.559   9.829  16.234  0.00  0.00    +0.000 C 
ENDBRANCH  20  22
ENDBRANCH  19  20
ENDBRANCH  18  19
ENDBRANCH  17  18
ENDBRANCH  16  17
ENDBRANCH  15  16
ENDBRANCH  14  15
ENDBRANCH   1  14
BRANCH   9  23
ATOM     23  C   UNL     1       4.935   4.406  15.796  0.00  0.00    +0.000 C 
BRANCH  23  24
ATOM     24  C   UNL     1       6.425   4.156  16.060  0.00  0.00    +0.000 C 
BRANCH  24  25
ATOM     25  C   UNL     1       7.026   5.180  16.993  0.00  0.00    +0.000 A 
ATOM     26  C   UNL     1       7.491   4.798  18.259  0.00  0.00    +0.000 A 
ATOM     27  C   UNL     1       8.024   5.746  19.134  0.00  0.00    +0.000 A 
ATOM     28  C   UNL     1       8.094   7.084  18.754  0.00  0.00    +0.000 A 
ATOM     29  C   UNL     1       7.633   7.475  17.498  0.00  0.00    +0.000 A 
ATOM     30  C   UNL     1       7.099   6.529  16.621  0.00  0.00    +0.000 A 
ENDBRANCH  24  25
ENDBRANCH  23  24
ENDBRANCH   9  23
TORSDOF 11
ENDMDL
MODEL 2
REMARK VINA RESULT:      -7.4      2.273      7.955
REMARK  Name = 
REMARK  14 active torsions:
REMARK  status: ('A' for Active; 'I' for Inactive)
REMARK    1  A    between atoms: C_1  and  C_2
REMARK    2  A    between atoms: C_2  and  C_3
REMARK    3  A    between atoms: C_3  and  C_4
REMARK    4  A    between atoms: C_4  and  C_5
REMARK    5  A    between atoms: C_5  and  C_6
REMARK    6  A    between atoms: C_6  and  C_7
REMARK    7  A    between atoms: C_7  and  C_8
REMARK    8  A    between atoms: C_8  and  C_9
REMARK    9  A    between atoms: C_9  and  N_10
REMARK   10  A    between atoms: C_13  and  C_14
REMARK   11  A    between atoms: C_13  and  C_15
REMARK   12  A    between atoms: N_18  and  C_19
REMARK   13  A    between atoms: C_19  and  C_20
REMARK   14  A    between atoms: C_20  and  C_21
REMARK                            x       y       z     vdW  Elec       q    Type
REMARK                         _______ _______ _______ _____ _____    ______ ____
ROOT
ATOM      1  N   UNL     1       5.454   4.456  18.979  0.00  0.00    +0.000 N 
ATOM      2  C   UNL     1       4.178   4.426  19.477  0.00  0.00    +0.000 C 
ATOM      3  N   UNL     1       3.687   3.250  19.676  0.00  0.00    +0.000 NA
ATOM      4  C   UNL     1       2.377   3.155  20.288  0.00  0.00    +0.000 C 
ATOM      5  C   UNL     1       2.561   2.418  21.620  0.00  0.00    +0.000 C 
ATOM      6  C   UNL     1       1.488   2.325  19.354  0.00  0.00    +0.000 C 
ATOM      7  N   UNL     1       1.743   4.399  20.590  0.00  0.00    +0.000 N 
ATOM      8  C   UNL     1       2.372   5.547  20.292  0.00  0.00    +0.000 C 
ATOM      9  N   UNL     1       1.606   6.622  20.635  0.00  0.00    +0.000 N 
ATOM     10  N   UNL     1       3.541   5.603  19.756  0.00  0.00    +0.000 NA
ATOM     11  H   UNL     1       5.841   3.521  18.974  0.00  0.00    +0.000 HD
ATOM     12  H   UNL     1       0.775   4.400  20.864  0.00  0.00    +0.000 HD
ATOM     13  H   UNL     1       1.123   6.517  21.518  0.00  0.00    +0.000 HD
ENDROOT
BRANCH   1  14
ATOM     14  C   UNL     1       6.367   5.507  19.384  0.00  0.00    +0.000 C 
BRANCH  14  15
ATOM     15  C   UNL     1       7.634   5.497  18.523  0.00  0.00    +0.000 C 
BRANCH  15  16
ATOM     16  C   UNL     1       7.557   4.495  17.362  0.00  0.00    +0.000 C 
BRANCH  16  17
ATOM     17  C   UNL     1       6.782   5.022  16.152  0.00  0.00    +0.000 C 
BRANCH  17  18
ATOM     18  C   UNL     1       6.206   3.886  15.304  0.00  0.00    +0.000 C 
BRANCH  18  19
ATOM     19  C   UNL     1       5.717   4.329  13.921  0.00  0.00    +0.000 C 
BRANCH  19  20
ATOM     20  C   UNL     1       6.349   3.667  12.688  0.00  0.00    +0.000 C 
BRANCH  20  22
ATOM     21  C   UNL     1       4.197   3.226  11.310  0.00  0.00    +0.000 C 
ATOM     22  C   UNL     1       5.490   2.681  11.891  0.00  0.00    +0.000 C 
ENDBRANCH  20  22
ENDBRANCH  19  20
ENDBRANCH  18  19
ENDBRANCH  17  18
ENDBRANCH  16  17
ENDBRANCH  15  16
ENDBRANCH  14  15
ENDBRANCH   1  14
BRANCH   9  23
ATOM     23  C   UNL     1       1.991   7.987  20.300  0.00  0.00    +0.000 C 
BRANCH  23  24
ATOM     24  C   UNL     1       0.774   8.781  19.808  0.00  0.00    +0.000 C 
BRANCH  24  25
ATOM     25  C   UNL     1       0.158   9.625  20.897  0.00  0.00    +0.000 A 
ATOM     26  C   UNL     1       0.129   9.162  22.220  0.00  0.00    +0.000 A 
ATOM     27  C   UNL     1      -0.462   9.929  23.226  0.00  0.00    +0.000 A 
ATOM     28  C   UNL     1      -1.032  11.162  22.919  0.00  0.00    +0.000 A 
ATOM     29  C   UNL     1      -1.010  11.631  21.607  0.00  0.00    +0.000 A 
ATOM     30  C   UNL     1      -0.420  10.867  20.599  0.00  0.00    +0.000 A 
ENDBRANCH  24  25
ENDBRANCH  23  24
ENDBRANCH   9  23
TORSDOF 11
ENDMDL
MODEL 3
REMARK VINA RESULT:      -7.3      1.815      7.618
REMARK  Name = 
REMARK  14 active torsions:
REMARK  status: ('A' for Active; 'I' for Inactive)
REMARK    1  A    between atoms: C_1  and  C_2
REMARK    2  A    between atoms: C_2  and  C_3
REMARK    3  A    between atoms: C_3  and  C_4
REMARK    4  A    between atoms: C_4  and  C_5
REMARK    5  A    between atoms: C_5  and  C_6
REMARK    6  A    between atoms: C_6  and  C_7
REMARK    7  A    between atoms: C_7  and  C_8
REMARK    8  A    between atoms: C_8  and  C_9
REMARK    9  A    between atoms: C_9  and  N_10
REMARK   10  A    between atoms: C_13  and  C_14
REMARK   11  A    between atoms: C_13  and  C_15
REMARK   12  A    between atoms: N_18  and  C_19
REMARK   13  A    between atoms: C_19  and  C_20
REMARK   14  A    between atoms: C_20  and  C_21
REMARK                            x       y       z     vdW  Elec       q    Type
REMARK                         _______ _______ _______ _____ _____    ______ ____
ROOT
ATOM      1  N   UNL     1       5.966   4.226  18.899  0.00  0.00    +0.000 N 
ATOM      2  C   UNL     1       4.621   4.355  19.124  0.00  0.00    +0.000 C 
ATOM      3  N   UNL     1       4.009   3.272  19.467  0.00  0.00    +0.000 NA
ATOM      4  C   UNL     1       2.603   3.364  19.808  0.00  0.00    +0.000 C 
ATOM      5  C   UNL     1       2.473   2.941  21.276  0.00  0.00    +0.000 C 
ATOM      6  C   UNL     1       1.844   2.376  18.914  0.00  0.00    +0.000 C 
ATOM      7  N   UNL     1       2.025   4.665  19.702  0.00  0.00    +0.000 N 
ATOM      8  C   UNL     1       2.788   5.693  19.298  0.00  0.00    +0.000 C 
ATOM      9  N   UNL     1       2.059   6.845  19.241  0.00  0.00    +0.000 N 
ATOM     10  N   UNL     1       4.038   5.586  19.010  0.00  0.00    +0.000 NA
ATOM     11  H   UNL     1       6.271   3.301  19.174  0.00  0.00    +0.000 HD
ATOM     12  H   UNL     1       1.026   4.763  19.768  0.00  0.00    +0.000 HD
ATOM     13  H   UNL     1       1.411   6.959  20.010  0.00  0.00    +0.000 HD
ENDROOT
BRANCH   1  14
ATOM     14  C   UNL     1       6.866   5.308  19.246  0.00  0.00    +0.000 C 
BRANCH  14  15
ATOM     15  C   UNL     1       7.073   6.253  18.058  0.00  0.00    +0.000 C 
BRANCH  15  16
ATOM     16  C   UNL     1       7.118   5.517  16.712  0.00  0.00    +0.000 C 
BRANCH  16  17
ATOM     17  C   UNL     1       5.941   5.853  15.793  0.00  0.00    +0.000 C 
BRANCH  17  18
ATOM     18  C   UNL     1       5.258   4.593  15.257  0.00  0.00    +0.000 C 
BRANCH  18  19
ATOM     19  C   UNL     1       6.192   3.664  14.475  0.00  0.00    +0.000 C 
BRANCH  19  20
ATOM     20  C   UNL     1       6.362   3.914  12.970  0.00  0.00    +0.000 C 
BRANCH  20  22
ATOM     21  C   UNL     1       5.770   1.878  11.477  0.00  0.00    +0.000 C 
ATOM     22  C   UNL     1       5.369   3.238  12.020  0.00  0.00    +0.000 C 
ENDBRANCH  20  22
ENDBRANCH  19  20
ENDBRANCH  18  19
ENDBRANCH  17  18
ENDBRANCH  16  17
ENDBRANCH  15  16
ENDBRANCH  14  15
ENDBRANCH   1  14
BRANCH   9  23
ATOM     23  C   UNL     1       2.607   8.084  18.706  0.00  0.00    +0.000 C 
BRANCH  23  24
ATOM     24  C   UNL     1       1.621   8.726  17.722  0.00  0.00    +0.000 C 
BRANCH  24  25
ATOM     25  C   UNL     1       0.617   9.618  18.410  0.00  0.00    +0.000 A 
ATOM     26  C   UNL     1      -0.615   9.897  17.803  0.00  0.00    +0.000 A 
ATOM     27  C   UNL     1      -1.537  10.742  18.426  0.00  0.00    +0.000 A 
ATOM     28  C   UNL     1      -1.233  11.318  19.657  0.00  0.00    +0.000 A 
ATOM     29  C   UNL     1      -0.011  11.049  20.268  0.00  0.00    +0.000 A 
ATOM     30  C   UNL     1       0.913  10.204  19.649  0.00  0.00    +0.000 A 
ENDBRANCH  24  25
ENDBRANCH  23  24
ENDBRANCH   9  23
TORSDOF 11
ENDMDL
MODEL 4
REMARK VINA RESULT:      -7.3      2.499      8.139
REMARK  Name = 
REMARK  14 active torsions:
REMARK  status: ('A' for Active; 'I' for Inactive)
REMARK    1  A    between atoms: C_1  and  C_2
REMARK    2  A    between atoms: C_2  and  C_3
REMARK    3  A    between atoms: C_3  and  C_4
REMARK    4  A    between atoms: C_4  and  C_5
REMARK    5  A    between atoms: C_5  and  C_6
REMARK    6  A    between atoms: C_6  and  C_7
REMARK    7  A    between atoms: C_7  and  C_8
REMARK    8  A    between atoms: C_8  and  C_9
REMARK    9  A    between atoms: C_9  and  N_10
REMARK   10  A    between atoms: C_13  and  C_14
REMARK   11  A    between atoms: C_13  and  C_15
REMARK   12  A    between atoms: N_18  and  C_19
REMARK   13  A    between atoms: C_19  and  C_20
REMARK   14  A    between atoms: C_20  and  C_21
REMARK                            x       y       z     vdW  Elec       q    Type
REMARK                         _______ _______ _______ _____ _____    ______ ____
ROOT
ATOM      1  N   UNL     1       3.689   5.470  17.368  0.00  0.00    +0.000 N 
ATOM      2  C   UNL     1       2.925   5.198  18.473  0.00  0.00    +0.000 C 
ATOM      3  N   UNL     1       2.727   3.947  18.716  0.00  0.00    +0.000 NA
ATOM      4  C   UNL     1       2.005   3.595  19.923  0.00  0.00    +0.000 C 
ATOM      5  C   UNL     1       2.967   2.779  20.794  0.00  0.00    +0.000 C 
ATOM      6  C   UNL     1       0.812   2.724  19.511  0.00  0.00    +0.000 C 
ATOM      7  N   UNL     1       1.559   4.693  20.720  0.00  0.00    +0.000 N 
ATOM      8  C   UNL     1       1.817   5.947  20.314  0.00  0.00    +0.000 C 
ATOM      9  N   UNL     1       1.298   6.855  21.191  0.00  0.00    +0.000 N 
ATOM     10  N   UNL     1       2.469   6.232  19.243  0.00  0.00    +0.000 NA
ATOM     11  H   UNL     1       4.077   4.610  17.001  0.00  0.00    +0.000 HD
ATOM     12  H   UNL     1       0.919   4.519  21.476  0.00  0.00    +0.000 HD
ATOM     13  H   UNL     1       1.409   6.597  22.163  0.00  0.00    +0.000 HD
ENDROOT
BRANCH   1  14
ATOM     14  C   UNL     1       4.585   6.609  17.369  0.00  0.00    +0.000 C 
BRANCH  14  15
ATOM     15  C   UNL     1       5.644   6.476  16.270  0.00  0.00    +0.000 C 
BRANCH  15  16
ATOM     16  C   UNL     1       6.854   5.639  16.706  0.00  0.00    +0.000 C 
BRANCH  16  17
ATOM     17  C   UNL     1       7.260   4.574  15.683  0.00  0.00    +0.000 C 
BRANCH  17  18
ATOM     18  C   UNL     1       6.045   3.844  15.106  0.00  0.00    +0.000 C 
BRANCH  18  19
ATOM     19  C   UNL     1       5.691   4.260  13.675  0.00  0.00    +0.000 C 
BRANCH  19  20
ATOM     20  C   UNL     1       6.280   3.439  12.519  0.00  0.00    +0.000 C 
BRANCH  20  22
ATOM     21  C   UNL     1       4.027   3.236  11.253  0.00  0.00    +0.000 C 
ATOM     22  C   UNL     1       5.318   2.574  11.699  0.00  0.00    +0.000 C 
ENDBRANCH  20  22
ENDBRANCH  19  20
ENDBRANCH  18  19
ENDBRANCH  17  18
ENDBRANCH  16  17
ENDBRANCH  15  16
ENDBRANCH  14  15
ENDBRANCH   1  14
BRANCH   9  23
ATOM     23  C   UNL     1       1.318   8.287  20.925  0.00  0.00    +0.000 C 
BRANCH  23  24
ATOM     24  C   UNL     1       1.231   9.077  22.237  0.00  0.00    +0.000 C 
BRANCH  24  25
ATOM     25  C   UNL     1       0.225  10.200  22.168  0.00  0.00    +0.000 A 
ATOM     26  C   UNL     1      -0.767  10.323  23.152  0.00  0.00    +0.000 A 
ATOM     27  C   UNL     1      -1.715  11.346  23.078  0.00  0.00    +0.000 A 
ATOM     28  C   UNL     1      -1.683  12.251  22.020  0.00  0.00    +0.000 A 
ATOM     29  C   UNL     1      -0.703  12.137  21.036  0.00  0.00    +0.000 A 
ATOM     30  C   UNL     1       0.247  11.116  21.107  0.00  0.00    +0.000 A 
ENDBRANCH  24  25
ENDBRANCH  23  24
ENDBRANCH   9  23
TORSDOF 11
ENDMDL
MODEL 5
REMARK VINA RESULT:      -7.1      0.659      1.165
REMARK  Name = 
REMARK  14 active torsions:
REMARK  status: ('A' for Active; 'I' for Inactive)
REMARK    1  A    between atoms: C_1  and  C_2
REMARK    2  A    between atoms: C_2  and  C_3
REMARK    3  A    between atoms: C_3  and  C_4
REMARK    4  A    between atoms: C_4  and  C_5
REMARK    5  A    between atoms: C_5  and  C_6
REMARK    6  A    between atoms: C_6  and  C_7
REMARK    7  A    between atoms: C_7  and  C_8
REMARK    8  A    between atoms: C_8  and  C_9
REMARK    9  A    between atoms: C_9  and  N_10
REMARK   10  A    between atoms: C_13  and  C_14
REMARK   11  A    between atoms: C_13  and  C_15
REMARK   12  A    between atoms: N_18  and  C_19
REMARK   13  A    between atoms: C_19  and  C_20
REMARK   14  A    between atoms: C_20  and  C_21
REMARK                            x       y       z     vdW  Elec       q    Type
REMARK                         _______ _______ _______ _____ _____    ______ ____
ROOT
ATOM      1  N   UNL     1       2.549   7.089  19.645  0.00  0.00    +0.000 N 
ATOM      2  C   UNL     1       2.711   5.750  19.406  0.00  0.00    +0.000 C 
ATOM      3  N   UNL     1       2.200   4.961  20.290  0.00  0.00    +0.000 NA
ATOM      4  C   UNL     1       2.260   3.534  20.044  0.00  0.00    +0.000 C 
ATOM      5  C   UNL     1       0.812   3.040  19.944  0.00  0.00    +0.000 C 
ATOM      6  C   UNL     1       2.948   2.884  21.250  0.00  0.00    +0.000 C 
ATOM      7  N   UNL     1       2.912   3.141  18.836  0.00  0.00    +0.000 N 
ATOM      8  C   UNL     1       3.425   4.084  18.029  0.00  0.00    +0.000 C 
ATOM      9  N   UNL     1       4.022   3.517  16.941  0.00  0.00    +0.000 N 
ATOM     10  N   UNL     1       3.350   5.346  18.266  0.00  0.00    +0.000 NA
ATOM     11  H   UNL     1       1.928   7.222  20.434  0.00  0.00    +0.000 HD
ATOM     12  H   UNL     1       3.126   2.169  18.690  0.00  0.00    +0.000 HD
ATOM     13  H   UNL     1       3.512   2.734  16.554  0.00  0.00    +0.000 HD
ENDROOT
BRANCH   1  14
ATOM     14  C   UNL     1       2.358   8.006  18.539  0.00  0.00    +0.000 C 
BRANCH  14  15
ATOM     15  C   UNL     1       1.605   9.262  18.989  0.00  0.00    +0.000 C 
BRANCH  15  16
ATOM     16  C   UNL     1       0.973   9.111  20.380  0.00  0.00    +0.000 C 
BRANCH  16  17
ATOM     17  C   UNL     1      -0.507   9.498  20.424  0.00  0.00    +0.000 C 
BRANCH  17  18
ATOM     18  C   UNL     1      -0.705  11.011  20.302  0.00  0.00    +0.000 C 
BRANCH  18  19
ATOM     19  C   UNL     1      -1.176  11.466  18.916  0.00  0.00    +0.000 C 
BRANCH  19  20
ATOM     20  C   UNL     1      -1.786  10.412  17.981  0.00  0.00    +0.000 C 
BRANCH  20  22
ATOM     21  C   UNL     1      -2.941   9.838  15.731  0.00  0.00    +0.000 C 
ATOM     22  C   UNL     1      -2.470  10.906  16.702  0.00  0.00    +0.000 C 
ENDBRANCH  20  22
ENDBRANCH  19  20
ENDBRANCH  18  19
ENDBRANCH  17  18
ENDBRANCH  16  17
ENDBRANCH  15  16
ENDBRANCH  14  15
ENDBRANCH   1  14
BRANCH   9  23
ATOM     23  C   UNL     1       4.774   4.304  15.972  0.00  0.00    +0.000 C 
BRANCH  23  24
ATOM     24  C   UNL     1       6.281   4.098  16.169  0.00  0.00    +0.000 C 
BRANCH  24  25
ATOM     25  C   UNL     1       6.894   5.145  17.066  0.00  0.00    +0.000 A 
ATOM     26  C   UNL     1       7.013   6.471  16.627  0.00  0.00    +0.000 A 
ATOM     27  C   UNL     1       7.602   7.438  17.445  0.00  0.00    +0.000 A 
ATOM     28  C   UNL     1       8.079   7.088  18.706  0.00  0.00    +0.000 A 
ATOM     29  C   UNL     1       7.967   5.773  19.151  0.00  0.00    +0.000 A 
ATOM     30  C   UNL     1       7.379   4.804  18.337  0.00  0.00    +0.000 A 
ENDBRANCH  24  25
ENDBRANCH  23  24
ENDBRANCH   9  23
TORSDOF 11
ENDMDL
MODEL 6
REMARK VINA RESULT:      -7.1      1.054      1.496
REMARK  Name = 
REMARK  14 active torsions:
REMARK  status: ('A' for Active; 'I' for Inactive)
REMARK    1  A    between atoms: C_1  and  C_2
REMARK    2  A    between atoms: C_2  and  C_3
REMARK    3  A    between atoms: C_3  and  C_4
REMARK    4  A    between atoms: C_4  and  C_5
REMARK    5  A    between atoms: C_5  and  C_6
REMARK    6  A    between atoms: C_6  and  C_7
REMARK    7  A    between atoms: C_7  and  C_8
REMARK    8  A    between atoms: C_8  and  C_9
REMARK    9  A    between atoms: C_9  and  N_10
REMARK   10  A    between atoms: C_13  and  C_14
REMARK   11  A    between atoms: C_13  and  C_15
REMARK   12  A    between atoms: N_18  and  C_19
REMARK   13  A    between atoms: C_19  and  C_20
REMARK   14  A    between atoms: C_20  and  C_21
REMARK                            x       y       z     vdW  Elec       q    Type
REMARK                         _______ _______ _______ _____ _____    ______ ____
ROOT
ATOM      1  N   UNL     1       2.607   6.254  19.057  0.00  0.00    +0.000 N 
ATOM      2  C   UNL     1       3.118   5.013  18.784  0.00  0.00    +0.000 C 
ATOM      3  N   UNL     1       2.853   4.099  19.655  0.00  0.00    +0.000 NA
ATOM      4  C   UNL     1       3.288   2.745  19.374  0.00  0.00    +0.000 C 
ATOM      5  C   UNL     1       2.024   1.883  19.278  0.00  0.00    +0.000 C 
ATOM      6  C   UNL     1       4.146   2.280  20.556  0.00  0.00    +0.000 C 
ATOM      7  N   UNL     1       4.001   2.566  18.150  0.00  0.00    +0.000 N 
ATOM      8  C   UNL     1       4.229   3.628  17.360  0.00  0.00    +0.000 C 
ATOM      9  N   UNL     1       4.937   3.264  16.252  0.00  0.00    +0.000 N 
ATOM     10  N   UNL     1       3.823   4.819  17.629  0.00  0.00    +0.000 NA
ATOM     11  H   UNL     1       1.987   6.200  19.856  0.00  0.00    +0.000 HD
ATOM     12  H   UNL     1       4.465   1.690  17.978  0.00  0.00    +0.000 HD
ATOM     13  H   UNL     1       4.649   2.380  15.852  0.00  0.00    +0.000 HD
ENDROOT
BRANCH   1  14
ATOM     14  C   UNL     1       2.158   7.109  17.976  0.00  0.00    +0.000 C 
BRANCH  14  15
ATOM     15  C   UNL     1       2.473   8.578  18.269  0.00  0.00    +0.000 C 
BRANCH  15  16
ATOM     16  C   UNL     1       1.372   9.532  17.784  0.00  0.00    +0.000 C 
BRANCH  16  17
ATOM     17  C   UNL     1       0.997  10.603  18.811  0.00  0.00    +0.000 C 
BRANCH  17  18
ATOM     18  C   UNL     1      -0.398  11.177  18.554  0.00  0.00    +0.000 C 
BRANCH  18  19
ATOM     19  C   UNL     1      -1.538  10.197  18.849  0.00  0.00    +0.000 C 
BRANCH  19  20
ATOM     20  C   UNL     1      -2.582   9.954  17.750  0.00  0.00    +0.000 C 
BRANCH  20  22
ATOM     21  C   UNL     1      -3.198  10.017  15.232  0.00  0.00    +0.000 C 
ATOM     22  C   UNL     1      -2.267  10.470  16.343  0.00  0.00    +0.000 C 
ENDBRANCH  20  22
ENDBRANCH  19  20
ENDBRANCH  18  19
ENDBRANCH  17  18
ENDBRANCH  16  17
ENDBRANCH  15  16
ENDBRANCH  14  15
ENDBRANCH   1  14
BRANCH   9  23
ATOM     23  C   UNL     1       5.434   4.242  15.294  0.00  0.00    +0.000 C 
BRANCH  23  24
ATOM     24  C   UNL     1       6.948   4.431  15.457  0.00  0.00    +0.000 C 
BRANCH  24  25
ATOM     25  C   UNL     1       7.298   5.287  16.649  0.00  0.00    +0.000 A 
ATOM     26  C   UNL     1       7.261   6.686  16.552  0.00  0.00    +0.000 A 
ATOM     27  C   UNL     1       7.608   7.482  17.645  0.00  0.00    +0.000 A 
ATOM     28  C   UNL     1       7.997   6.889  18.844  0.00  0.00    +0.000 A 
ATOM     29  C   UNL     1       8.038   5.500  18.951  0.00  0.00    +0.000 A 
ATOM     30  C   UNL     1       7.692   4.701  17.860  0.00  0.00    +0.000 A 
ENDBRANCH  24  25
ENDBRANCH  23  24
ENDBRANCH   9  23
TORSDOF 11
ENDMDL
MODEL 7
REMARK VINA RESULT:      -7.1      2.077      8.109
REMARK  Name = 
REMARK  14 active torsions:
REMARK  status: ('A' for Active; 'I' for Inactive)
REMARK    1  A    between atoms: C_1  and  C_2
REMARK    2  A    between atoms: C_2  and  C_3
REMARK    3  A    between atoms: C_3  and  C_4
REMARK    4  A    between atoms: C_4  and  C_5
REMARK    5  A    between atoms: C_5  and  C_6
REMARK    6  A    between atoms: C_6  and  C_7
REMARK    7  A    between atoms: C_7  and  C_8
REMARK    8  A    between atoms: C_8  and  C_9
REMARK    9  A    between atoms: C_9  and  N_10
REMARK   10  A    between atoms: C_13  and  C_14
REMARK   11  A    between atoms: C_13  and  C_15
REMARK   12  A    between atoms: N_18  and  C_19
REMARK   13  A    between atoms: C_19  and  C_20
REMARK   14  A    between atoms: C_20  and  C_21
REMARK                            x       y       z     vdW  Elec       q    Type
REMARK                         _______ _______ _______ _____ _____    ______ ____
ROOT
ATOM      1  N   UNL     1       4.994   3.757  18.179  0.00  0.00    +0.000 N 
ATOM      2  C   UNL     1       3.833   4.186  18.769  0.00  0.00    +0.000 C 
ATOM      3  N   UNL     1       3.160   3.281  19.393  0.00  0.00    +0.000 NA
ATOM      4  C   UNL     1       1.972   3.693  20.115  0.00  0.00    +0.000 C 
ATOM      5  C   UNL     1       2.220   3.380  21.595  0.00  0.00    +0.000 C 
ATOM      6  C   UNL     1       0.800   2.852  19.595  0.00  0.00    +0.000 C 
ATOM      7  N   UNL     1       1.652   5.082  20.037  0.00  0.00    +0.000 N 
ATOM      8  C   UNL     1       2.438   5.899  19.316  0.00  0.00    +0.000 C 
ATOM      9  N   UNL     1       1.962   7.177  19.345  0.00  0.00    +0.000 N 
ATOM     10  N   UNL     1       3.493   5.508  18.692  0.00  0.00    +0.000 NA
ATOM     11  H   UNL     1       5.184   2.802  18.455  0.00  0.00    +0.000 HD
ATOM     12  H   UNL     1       0.760   5.398  20.378  0.00  0.00    +0.000 HD
ATOM     13  H   UNL     1       1.617   7.467  20.250  0.00  0.00    +0.000 HD
ENDROOT
BRANCH   1  14
ATOM     14  C   UNL     1       6.148   4.633  18.127  0.00  0.00    +0.000 C 
BRANCH  14  15
ATOM     15  C   UNL     1       7.009   4.334  16.896  0.00  0.00    +0.000 C 
BRANCH  15  16
ATOM     16  C   UNL     1       7.083   5.515  15.919  0.00  0.00    +0.000 C 
BRANCH  16  17
ATOM     17  C   UNL     1       6.878   5.111  14.456  0.00  0.00    +0.000 C 
BRANCH  17  18
ATOM     18  C   UNL     1       6.017   3.853  14.327  0.00  0.00    +0.000 C 
BRANCH  18  19
ATOM     19  C   UNL     1       5.707   3.459  12.879  0.00  0.00    +0.000 C 
BRANCH  19  20
ATOM     20  C   UNL     1       6.858   3.484  11.863  0.00  0.00    +0.000 C 
BRANCH  20  22
ATOM     21  C   UNL     1       6.246   1.107  11.027  0.00  0.00    +0.000 C 
ATOM     22  C   UNL     1       7.324   2.146  11.282  0.00  0.00    +0.000 C 
ENDBRANCH  20  22
ENDBRANCH  19  20
ENDBRANCH  18  19
ENDBRANCH  17  18
ENDBRANCH  16  17
ENDBRANCH  15  16
ENDBRANCH  14  15
ENDBRANCH   1  14
BRANCH   9  23
ATOM     23  C   UNL     1       2.548   8.240  18.538  0.00  0.00    +0.000 C 
BRANCH  23  24
ATOM     24  C   UNL     1       1.476   8.901  17.662  0.00  0.00    +0.000 C 
BRANCH  24  25
ATOM     25  C   UNL     1       0.575   9.822  18.449  0.00  0.00    +0.000 A 
ATOM     26  C   UNL     1      -0.743  10.049  18.031  0.00  0.00    +0.000 A 
ATOM     27  C   UNL     1      -1.572  10.919  18.742  0.00  0.00    +0.000 A 
ATOM     28  C   UNL     1      -1.090  11.572  19.874  0.00  0.00    +0.000 A 
ATOM     29  C   UNL     1       0.219  11.354  20.297  0.00  0.00    +0.000 A 
ATOM     30  C   UNL     1       1.050  10.485  19.589  0.00  0.00    +0.000 A 
ENDBRANCH  24  25
ENDBRANCH  23  24
ENDBRANCH   9  23
TORSDOF 11
ENDMDL
MODEL 8
REMARK VINA RESULT:      -7.0      1.294      2.234
REMARK  Name = 
REMARK  14 active torsions:
REMARK  status: ('A' for Active; 'I' for Inactive)
REMARK    1  A    between atoms: C_1  and  C_2
REMARK    2  A    between atoms: C_2  and  C_3
REMARK    3  A    between atoms: C_3  and  C_4
REMARK    4  A    between atoms: C_4  and  C_5
REMARK    5  A    between atoms: C_5  and  C_6
REMARK    6  A    between atoms: C_6  and  C_7
REMARK    7  A    between atoms: C_7  and  C_8
REMARK    8  A    between atoms: C_8  and  C_9
REMARK    9  A    between atoms: C_9  and  N_10
REMARK   10  A    between atoms: C_13  and  C_14
REMARK   11  A    between atoms: C_13  and  C_15
REMARK   12  A    between atoms: N_18  and  C_19
REMARK   13  A    between atoms: C_19  and  C_20
REMARK   14  A    between atoms: C_20  and  C_21
REMARK                            x       y       z     vdW  Elec       q    Type
REMARK                         _______ _______ _______ _____ _____    ______ ____
ROOT
ATOM      1  N   UNL     1       1.910   6.968  19.335  0.00  0.00    +0.000 N 
ATOM      2  C   UNL     1       2.535   5.764  19.527  0.00  0.00    +0.000 C 
ATOM      3  N   UNL     1       1.755   4.760  19.746  0.00  0.00    +0.000 NA
ATOM      4  C   UNL     1       2.353   3.446  19.864  0.00  0.00    +0.000 C 
ATOM      5  C   UNL     1       1.790   2.596  18.718  0.00  0.00    +0.000 C 
ATOM      6  C   UNL     1       1.917   2.857  21.211  0.00  0.00    +0.000 C 
ATOM      7  N   UNL     1       3.776   3.401  19.748  0.00  0.00    +0.000 N 
ATOM      8  C   UNL     1       4.456   4.543  19.551  0.00  0.00    +0.000 C 
ATOM      9  N   UNL     1       5.797   4.302  19.486  0.00  0.00    +0.000 N 
ATOM     10  N   UNL     1       3.898   5.697  19.441  0.00  0.00    +0.000 NA
ATOM     11  H   UNL     1       0.909   6.826  19.273  0.00  0.00    +0.000 HD
ATOM     12  H   UNL     1       4.259   2.549  19.980  0.00  0.00    +0.000 HD
ATOM     13  H   UNL     1       6.040   3.466  18.970  0.00  0.00    +0.000 HD
ENDROOT
BRANCH   1  14
ATOM     14  C   UNL     1       2.462   7.933  18.405  0.00  0.00    +0.000 C 
BRANCH  14  15
ATOM     15  C   UNL     1       1.596   9.194  18.343  0.00  0.00    +0.000 C 
BRANCH  15  16
ATOM     16  C   UNL     1       0.811   9.442  19.638  0.00  0.00    +0.000 C 
BRANCH  16  17
ATOM     17  C   UNL     1      -0.301  10.483  19.488  0.00  0.00    +0.000 C 
BRANCH  17  18
ATOM     18  C   UNL     1      -1.416   9.998  18.559  0.00  0.00    +0.000 C 
BRANCH  18  19
ATOM     19  C   UNL     1      -2.105  11.121  17.777  0.00  0.00    +0.000 C 
BRANCH  19  20
ATOM     20  C   UNL     1      -2.256  10.952  16.258  0.00  0.00    +0.000 C 
BRANCH  20  22
ATOM     21  C   UNL     1      -3.693  10.063  14.291  0.00  0.00    +0.000 C 
ATOM     22  C   UNL     1      -3.641  10.582  15.717  0.00  0.00    +0.000 C 
ENDBRANCH  20  22
ENDBRANCH  19  20
ENDBRANCH  18  19
ENDBRANCH  17  18
ENDBRANCH  16  17
ENDBRANCH  15  16
ENDBRANCH  14  15
ENDBRANCH   1  14
BRANCH   9  23
ATOM     23  C   UNL     1       6.775   5.379  19.411  0.00  0.00    +0.000 C 
BRANCH  23  24
ATOM     24  C   UNL     1       7.656   5.219  18.165  0.00  0.00    +0.000 C 
BRANCH  24  25
ATOM     25  C   UNL     1       6.849   5.179  16.890  0.00  0.00    +0.000 A 
ATOM     26  C   UNL     1       6.982   4.103  16.002  0.00  0.00    +0.000 A 
ATOM     27  C   UNL     1       6.256   4.074  14.809  0.00  0.00    +0.000 A 
ATOM     28  C   UNL     1       5.394   5.122  14.493  0.00  0.00    +0.000 A 
ATOM     29  C   UNL     1       5.255   6.197  15.368  0.00  0.00    +0.000 A 
ATOM     30  C   UNL     1       5.980   6.228  16.561  0.00  0.00    +0.000 A 
ENDBRANCH  24  25
ENDBRANCH  23  24
ENDBRANCH   9  23
TORSDOF 11
ENDMDL
MODEL 9
REMARK VINA RESULT:      -7.0      2.634      7.825
REMARK  Name = 
REMARK  14 active torsions:
REMARK  status: ('A' for Active; 'I' for Inactive)
REMARK    1  A    between atoms: C_1  and  C_2
REMARK    2  A    between atoms: C_2  and  C_3
REMARK    3  A    between atoms: C_3  and  C_4
REMARK    4  A    between atoms: C_4  and  C_5
REMARK    5  A    between atoms: C_5  and  C_6
REMARK    6  A    between atoms: C_6  and  C_7
REMARK    7  A    between atoms: C_7  and  C_8
REMARK    8  A    between atoms: C_8  and  C_9
REMARK    9  A    between atoms: C_9  and  N_10
REMARK   10  A    between atoms: C_13  and  C_14
REMARK   11  A    between atoms: C_13  and  C_15
REMARK   12  A    between atoms: N_18  and  C_19
REMARK   13  A    between atoms: C_19  and  C_20
REMARK   14  A    between atoms: C_20  and  C_21
REMARK                            x       y       z     vdW  Elec       q    Type
REMARK                         _______ _______ _______ _____ _____    ______ ____
ROOT
ATOM      1  N   UNL     1       6.376   4.485  18.553  0.00  0.00    +0.000 N 
ATOM      2  C   UNL     1       5.006   4.467  18.536  0.00  0.00    +0.000 C 
ATOM      3  N   UNL     1       4.464   3.307  18.689  0.00  0.00    +0.000 NA
ATOM      4  C   UNL     1       3.018   3.237  18.773  0.00  0.00    +0.000 C 
ATOM      5  C   UNL     1       2.680   2.680  20.162  0.00  0.00    +0.000 C 
ATOM      6  C   UNL     1       2.538   2.262  17.692  0.00  0.00    +0.000 C 
ATOM      7  N   UNL     1       2.330   4.482  18.651  0.00  0.00    +0.000 N 
ATOM      8  C   UNL     1       3.038   5.608  18.462  0.00  0.00    +0.000 C 
ATOM      9  N   UNL     1       2.209   6.687  18.350  0.00  0.00    +0.000 N 
ATOM     10  N   UNL     1       4.322   5.643  18.400  0.00  0.00    +0.000 NA
ATOM     11  H   UNL     1       6.726   3.573  18.816  0.00  0.00    +0.000 HD
ATOM     12  H   UNL     1       1.330   4.479  18.540  0.00  0.00    +0.000 HD
ATOM     13  H   UNL     1       1.429   6.674  18.993  0.00  0.00    +0.000 HD
ENDROOT
BRANCH   1  14
ATOM     14  C   UNL     1       7.080   5.614  19.129  0.00  0.00    +0.000 C 
BRANCH  14  15
ATOM     15  C   UNL     1       7.458   6.634  18.051  0.00  0.00    +0.000 C 
BRANCH  15  16
ATOM     16  C   UNL     1       8.489   7.661  18.538  0.00  0.00    +0.000 C 
BRANCH  16  17
ATOM     17  C   UNL     1       8.206   9.087  18.057  0.00  0.00    +0.000 C 
BRANCH  17  18
ATOM     18  C   UNL     1       8.932  10.131  18.907  0.00  0.00    +0.000 C 
BRANCH  18  19
ATOM     19  C   UNL     1       9.730  11.152  18.089  0.00  0.00    +0.000 C 
BRANCH  19  20
ATOM     20  C   UNL     1      11.207  11.365  18.448  0.00  0.00    +0.000 C 
BRANCH  20  22
ATOM     21  C   UNL     1      10.659  13.029  20.360  0.00  0.00    +0.000 C 
ATOM     22  C   UNL     1      11.530  11.896  19.848  0.00  0.00    +0.000 C 
ENDBRANCH  20  22
ENDBRANCH  19  20
ENDBRANCH  18  19
ENDBRANCH  17  18
ENDBRANCH  16  17
ENDBRANCH  15  16
ENDBRANCH  14  15
ENDBRANCH   1  14
BRANCH   9  23
ATOM     23  C   UNL     1       2.706   8.013  18.007  0.00  0.00    +0.000 C 
BRANCH  23  24
ATOM     24  C   UNL     1       1.539   8.957  17.690  0.00  0.00    +0.000 C 
BRANCH  24  25
ATOM     25  C   UNL     1       1.325   9.991  18.769  0.00  0.00    +0.000 A 
ATOM     26  C   UNL     1       0.721   9.633  19.982  0.00  0.00    +0.000 A 
ATOM     27  C   UNL     1       0.498  10.592  20.973  0.00  0.00    +0.000 A 
ATOM     28  C   UNL     1       0.873  11.916  20.758  0.00  0.00    +0.000 A 
ATOM     29  C   UNL     1       1.473  12.283  19.555  0.00  0.00    +0.000 A 
ATOM     30  C   UNL     1       1.697  11.327  18.563  0.00  0.00    +0.000 A 
ENDBRANCH  24  25
ENDBRANCH  23  24
ENDBRANCH   9  23
TORSDOF 11
ENDMDL
