MODEL 1
REMARK VINA RESULT:      -8.1      0.000      0.000
REMARK  Name = 
REMARK  6 active torsions:
REMARK  status: ('A' for Active; 'I' for Inactive)
REMARK    1  A    between atoms: N_3  and  C_4
REMARK    2  A    between atoms: N_12  and  C1*_13
REMARK    3  A    between atoms: C4*_15  and  C5*_16
REMARK    4  A    between atoms: C5*_16  and  O5*_17
REMARK    5  A    between atoms: C3*_18  and  O3*_19
REMARK    6  A    between atoms: C2*_20  and  O2*_21
REMARK                            x       y       z     vdW  Elec       q    Type
REMARK                         _______ _______ _______ _____ _____    ______ ____
ROOT
ATOM      1  C   UNL     1       7.086   6.069  17.422  0.00  0.00    +0.000 A 
ATOM      2  C   UNL     1       7.963   6.123  18.514  0.00  0.00    +0.000 A 
ATOM      3  C   UNL     1       7.555   5.589  19.730  0.00  0.00    +0.000 A 
ATOM      4  N   UNL     1       6.359   5.007  19.976  0.00  0.00    +0.000 NA
ATOM      5  C   UNL     1       5.543   4.993  18.901  0.00  0.00    +0.000 A 
ATOM      6  C   UNL     1       5.826   5.490  17.636  0.00  0.00    +0.000 A 
ATOM      7  C   UNL     1       4.651   5.235  16.893  0.00  0.00    +0.000 A 
ATOM      8  N   UNL     1       3.700   4.618  17.605  0.00  0.00    +0.000 NA
ATOM      9  N   UNL     1       4.272   4.481  18.833  0.00  0.00    +0.000 N 
ENDROOT
BRANCH   9  10
ATOM     10  C1* UNL     1       3.561   3.827  19.920  0.00  0.00    +0.000 C 
ATOM     11  O4* UNL     1       3.220   2.471  19.525  0.00  0.00    +0.000 OA
ATOM     12  C4* UNL     1       1.855   2.202  19.924  0.00  0.00    +0.000 C 
ATOM     13  C3* UNL     1       1.430   3.358  20.822  0.00  0.00    +0.000 C 
ATOM     14  C2* UNL     1       2.260   4.527  20.312  0.00  0.00    +0.000 C 
BRANCH  13  15
ATOM     15  O3* UNL     1       1.796   3.124  22.197  0.00  0.00    +0.000 OA
ATOM     16  H3* UNL     1       2.417   3.820  22.483  0.00  0.00    +0.000 HD
ENDBRANCH  13  15
BRANCH  14  17
ATOM     17  O2* UNL     1       2.432   5.513  21.331  0.00  0.00    +0.000 OA
ATOM     18  H2* UNL     1       2.641   5.021  22.155  0.00  0.00    +0.000 HD
ENDBRANCH  14  17
BRANCH  12  19
ATOM     19  C5* UNL     1       0.977   2.057  18.678  0.00  0.00    +0.000 C 
BRANCH  19  20
ATOM     20  O5* UNL     1       1.793   2.020  17.509  0.00  0.00    +0.000 OA
ATOM     21  H5* UNL     1       2.529   1.414  17.716  0.00  0.00    +0.000 HD
ENDBRANCH  19  20
ENDBRANCH  12  19
ENDBRANCH   9  10
BRANCH   1  24
ATOM     22  N   UNL     1       7.589   4.936  14.424  0.00  0.00    +0.000 NA
ATOM     23  N   UNL     1       7.462   5.719  15.243  0.00  0.00    +0.000 NA
ATOM     24  N   UNL     1       7.332   6.577  16.137  0.00  0.00    +0.000 NA
ENDBRANCH   1  24
TORSDOF 6
ENDMDL
MODEL 2
REMARK VINA RESULT:      -7.5      1.640      3.152
REMARK  Name = 
REMARK  6 active torsions:
REMARK  status: ('A' for Active; 'I' for Inactive)
REMARK    1  A    between atoms: N_3  and  C_4
REMARK    2  A    between atoms: N_12  and  C1*_13
REMARK    3  A    between atoms: C4*_15  and  C5*_16
REMARK    4  A    between atoms: C5*_16  and  O5*_17
REMARK    5  A    between atoms: C3*_18  and  O3*_19
REMARK    6  A    between atoms: C2*_20  and  O2*_21
REMARK                            x       y       z     vdW  Elec       q    Type
REMARK                         _______ _______ _______ _____ _____    ______ ____
ROOT
ATOM      1  C   UNL     1       6.746   5.559  17.044  0.00  0.00    +0.000 A 
ATOM      2  C   UNL     1       6.660   5.001  15.761  0.00  0.00    +0.000 A 
ATOM      3  C   UNL     1       5.534   4.261  15.425  0.00  0.00    +0.000 A 
ATOM      4  N   UNL     1       4.479   4.015  16.235  0.00  0.00    +0.000 NA
ATOM      5  C   UNL     1       4.614   4.557  17.464  0.00  0.00    +0.000 A 
ATOM      6  C   UNL     1       5.683   5.313  17.926  0.00  0.00    +0.000 A 
ATOM      7  C   UNL     1       5.334   5.627  19.259  0.00  0.00    +0.000 A 
ATOM      8  N   UNL     1       4.145   5.133  19.624  0.00  0.00    +0.000 NA
ATOM      9  N   UNL     1       3.724   4.481  18.506  0.00  0.00    +0.000 N 
ENDROOT
BRANCH   9  10
ATOM     10  C1* UNL     1       2.436   3.807  18.474  0.00  0.00    +0.000 C 
ATOM     11  O4* UNL     1       1.606   4.303  19.559  0.00  0.00    +0.000 OA
ATOM     12  C4* UNL     1       0.953   3.177  20.193  0.00  0.00    +0.000 C 
ATOM     13  C3* UNL     1       1.202   1.970  19.296  0.00  0.00    +0.000 C 
ATOM     14  C2* UNL     1       2.533   2.290  18.631  0.00  0.00    +0.000 C 
BRANCH  13  15
ATOM     15  O3* UNL     1       0.205   1.866  18.259  0.00  0.00    +0.000 OA
ATOM     16  H3* UNL     1      -0.615   2.300  18.562  0.00  0.00    +0.000 HD
ENDBRANCH  13  15
BRANCH  14  17
ATOM     17  O2* UNL     1       2.660   1.599  17.388  0.00  0.00    +0.000 OA
ATOM     18  H2* UNL     1       3.487   1.073  17.450  0.00  0.00    +0.000 HD
ENDBRANCH  14  17
BRANCH  12  19
ATOM     19  C5* UNL     1       1.506   2.995  21.609  0.00  0.00    +0.000 C 
BRANCH  19  20
ATOM     20  O5* UNL     1       2.442   4.031  21.902  0.00  0.00    +0.000 OA
ATOM     21  H5* UNL     1       2.559   4.019  22.871  0.00  0.00    +0.000 HD
ENDBRANCH  19  20
ENDBRANCH  12  19
ENDBRANCH   9  10
BRANCH   1  24
ATOM     22  N   UNL     1       7.597   8.676  17.326  0.00  0.00    +0.000 NA
ATOM     23  N   UNL     1       7.699   7.547  17.435  0.00  0.00    +0.000 NA
ATOM     24  N   UNL     1       7.818   6.311  17.549  0.00  0.00    +0.000 NA
ENDBRANCH   1  24
TORSDOF 6
ENDMDL
MODEL 3
REMARK VINA RESULT:      -7.3      1.489      2.498
REMARK  Name = 
REMARK  6 active torsions:
REMARK  status: ('A' for Active; 'I' for Inactive)
REMARK    1  A    between atoms: N_3  and  C_4
REMARK    2  A    between atoms: N_12  and  C1*_13
REMARK    3  A    between atoms: C4*_15  and  C5*_16
REMARK    4  A    between atoms: C5*_16  and  O5*_17
REMARK    5  A    between atoms: C3*_18  and  O3*_19
REMARK    6  A    between atoms: C2*_20  and  O2*_21
REMARK                            x       y       z     vdW  Elec       q    Type
REMARK                         _______ _______ _______ _____ _____    ______ ____
ROOT
ATOM      1  C   UNL     1       6.795   5.042  15.487  0.00  0.00    +0.000 A 
ATOM      2  C   UNL     1       5.715   4.501  14.777  0.00  0.00    +0.000 A 
ATOM      3  C   UNL     1       4.620   4.021  15.483  0.00  0.00    +0.000 A 
ATOM      4  N   UNL     1       4.486   4.018  16.829  0.00  0.00    +0.000 NA
ATOM      5  C   UNL     1       5.556   4.532  17.470  0.00  0.00    +0.000 A 
ATOM      6  C   UNL     1       6.709   5.042  16.888  0.00  0.00    +0.000 A 
ATOM      7  C   UNL     1       7.505   5.439  17.985  0.00  0.00    +0.000 A 
ATOM      8  N   UNL     1       6.919   5.220  19.169  0.00  0.00    +0.000 NA
ATOM      9  N   UNL     1       5.726   4.663  18.826  0.00  0.00    +0.000 N 
ENDROOT
BRANCH   9  10
ATOM     10  C1* UNL     1       4.757   4.284  19.843  0.00  0.00    +0.000 C 
ATOM     11  O4* UNL     1       4.672   2.836  19.910  0.00  0.00    +0.000 OA
ATOM     12  C4* UNL     1       3.277   2.458  19.995  0.00  0.00    +0.000 C 
ATOM     13  C3* UNL     1       2.495   3.743  20.242  0.00  0.00    +0.000 C 
ATOM     14  C2* UNL     1       3.348   4.812  19.575  0.00  0.00    +0.000 C 
BRANCH  13  15
ATOM     15  O3* UNL     1       2.416   4.055  21.648  0.00  0.00    +0.000 OA
ATOM     16  H3* UNL     1       2.902   3.374  22.151  0.00  0.00    +0.000 HD
ENDBRANCH  13  15
BRANCH  14  17
ATOM     17  O2* UNL     1       3.104   6.094  20.154  0.00  0.00    +0.000 OA
ATOM     18  H2* UNL     1       2.821   6.678  19.418  0.00  0.00    +0.000 HD
ENDBRANCH  14  17
BRANCH  12  19
ATOM     19  C5* UNL     1       2.861   1.741  18.708  0.00  0.00    +0.000 C 
BRANCH  19  20
ATOM     20  O5* UNL     1       4.019   1.291  18.007  0.00  0.00    +0.000 OA
ATOM     21  H5* UNL     1       4.461   2.095  17.677  0.00  0.00    +0.000 HD
ENDBRANCH  19  20
ENDBRANCH  12  19
ENDBRANCH   9  10
BRANCH   1  24
ATOM     22  N   UNL     1       8.046   5.601  12.548  0.00  0.00    +0.000 NA
ATOM     23  N   UNL     1       8.012   5.579  13.686  0.00  0.00    +0.000 NA
ATOM     24  N   UNL     1       7.980   5.548  14.932  0.00  0.00    +0.000 NA
ENDBRANCH   1  24
TORSDOF 6
ENDMDL
MODEL 4
REMARK VINA RESULT:      -7.3      1.203      1.505
REMARK  Name = 
REMARK  6 active torsions:
REMARK  status: ('A' for Active; 'I' for Inactive)
REMARK    1  A    between atoms: N_3  and  C_4
REMARK    2  A    between atoms: N_12  and  C1*_13
REMARK    3  A    between atoms: C4*_15  and  C5*_16
REMARK    4  A    between atoms: C5*_16  and  O5*_17
REMARK    5  A    between atoms: C3*_18  and  O3*_19
REMARK    6  A    between atoms: C2*_20  and  O2*_21
REMARK                            x       y       z     vdW  Elec       q    Type
REMARK                         _______ _______ _______ _____ _____    ______ ____
ROOT
ATOM      1  C   UNL     1       6.716   5.355  15.709  0.00  0.00    +0.000 A 
ATOM      2  C   UNL     1       7.363   6.363  16.436  0.00  0.00    +0.000 A 
ATOM      3  C   UNL     1       7.006   6.570  17.762  0.00  0.00    +0.000 A 
ATOM      4  N   UNL     1       6.065   5.878  18.444  0.00  0.00    +0.000 NA
ATOM      5  C   UNL     1       5.458   4.930  17.699  0.00  0.00    +0.000 A 
ATOM      6  C   UNL     1       5.718   4.623  16.370  0.00  0.00    +0.000 A 
ATOM      7  C   UNL     1       4.817   3.576  16.074  0.00  0.00    +0.000 A 
ATOM      8  N   UNL     1       4.053   3.227  17.116  0.00  0.00    +0.000 NA
ATOM      9  N   UNL     1       4.465   4.072  18.100  0.00  0.00    +0.000 N 
ENDROOT
BRANCH   9  10
ATOM     10  C1* UNL     1       3.885   4.007  19.432  0.00  0.00    +0.000 C 
ATOM     11  O4* UNL     1       3.365   2.671  19.666  0.00  0.00    +0.000 OA
ATOM     12  C4* UNL     1       2.064   2.784  20.291  0.00  0.00    +0.000 C 
ATOM     13  C3* UNL     1       1.898   4.248  20.682  0.00  0.00    +0.000 C 
ATOM     14  C2* UNL     1       2.734   4.989  19.649  0.00  0.00    +0.000 C 
BRANCH  13  15
ATOM     15  O3* UNL     1       2.461   4.518  21.982  0.00  0.00    +0.000 OA
ATOM     16  H3* UNL     1       2.924   5.377  21.955  0.00  0.00    +0.000 HD
ENDBRANCH  13  15
BRANCH  14  17
ATOM     17  O2* UNL     1       3.159   6.257  20.152  0.00  0.00    +0.000 OA
ATOM     18  H2* UNL     1       3.553   6.735  19.391  0.00  0.00    +0.000 HD
ENDBRANCH  14  17
BRANCH  12  19
ATOM     19  C5* UNL     1       0.985   2.296  19.322  0.00  0.00    +0.000 C 
BRANCH  19  20
ATOM     20  O5* UNL     1       1.593   1.726  18.165  0.00  0.00    +0.000 OA
ATOM     21  H5* UNL     1       1.714   0.778  18.366  0.00  0.00    +0.000 HD
ENDBRANCH  19  20
ENDBRANCH  12  19
ENDBRANCH   9  10
BRANCH   1  24
ATOM     22  N   UNL     1       8.899   5.995  13.397  0.00  0.00    +0.000 NA
ATOM     23  N   UNL     1       7.966   5.532  13.860  0.00  0.00    +0.000 NA
ATOM     24  N   UNL     1       6.941   5.031  14.362  0.00  0.00    +0.000 NA
ENDBRANCH   1  24
TORSDOF 6
ENDMDL
MODEL 5
REMARK VINA RESULT:      -7.2      2.230      2.889
REMARK  Name = 
REMARK  6 active torsions:
REMARK  status: ('A' for Active; 'I' for Inactive)
REMARK    1  A    between atoms: N_3  and  C_4
REMARK    2  A    between atoms: N_12  and  C1*_13
REMARK    3  A    between atoms: C4*_15  and  C5*_16
REMARK    4  A    between atoms: C5*_16  and  O5*_17
REMARK    5  A    between atoms: C3*_18  and  O3*_19
REMARK    6  A    between atoms: C2*_20  and  O2*_21
REMARK                            x       y       z     vdW  Elec       q    Type
REMARK                         _______ _______ _______ _____ _____    ______ ____
ROOT
ATOM      1  C   UNL     1       7.444   7.235  17.905  0.00  0.00    +0.000 A 
ATOM      2  C   UNL     1       8.255   6.647  18.885  0.00  0.00    +0.000 A 
ATOM      3  C   UNL     1       7.951   5.367  19.328  0.00  0.00    +0.000 A 
ATOM      4  N   UNL     1       6.919   4.605  18.899  0.00  0.00    +0.000 NA
ATOM      5  C   UNL     1       6.157   5.219  17.969  0.00  0.00    +0.000 A 
ATOM      6  C   UNL     1       6.348   6.490  17.443  0.00  0.00    +0.000 A 
ATOM      7  C   UNL     1       5.286   6.649  16.525  0.00  0.00    +0.000 A 
ATOM      8  N   UNL     1       4.487   5.577  16.452  0.00  0.00    +0.000 NA
ATOM      9  N   UNL     1       5.042   4.714  17.347  0.00  0.00    +0.000 N 
ENDROOT
BRANCH   9  10
ATOM     10  C1* UNL     1       4.476   3.392  17.561  0.00  0.00    +0.000 C 
ATOM     11  O4* UNL     1       3.216   3.287  16.845  0.00  0.00    +0.000 OA
ATOM     12  C4* UNL     1       2.246   2.648  17.708  0.00  0.00    +0.000 C 
ATOM     13  C3* UNL     1       3.018   2.117  18.910  0.00  0.00    +0.000 C 
ATOM     14  C2* UNL     1       4.193   3.077  19.030  0.00  0.00    +0.000 C 
BRANCH  13  15
ATOM     15  O3* UNL     1       3.549   0.799  18.661  0.00  0.00    +0.000 OA
ATOM     16  H3* UNL     1       2.944   0.135  19.044  0.00  0.00    +0.000 HD
ENDBRANCH  13  15
BRANCH  14  17
ATOM     17  O2* UNL     1       5.293   2.456  19.698  0.00  0.00    +0.000 OA
ATOM     18  H2* UNL     1       4.916   1.707  20.207  0.00  0.00    +0.000 HD
ENDBRANCH  14  17
BRANCH  12  19
ATOM     19  C5* UNL     1       1.160   3.655  18.092  0.00  0.00    +0.000 C 
BRANCH  19  20
ATOM     20  O5* UNL     1       1.548   4.967  17.688  0.00  0.00    +0.000 OA
ATOM     21  H5* UNL     1       1.417   4.999  16.722  0.00  0.00    +0.000 HD
ENDBRANCH  19  20
ENDBRANCH  12  19
ENDBRANCH   9  10
BRANCH   1  24
ATOM     22  N   UNL     1       8.912  10.023  18.674  0.00  0.00    +0.000 NA
ATOM     23  N   UNL     1       8.288   9.304  18.048  0.00  0.00    +0.000 NA
ATOM     24  N   UNL     1       7.598   8.522  17.366  0.00  0.00    +0.000 NA
ENDBRANCH   1  24
TORSDOF 6
ENDMDL
MODEL 6
REMARK VINA RESULT:      -7.0      3.538      6.272
REMARK  Name = 
REMARK  6 active torsions:
REMARK  status: ('A' for Active; 'I' for Inactive)
REMARK    1  A    between atoms: N_3  and  C_4
REMARK    2  A    between atoms: N_12  and  C1*_13
REMARK    3  A    between atoms: C4*_15  and  C5*_16
REMARK    4  A    between atoms: C5*_16  and  O5*_17
REMARK    5  A    between atoms: C3*_18  and  O3*_19
REMARK    6  A    between atoms: C2*_20  and  O2*_21
REMARK                            x       y       z     vdW  Elec       q    Type
REMARK                         _______ _______ _______ _____ _____    ______ ____
ROOT
ATOM      1  C   UNL     1       1.670   4.497  19.858  0.00  0.00    +0.000 A 
ATOM      2  C   UNL     1       1.650   5.847  20.235  0.00  0.00    +0.000 A 
ATOM      3  C   UNL     1       2.557   6.721  19.652  0.00  0.00    +0.000 A 
ATOM      4  N   UNL     1       3.491   6.392  18.729  0.00  0.00    +0.000 NA
ATOM      5  C   UNL     1       3.484   5.081  18.410  0.00  0.00    +0.000 A 
ATOM      6  C   UNL     1       2.635   4.106  18.917  0.00  0.00    +0.000 A 
ATOM      7  C   UNL     1       3.045   2.919  18.269  0.00  0.00    +0.000 A 
ATOM      8  N   UNL     1       4.055   3.108  17.412  0.00  0.00    +0.000 NA
ATOM      9  N   UNL     1       4.306   4.441  17.517  0.00  0.00    +0.000 N 
ENDROOT
BRANCH   9  10
ATOM     10  C1* UNL     1       5.344   5.072  16.717  0.00  0.00    +0.000 C 
ATOM     11  O4* UNL     1       4.818   5.370  15.395  0.00  0.00    +0.000 OA
ATOM     12  C4* UNL     1       5.808   4.994  14.409  0.00  0.00    +0.000 C 
ATOM     13  C3* UNL     1       7.090   4.687  15.175  0.00  0.00    +0.000 C 
ATOM     14  C2* UNL     1       6.587   4.203  16.528  0.00  0.00    +0.000 C 
BRANCH  13  15
ATOM     15  O3* UNL     1       7.874   5.877  15.396  0.00  0.00    +0.000 OA
ATOM     16  H3* UNL     1       7.279   6.650  15.415  0.00  0.00    +0.000 HD
ENDBRANCH  13  15
BRANCH  14  17
ATOM     17  O2* UNL     1       7.575   4.401  17.539  0.00  0.00    +0.000 OA
ATOM     18  H2* UNL     1       8.221   5.040  17.169  0.00  0.00    +0.000 HD
ENDBRANCH  14  17
BRANCH  12  19
ATOM     19  C5* UNL     1       5.296   3.802  13.597  0.00  0.00    +0.000 C 
BRANCH  19  20
ATOM     20  O5* UNL     1       6.387   3.153  12.946  0.00  0.00    +0.000 OA
ATOM     21  H5* UNL     1       7.144   3.763  13.019  0.00  0.00    +0.000 HD
ENDBRANCH  19  20
ENDBRANCH  12  19
ENDBRANCH   9  10
BRANCH   1  24
ATOM     22  N   UNL     1       1.699   2.316  22.259  0.00  0.00    +0.000 NA
ATOM     23  N   UNL     1       1.289   2.878  21.356  0.00  0.00    +0.000 NA
ATOM     24  N   UNL     1       0.841   3.484  20.364  0.00  0.00    +0.000 NA
ENDBRANCH   1  24
TORSDOF 6
ENDMDL
MODEL 7
REMARK VINA RESULT:      -7.0      1.807      2.578
REMARK  Name = 
REMARK  6 active torsions:
REMARK  status: ('A' for Active; 'I' for Inactive)
REMARK    1  A    between atoms: N_3  and  C_4
REMARK    2  A    between atoms: N_12  and  C1*_13
REMARK    3  A    between atoms: C4*_15  and  C5*_16
REMARK    4  A    between atoms: C5*_16  and  O5*_17
REMARK    5  A    between atoms: C3*_18  and  O3*_19
REMARK    6  A    between atoms: C2*_20  and  O2*_21
REMARK                            x       y       z     vdW  Elec       q    Type
REMARK                         _______ _______ _______ _____ _____    ______ ____
ROOT
ATOM      1  C   UNL     1       7.091   6.695  17.896  0.00  0.00    +0.000 A 
ATOM      2  C   UNL     1       7.787   5.948  18.857  0.00  0.00    +0.000 A 
ATOM      3  C   UNL     1       7.086   5.036  19.634  0.00  0.00    +0.000 A 
ATOM      4  N   UNL     1       5.758   4.788  19.560  0.00  0.00    +0.000 NA
ATOM      5  C   UNL     1       5.129   5.542  18.634  0.00  0.00    +0.000 A 
ATOM      6  C   UNL     1       5.707   6.485  17.795  0.00  0.00    +0.000 A 
ATOM      7  C   UNL     1       4.626   6.983  17.034  0.00  0.00    +0.000 A 
ATOM      8  N   UNL     1       3.457   6.407  17.341  0.00  0.00    +0.000 NA
ATOM      9  N   UNL     1       3.791   5.527  18.324  0.00  0.00    +0.000 N 
ENDROOT
BRANCH   9  10
ATOM     10  C1* UNL     1       2.788   4.668  18.932  0.00  0.00    +0.000 C 
ATOM     11  O4* UNL     1       3.410   3.862  19.968  0.00  0.00    +0.000 OA
ATOM     12  C4* UNL     1       2.927   2.503  19.848  0.00  0.00    +0.000 C 
ATOM     13  C3* UNL     1       1.773   2.539  18.854  0.00  0.00    +0.000 C 
ATOM     14  C2* UNL     1       2.123   3.709  17.946  0.00  0.00    +0.000 C 
BRANCH  13  15
ATOM     15  O3* UNL     1       0.522   2.844  19.504  0.00  0.00    +0.000 OA
ATOM     16  H3* UNL     1       0.243   3.744  19.249  0.00  0.00    +0.000 HD
ENDBRANCH  13  15
BRANCH  14  17
ATOM     17  O2* UNL     1       0.950   4.248  17.334  0.00  0.00    +0.000 OA
ATOM     18  H2* UNL     1       0.291   4.355  18.053  0.00  0.00    +0.000 HD
ENDBRANCH  14  17
BRANCH  12  19
ATOM     19  C5* UNL     1       4.072   1.589  19.404  0.00  0.00    +0.000 C 
BRANCH  19  20
ATOM     20  O5* UNL     1       5.247   1.880  20.158  0.00  0.00    +0.000 OA
ATOM     21  H5* UNL     1       5.493   1.046  20.602  0.00  0.00    +0.000 HD
ENDBRANCH  19  20
ENDBRANCH  12  19
ENDBRANCH   9  10
BRANCH   1  24
ATOM     22  N   UNL     1       8.455   9.628  18.136  0.00  0.00    +0.000 NA
ATOM     23  N   UNL     1       8.069   8.689  17.618  0.00  0.00    +0.000 NA
ATOM     24  N   UNL     1       7.641   7.668  17.047  0.00  0.00    +0.000 NA
ENDBRANCH   1  24
TORSDOF 6
ENDMDL
MODEL 8
REMARK VINA RESULT:      -6.9      3.136      6.203
REMARK  Name = 
REMARK  6 active torsions:
REMARK  status: ('A' for Active; 'I' for Inactive)
REMARK    1  A    between atoms: N_3  and  C_4
REMARK    2  A    between atoms: N_12  and  C1*_13
REMARK    3  A    between atoms: C4*_15  and  C5*_16
REMARK    4  A    between atoms: C5*_16  and  O5*_17
REMARK    5  A    between atoms: C3*_18  and  O3*_19
REMARK    6  A    between atoms: C2*_20  and  O2*_21
REMARK                            x       y       z     vdW  Elec       q    Type
REMARK                         _______ _______ _______ _____ _____    ______ ____
ROOT
ATOM      1  C   UNL     1       1.767   4.432  19.907  0.00  0.00    +0.000 A 
ATOM      2  C   UNL     1       1.933   5.786  20.227  0.00  0.00    +0.000 A 
ATOM      3  C   UNL     1       3.001   6.480  19.675  0.00  0.00    +0.000 A 
ATOM      4  N   UNL     1       3.929   5.967  18.835  0.00  0.00    +0.000 NA
ATOM      5  C   UNL     1       3.738   4.658  18.569  0.00  0.00    +0.000 A 
ATOM      6  C   UNL     1       2.717   3.851  19.054  0.00  0.00    +0.000 A 
ATOM      7  C   UNL     1       2.977   2.584  18.484  0.00  0.00    +0.000 A 
ATOM      8  N   UNL     1       4.058   2.572  17.694  0.00  0.00    +0.000 NA
ATOM      9  N   UNL     1       4.506   3.855  17.763  0.00  0.00    +0.000 N 
ENDROOT
BRANCH   9  10
ATOM     10  C1* UNL     1       5.679   4.279  17.014  0.00  0.00    +0.000 C 
ATOM     11  O4* UNL     1       6.864   4.098  17.834  0.00  0.00    +0.000 OA
ATOM     12  C4* UNL     1       7.703   5.270  17.699  0.00  0.00    +0.000 C 
ATOM     13  C3* UNL     1       7.120   6.090  16.554  0.00  0.00    +0.000 C 
ATOM     14  C2* UNL     1       5.638   5.746  16.589  0.00  0.00    +0.000 C 
BRANCH  13  15
ATOM     15  O3* UNL     1       7.642   5.666  15.278  0.00  0.00    +0.000 OA
ATOM     16  H3* UNL     1       7.127   6.091  14.567  0.00  0.00    +0.000 HD
ENDBRANCH  13  15
BRANCH  14  17
ATOM     17  O2* UNL     1       5.039   5.949  15.308  0.00  0.00    +0.000 OA
ATOM     18  H2* UNL     1       5.665   5.578  14.651  0.00  0.00    +0.000 HD
ENDBRANCH  14  17
BRANCH  12  19
ATOM     19  C5* UNL     1       7.734   6.032  19.026  0.00  0.00    +0.000 C 
BRANCH  19  20
ATOM     20  O5* UNL     1       6.900   5.380  19.981  0.00  0.00    +0.000 OA
ATOM     21  H5* UNL     1       6.295   4.814  19.466  0.00  0.00    +0.000 HD
ENDBRANCH  19  20
ENDBRANCH  12  19
ENDBRANCH   9  10
BRANCH   1  24
ATOM     22  N   UNL     1       1.385   2.213  22.241  0.00  0.00    +0.000 NA
ATOM     23  N   UNL     1       1.086   2.871  21.361  0.00  0.00    +0.000 NA
ATOM     24  N   UNL     1       0.759   3.584  20.392  0.00  0.00    +0.000 NA
ENDBRANCH   1  24
TORSDOF 6
ENDMDL
MODEL 9
REMARK VINA RESULT:      -6.9      1.860      3.078
REMARK  Name = 
REMARK  6 active torsions:
REMARK  status: ('A' for Active; 'I' for Inactive)
REMARK    1  A    between atoms: N_3  and  C_4
REMARK    2  A    between atoms: N_12  and  C1*_13
REMARK    3  A    between atoms: C4*_15  and  C5*_16
REMARK    4  A    between atoms: C5*_16  and  O5*_17
REMARK    5  A    between atoms: C3*_18  and  O3*_19
REMARK    6  A    between atoms: C2*_20  and  O2*_21
REMARK                            x       y       z     vdW  Elec       q    Type
REMARK                         _______ _______ _______ _____ _____    ______ ____
ROOT
ATOM      1  C   UNL     1       6.493   6.305  16.589  0.00  0.00    +0.000 A 
ATOM      2  C   UNL     1       6.975   5.236  15.821  0.00  0.00    +0.000 A 
ATOM      3  C   UNL     1       6.258   4.047  15.800  0.00  0.00    +0.000 A 
ATOM      4  N   UNL     1       5.107   3.806  16.467  0.00  0.00    +0.000 NA
ATOM      5  C   UNL     1       4.691   4.856  17.205  0.00  0.00    +0.000 A 
ATOM      6  C   UNL     1       5.311   6.094  17.315  0.00  0.00    +0.000 A 
ATOM      7  C   UNL     1       4.483   6.819  18.201  0.00  0.00    +0.000 A 
ATOM      8  N   UNL     1       3.418   6.122  18.618  0.00  0.00    +0.000 NA
ATOM      9  N   UNL     1       3.568   4.922  17.993  0.00  0.00    +0.000 N 
ENDROOT
BRANCH   9  10
ATOM     10  C1* UNL     1       2.590   3.861  18.167  0.00  0.00    +0.000 C 
ATOM     11  O4* UNL     1       1.507   4.339  19.009  0.00  0.00    +0.000 OA
ATOM     12  C4* UNL     1       1.181   3.308  19.972  0.00  0.00    +0.000 C 
ATOM     13  C3* UNL     1       1.929   2.054  19.534  0.00  0.00    +0.000 C 
ATOM     14  C2* UNL     1       3.158   2.604  18.824  0.00  0.00    +0.000 C 
BRANCH  13  15
ATOM     15  O3* UNL     1       1.170   1.290  18.576  0.00  0.00    +0.000 OA
ATOM     16  H3* UNL     1       1.105   0.367  18.885  0.00  0.00    +0.000 HD
ENDBRANCH  13  15
BRANCH  14  17
ATOM     17  O2* UNL     1       3.670   1.656  17.886  0.00  0.00    +0.000 OA
ATOM     18  H2* UNL     1       3.770   0.812  18.376  0.00  0.00    +0.000 HD
ENDBRANCH  14  17
BRANCH  12  19
ATOM     19  C5* UNL     1       1.569   3.778  21.376  0.00  0.00    +0.000 C 
BRANCH  19  20
ATOM     20  O5* UNL     1       2.295   5.002  21.296  0.00  0.00    +0.000 OA
ATOM     21  H5* UNL     1       3.052   4.827  20.705  0.00  0.00    +0.000 HD
ENDBRANCH  19  20
ENDBRANCH  12  19
ENDBRANCH   9  10
BRANCH   1  24
ATOM     22  N   UNL     1       8.470   7.807  18.676  0.00  0.00    +0.000 NA
ATOM     23  N   UNL     1       7.820   7.686  17.748  0.00  0.00    +0.000 NA
ATOM     24  N   UNL     1       7.103   7.560  16.736  0.00  0.00    +0.000 NA
ENDBRANCH   1  24
TORSDOF 6
ENDMDL
