MODEL 1
REMARK VINA RESULT:      -8.9      0.000      0.000
REMARK  Name = 
REMARK  6 active torsions:
REMARK  status: ('A' for Active; 'I' for Inactive)
REMARK    1  A    between atoms: C_2  and  C_3
REMARK    2  A    between atoms: C_3  and  C_4
REMARK    3  A    between atoms: C_9  and  N_10
REMARK    4  A    between atoms: C_11  and  C_13
REMARK    5  A    between atoms: C_14  and  C_15
REMARK    6  A    between atoms: C_16  and  C_17
REMARK                            x       y       z     vdW  Elec       q    Type
REMARK                         _______ _______ _______ _____ _____    ______ ____
ROOT
ATOM      1  N   UNL     1       5.889   5.471  18.621  0.00  0.00    +0.000 N 
ATOM      2  C   UNL     1       7.256   5.299  18.534  0.00  0.00    +0.000 C 
ATOM      3  O   UNL     1       7.848   4.253  18.304  0.00  0.00    +0.000 OA
ATOM      4  H   UNL     1       5.559   6.418  18.733  0.00  0.00    +0.000 HD
ENDROOT
BRANCH   1  10
ATOM      5  C   UNL     1       4.678   3.897  17.162  0.00  0.00    +0.000 A 
ATOM      6  C   UNL     1       3.760   2.831  17.038  0.00  0.00    +0.000 A 
ATOM      7  C   UNL     1       3.098   2.307  18.148  0.00  0.00    +0.000 A 
ATOM      8  C   UNL     1       3.324   2.858  19.398  0.00  0.00    +0.000 A 
ATOM      9  C   UNL     1       4.215   3.920  19.538  0.00  0.00    +0.000 A 
ATOM     10  C   UNL     1       4.924   4.441  18.443  0.00  0.00    +0.000 A 
BRANCH   5  11
ATOM     11  C   UNL     1       5.426   4.311  15.917  0.00  0.00    +0.000 C 
BRANCH  11  13
ATOM     12  N   UNL     1       5.150   6.999  15.261  0.00  0.00    +0.000 NA
ATOM     13  C   UNL     1       5.275   5.780  15.559  0.00  0.00    +0.000 C 
ENDBRANCH  11  13
ENDBRANCH   5  11
ENDBRANCH   1  10
BRANCH   2  14
ATOM     14  C   UNL     1       8.012   6.575  18.657  0.00  0.00    +0.000 C 
ATOM     15  C   UNL     1       7.652   7.570  17.828  0.00  0.00    +0.000 C 
BRANCH  15  16
ATOM     16  C   UNL     1       8.263   8.875  17.810  0.00  0.00    +0.000 C 
ATOM     17  C   UNL     1       8.876   9.354  18.901  0.00  0.00    +0.000 C 
BRANCH  17  18
ATOM     18  C   UNL     1       9.416  10.708  19.068  0.00  0.00    +0.000 A 
ATOM     19  C   UNL     1       9.757  11.223  20.341  0.00  0.00    +0.000 A 
ATOM     20  C   UNL     1      10.535  12.379  20.467  0.00  0.00    +0.000 A 
ATOM     21  C   UNL     1      10.990  12.957  19.306  0.00  0.00    +0.000 A 
ATOM     22  C   UNL     1      10.611  12.495  18.064  0.00  0.00    +0.000 A 
ATOM     23  C   UNL     1       9.794  11.400  17.911  0.00  0.00    +0.000 A 
ATOM     24  O   UNL     1      11.250  13.154  17.057  0.00  0.00    +0.000 OA
ATOM     25  C   UNL     1      12.290  13.788  17.826  0.00  0.00    +0.000 C 
ATOM     26  O   UNL     1      11.927  13.942  19.215  0.00  0.00    +0.000 OA
ENDBRANCH  17  18
ENDBRANCH  15  16
ENDBRANCH   2  14
TORSDOF 6
ENDMDL
MODEL 2
REMARK VINA RESULT:      -8.9      1.425      1.998
REMARK  Name = 
REMARK  6 active torsions:
REMARK  status: ('A' for Active; 'I' for Inactive)
REMARK    1  A    between atoms: C_2  and  C_3
REMARK    2  A    between atoms: C_3  and  C_4
REMARK    3  A    between atoms: C_9  and  N_10
REMARK    4  A    between atoms: C_11  and  C_13
REMARK    5  A    between atoms: C_14  and  C_15
REMARK    6  A    between atoms: C_16  and  C_17
REMARK                            x       y       z     vdW  Elec       q    Type
REMARK                         _______ _______ _______ _____ _____    ______ ____
ROOT
ATOM      1  N   UNL     1       5.896   5.283  18.799  0.00  0.00    +0.000 N 
ATOM      2  C   UNL     1       7.236   5.269  18.467  0.00  0.00    +0.000 C 
ATOM      3  O   UNL     1       7.861   4.331  17.991  0.00  0.00    +0.000 OA
ATOM      4  H   UNL     1       5.515   6.167  19.103  0.00  0.00    +0.000 HD
ENDROOT
BRANCH   1  10
ATOM      5  C   UNL     1       4.338   3.989  17.396  0.00  0.00    +0.000 A 
ATOM      6  C   UNL     1       3.508   2.856  17.246  0.00  0.00    +0.000 A 
ATOM      7  C   UNL     1       3.335   1.938  18.281  0.00  0.00    +0.000 A 
ATOM      8  C   UNL     1       3.968   2.151  19.494  0.00  0.00    +0.000 A 
ATOM      9  C   UNL     1       4.778   3.272  19.666  0.00  0.00    +0.000 A 
ATOM     10  C   UNL     1       5.001   4.192  18.628  0.00  0.00    +0.000 A 
BRANCH   5  11
ATOM     11  C   UNL     1       4.549   4.856  16.178  0.00  0.00    +0.000 C 
BRANCH  11  13
ATOM     12  N   UNL     1       6.433   3.866  14.388  0.00  0.00    +0.000 NA
ATOM     13  C   UNL     1       5.578   4.316  15.199  0.00  0.00    +0.000 C 
ENDBRANCH  11  13
ENDBRANCH   5  11
ENDBRANCH   1  10
BRANCH   2  14
ATOM     14  C   UNL     1       7.896   6.589  18.655  0.00  0.00    +0.000 C 
ATOM     15  C   UNL     1       7.622   7.535  17.741  0.00  0.00    +0.000 C 
BRANCH  15  16
ATOM     16  C   UNL     1       8.159   8.872  17.766  0.00  0.00    +0.000 C 
ATOM     17  C   UNL     1       8.868   9.301  18.820  0.00  0.00    +0.000 C 
BRANCH  17  18
ATOM     18  C   UNL     1       9.353  10.667  19.040  0.00  0.00    +0.000 A 
ATOM     19  C   UNL     1       9.339  11.639  18.011  0.00  0.00    +0.000 A 
ATOM     20  C   UNL     1       9.520  12.996  18.298  0.00  0.00    +0.000 A 
ATOM     21  C   UNL     1       9.661  13.344  19.620  0.00  0.00    +0.000 A 
ATOM     22  C   UNL     1       9.736  12.397  20.619  0.00  0.00    +0.000 A 
ATOM     23  C   UNL     1       9.627  11.052  20.359  0.00  0.00    +0.000 A 
ATOM     24  O   UNL     1       9.781  12.964  21.858  0.00  0.00    +0.000 OA
ATOM     25  C   UNL     1       9.367  14.299  21.510  0.00  0.00    +0.000 C 
ATOM     26  O   UNL     1       9.626  14.609  20.124  0.00  0.00    +0.000 OA
ENDBRANCH  17  18
ENDBRANCH  15  16
ENDBRANCH   2  14
TORSDOF 6
ENDMDL
MODEL 3
REMARK VINA RESULT:      -8.8      1.528      1.879
REMARK  Name = 
REMARK  6 active torsions:
REMARK  status: ('A' for Active; 'I' for Inactive)
REMARK    1  A    between atoms: C_2  and  C_3
REMARK    2  A    between atoms: C_3  and  C_4
REMARK    3  A    between atoms: C_9  and  N_10
REMARK    4  A    between atoms: C_11  and  C_13
REMARK    5  A    between atoms: C_14  and  C_15
REMARK    6  A    between atoms: C_16  and  C_17
REMARK                            x       y       z     vdW  Elec       q    Type
REMARK                         _______ _______ _______ _____ _____    ______ ____
ROOT
ATOM      1  N   UNL     1       5.498   5.392  18.924  0.00  0.00    +0.000 N 
ATOM      2  C   UNL     1       6.684   5.327  18.221  0.00  0.00    +0.000 C 
ATOM      3  O   UNL     1       7.022   4.450  17.437  0.00  0.00    +0.000 OA
ATOM      4  H   UNL     1       5.339   6.229  19.466  0.00  0.00    +0.000 HD
ENDROOT
BRANCH   1  10
ATOM      5  C   UNL     1       3.155   4.821  18.415  0.00  0.00    +0.000 A 
ATOM      6  C   UNL     1       2.157   3.830  18.285  0.00  0.00    +0.000 A 
ATOM      7  C   UNL     1       2.422   2.490  18.565  0.00  0.00    +0.000 A 
ATOM      8  C   UNL     1       3.681   2.121  19.005  0.00  0.00    +0.000 A 
ATOM      9  C   UNL     1       4.674   3.087  19.154  0.00  0.00    +0.000 A 
ATOM     10  C   UNL     1       4.447   4.438  18.843  0.00  0.00    +0.000 A 
BRANCH   5  11
ATOM     11  C   UNL     1       2.799   6.221  17.976  0.00  0.00    +0.000 C 
BRANCH  11  13
ATOM     12  N   UNL     1       1.947   7.881  20.038  0.00  0.00    +0.000 NA
ATOM     13  C   UNL     1       2.333   7.128  19.103  0.00  0.00    +0.000 C 
ENDBRANCH  11  13
ENDBRANCH   5  11
ENDBRANCH   1  10
BRANCH   2  14
ATOM     14  C   UNL     1       7.547   6.522  18.423  0.00  0.00    +0.000 C 
ATOM     15  C   UNL     1       7.339   7.562  17.597  0.00  0.00    +0.000 C 
BRANCH  15  16
ATOM     16  C   UNL     1       8.070   8.802  17.650  0.00  0.00    +0.000 C 
ATOM     17  C   UNL     1       8.668   9.192  18.785  0.00  0.00    +0.000 C 
BRANCH  17  18
ATOM     18  C   UNL     1       9.323  10.483  19.020  0.00  0.00    +0.000 A 
ATOM     19  C   UNL     1       9.795  10.858  20.301  0.00  0.00    +0.000 A 
ATOM     20  C   UNL     1      10.669  11.939  20.460  0.00  0.00    +0.000 A 
ATOM     21  C   UNL     1      11.082  12.583  19.318  0.00  0.00    +0.000 A 
ATOM     22  C   UNL     1      10.578  12.262  18.077  0.00  0.00    +0.000 A 
ATOM     23  C   UNL     1       9.669  11.246  17.898  0.00  0.00    +0.000 A 
ATOM     24  O   UNL     1      11.192  12.960  17.080  0.00  0.00    +0.000 OA
ATOM     25  C   UNL     1      12.333  13.446  17.814  0.00  0.00    +0.000 C 
ATOM     26  O   UNL     1      12.085  13.502  19.235  0.00  0.00    +0.000 OA
ENDBRANCH  17  18
ENDBRANCH  15  16
ENDBRANCH   2  14
TORSDOF 6
ENDMDL
MODEL 4
REMARK VINA RESULT:      -8.6      2.063      2.452
REMARK  Name = 
REMARK  6 active torsions:
REMARK  status: ('A' for Active; 'I' for Inactive)
REMARK    1  A    between atoms: C_2  and  C_3
REMARK    2  A    between atoms: C_3  and  C_4
REMARK    3  A    between atoms: C_9  and  N_10
REMARK    4  A    between atoms: C_11  and  C_13
REMARK    5  A    between atoms: C_14  and  C_15
REMARK    6  A    between atoms: C_16  and  C_17
REMARK                            x       y       z     vdW  Elec       q    Type
REMARK                         _______ _______ _______ _____ _____    ______ ____
ROOT
ATOM      1  N   UNL     1       5.580   5.603  18.439  0.00  0.00    +0.000 N 
ATOM      2  C   UNL     1       6.473   6.006  17.465  0.00  0.00    +0.000 C 
ATOM      3  O   UNL     1       6.365   5.833  16.258  0.00  0.00    +0.000 OA
ATOM      4  H   UNL     1       5.778   5.900  19.383  0.00  0.00    +0.000 HD
ENDROOT
BRANCH   1  10
ATOM      5  C   UNL     1       3.133   5.620  18.155  0.00  0.00    +0.000 A 
ATOM      6  C   UNL     1       1.950   4.913  17.843  0.00  0.00    +0.000 A 
ATOM      7  C   UNL     1       1.971   3.546  17.570  0.00  0.00    +0.000 A 
ATOM      8  C   UNL     1       3.169   2.857  17.630  0.00  0.00    +0.000 A 
ATOM      9  C   UNL     1       4.344   3.535  17.951  0.00  0.00    +0.000 A 
ATOM     10  C   UNL     1       4.359   4.918  18.193  0.00  0.00    +0.000 A 
BRANCH   5  11
ATOM     11  C   UNL     1       3.019   7.118  18.319  0.00  0.00    +0.000 C 
BRANCH  11  13
ATOM     12  N   UNL     1       1.597   7.913  20.573  0.00  0.00    +0.000 NA
ATOM     13  C   UNL     1       2.241   7.552  19.551  0.00  0.00    +0.000 C 
ENDBRANCH  11  13
ENDBRANCH   5  11
ENDBRANCH   1  10
BRANCH   2  14
ATOM     14  C   UNL     1       7.609   6.798  18.008  0.00  0.00    +0.000 C 
ATOM     15  C   UNL     1       7.594   8.120  17.762  0.00  0.00    +0.000 C 
BRANCH  15  16
ATOM     16  C   UNL     1       8.601   9.044  18.216  0.00  0.00    +0.000 C 
ATOM     17  C   UNL     1       8.406  10.367  18.117  0.00  0.00    +0.000 C 
BRANCH  17  18
ATOM     18  C   UNL     1       9.392  11.413  18.408  0.00  0.00    +0.000 A 
ATOM     19  C   UNL     1      10.701  11.103  18.848  0.00  0.00    +0.000 A 
ATOM     20  C   UNL     1      11.713  12.069  18.839  0.00  0.00    +0.000 A 
ATOM     21  C   UNL     1      11.391  13.309  18.341  0.00  0.00    +0.000 A 
ATOM     22  C   UNL     1      10.104  13.633  17.969  0.00  0.00    +0.000 A 
ATOM     23  C   UNL     1       9.076  12.723  18.028  0.00  0.00    +0.000 A 
ATOM     24  O   UNL     1      10.030  14.878  17.419  0.00  0.00    +0.000 OA
ATOM     25  C   UNL     1      11.433  15.103  17.178  0.00  0.00    +0.000 C 
ATOM     26  O   UNL     1      12.270  14.306  18.043  0.00  0.00    +0.000 OA
ENDBRANCH  17  18
ENDBRANCH  15  16
ENDBRANCH   2  14
TORSDOF 6
ENDMDL
MODEL 5
REMARK VINA RESULT:      -8.5      1.367      1.715
REMARK  Name = 
REMARK  6 active torsions:
REMARK  status: ('A' for Active; 'I' for Inactive)
REMARK    1  A    between atoms: C_2  and  C_3
REMARK    2  A    between atoms: C_3  and  C_4
REMARK    3  A    between atoms: C_9  and  N_10
REMARK    4  A    between atoms: C_11  and  C_13
REMARK    5  A    between atoms: C_14  and  C_15
REMARK    6  A    between atoms: C_16  and  C_17
REMARK                            x       y       z     vdW  Elec       q    Type
REMARK                         _______ _______ _______ _____ _____    ______ ____
ROOT
ATOM      1  N   UNL     1       6.094   5.834  18.514  0.00  0.00    +0.000 N 
ATOM      2  C   UNL     1       7.466   5.686  18.557  0.00  0.00    +0.000 C 
ATOM      3  O   UNL     1       8.094   4.645  18.416  0.00  0.00    +0.000 OA
ATOM      4  H   UNL     1       5.739   6.778  18.565  0.00  0.00    +0.000 HD
ENDROOT
BRANCH   1  10
ATOM      5  C   UNL     1       4.589   4.597  17.005  0.00  0.00    +0.000 A 
ATOM      6  C   UNL     1       3.724   3.500  16.799  0.00  0.00    +0.000 A 
ATOM      7  C   UNL     1       3.433   2.600  17.824  0.00  0.00    +0.000 A 
ATOM      8  C   UNL     1       3.981   2.796  19.079  0.00  0.00    +0.000 A 
ATOM      9  C   UNL     1       4.826   3.882  19.305  0.00  0.00    +0.000 A 
ATOM     10  C   UNL     1       5.167   4.781  18.282  0.00  0.00    +0.000 A 
BRANCH   5  11
ATOM     11  C   UNL     1       4.930   5.443  15.801  0.00  0.00    +0.000 C 
BRANCH  11  13
ATOM     12  N   UNL     1       7.523   5.094  14.860  0.00  0.00    +0.000 NA
ATOM     13  C   UNL     1       6.347   5.253  15.287  0.00  0.00    +0.000 C 
ENDBRANCH  11  13
ENDBRANCH   5  11
ENDBRANCH   1  10
BRANCH   2  14
ATOM     14  C   UNL     1       8.187   6.979  18.707  0.00  0.00    +0.000 C 
ATOM     15  C   UNL     1       7.763   7.997  17.938  0.00  0.00    +0.000 C 
BRANCH  15  16
ATOM     16  C   UNL     1       8.332   9.321  17.955  0.00  0.00    +0.000 C 
ATOM     17  C   UNL     1       9.242   9.659  18.879  0.00  0.00    +0.000 C 
BRANCH  17  18
ATOM     18  C   UNL     1       9.798  10.998  19.098  0.00  0.00    +0.000 A 
ATOM     19  C   UNL     1      10.956  11.446  18.418  0.00  0.00    +0.000 A 
ATOM     20  C   UNL     1      11.306  12.801  18.404  0.00  0.00    +0.000 A 
ATOM     21  C   UNL     1      10.452  13.675  19.033  0.00  0.00    +0.000 A 
ATOM     22  C   UNL     1       9.358  13.238  19.748  0.00  0.00    +0.000 A 
ATOM     23  C   UNL     1       9.026  11.906  19.834  0.00  0.00    +0.000 A 
ATOM     24  O   UNL     1       8.602  14.274  20.209  0.00  0.00    +0.000 OA
ATOM     25  C   UNL     1       9.153  15.333  19.403  0.00  0.00    +0.000 C 
ATOM     26  O   UNL     1      10.490  15.034  18.948  0.00  0.00    +0.000 OA
ENDBRANCH  17  18
ENDBRANCH  15  16
ENDBRANCH   2  14
TORSDOF 6
ENDMDL
MODEL 6
REMARK VINA RESULT:      -8.5      1.948      3.299
REMARK  Name = 
REMARK  6 active torsions:
REMARK  status: ('A' for Active; 'I' for Inactive)
REMARK    1  A    between atoms: C_2  and  C_3
REMARK    2  A    between atoms: C_3  and  C_4
REMARK    3  A    between atoms: C_9  and  N_10
REMARK    4  A    between atoms: C_11  and  C_13
REMARK    5  A    between atoms: C_14  and  C_15
REMARK    6  A    between atoms: C_16  and  C_17
REMARK                            x       y       z     vdW  Elec       q    Type
REMARK                         _______ _______ _______ _____ _____    ______ ____
ROOT
ATOM      1  N   UNL     1       6.805   7.269  16.774  0.00  0.00    +0.000 N 
ATOM      2  C   UNL     1       7.638   7.533  17.842  0.00  0.00    +0.000 C 
ATOM      3  O   UNL     1       7.975   6.747  18.719  0.00  0.00    +0.000 OA
ATOM      4  H   UNL     1       6.696   8.006  16.093  0.00  0.00    +0.000 HD
ENDROOT
BRANCH   1  10
ATOM      5  C   UNL     1       4.921   5.700  17.017  0.00  0.00    +0.000 A 
ATOM      6  C   UNL     1       4.326   4.467  16.669  0.00  0.00    +0.000 A 
ATOM      7  C   UNL     1       4.972   3.559  15.831  0.00  0.00    +0.000 A 
ATOM      8  C   UNL     1       6.234   3.856  15.347  0.00  0.00    +0.000 A 
ATOM      9  C   UNL     1       6.843   5.062  15.692  0.00  0.00    +0.000 A 
ATOM     10  C   UNL     1       6.200   6.011  16.502  0.00  0.00    +0.000 A 
BRANCH   5  11
ATOM     11  C   UNL     1       4.090   6.661  17.834  0.00  0.00    +0.000 C 
BRANCH  11  13
ATOM     12  N   UNL     1       2.765   5.484  19.978  0.00  0.00    +0.000 NA
ATOM     13  C   UNL     1       3.366   6.018  19.006  0.00  0.00    +0.000 C 
ENDBRANCH  11  13
ENDBRANCH   5  11
ENDBRANCH   1  10
BRANCH   2  14
ATOM     14  C   UNL     1       8.211   8.906  17.809  0.00  0.00    +0.000 C 
ATOM     15  C   UNL     1       8.911   9.292  18.890  0.00  0.00    +0.000 C 
BRANCH  15  16
ATOM     16  C   UNL     1       9.545  10.578  19.033  0.00  0.00    +0.000 C 
ATOM     17  C   UNL     1       9.641  11.409  17.985  0.00  0.00    +0.000 C 
BRANCH  17  18
ATOM     18  C   UNL     1      10.375  12.678  17.950  0.00  0.00    +0.000 A 
ATOM     19  C   UNL     1      11.664  12.779  17.375  0.00  0.00    +0.000 A 
ATOM     20  C   UNL     1      12.227  14.025  17.080  0.00  0.00    +0.000 A 
ATOM     21  C   UNL     1      11.455  15.136  17.326  0.00  0.00    +0.000 A 
ATOM     22  C   UNL     1      10.225  15.047  17.942  0.00  0.00    +0.000 A 
ATOM     23  C   UNL     1       9.675  13.839  18.302  0.00  0.00    +0.000 A 
ATOM     24  O   UNL     1       9.596  16.254  18.003  0.00  0.00    +0.000 OA
ATOM     25  C   UNL     1      10.405  16.979  17.057  0.00  0.00    +0.000 C 
ATOM     26  O   UNL     1      11.722  16.406  16.912  0.00  0.00    +0.000 OA
ENDBRANCH  17  18
ENDBRANCH  15  16
ENDBRANCH   2  14
TORSDOF 6
ENDMDL
MODEL 7
REMARK VINA RESULT:      -8.4      1.953      2.701
REMARK  Name = 
REMARK  6 active torsions:
REMARK  status: ('A' for Active; 'I' for Inactive)
REMARK    1  A    between atoms: C_2  and  C_3
REMARK    2  A    between atoms: C_3  and  C_4
REMARK    3  A    between atoms: C_9  and  N_10
REMARK    4  A    between atoms: C_11  and  C_13
REMARK    5  A    between atoms: C_14  and  C_15
REMARK    6  A    between atoms: C_16  and  C_17
REMARK                            x       y       z     vdW  Elec       q    Type
REMARK                         _______ _______ _______ _____ _____    ______ ____
ROOT
ATOM      1  N   UNL     1       5.546   6.082  18.091  0.00  0.00    +0.000 N 
ATOM      2  C   UNL     1       6.830   5.633  18.322  0.00  0.00    +0.000 C 
ATOM      3  O   UNL     1       7.186   4.468  18.445  0.00  0.00    +0.000 OA
ATOM      4  H   UNL     1       5.436   7.073  17.929  0.00  0.00    +0.000 HD
ENDROOT
BRANCH   1  10
ATOM      5  C   UNL     1       3.100   5.784  18.050  0.00  0.00    +0.000 A 
ATOM      6  C   UNL     1       1.993   4.935  17.830  0.00  0.00    +0.000 A 
ATOM      7  C   UNL     1       2.160   3.590  17.506  0.00  0.00    +0.000 A 
ATOM      8  C   UNL     1       3.438   3.063  17.423  0.00  0.00    +0.000 A 
ATOM      9  C   UNL     1       4.542   3.881  17.652  0.00  0.00    +0.000 A 
ATOM     10  C   UNL     1       4.404   5.249  17.941  0.00  0.00    +0.000 A 
BRANCH   5  11
ATOM     11  C   UNL     1       2.812   7.249  18.279  0.00  0.00    +0.000 C 
BRANCH  11  13
ATOM     12  N   UNL     1       1.565   7.801  20.702  0.00  0.00    +0.000 NA
ATOM     13  C   UNL     1       2.130   7.550  19.603  0.00  0.00    +0.000 C 
ENDBRANCH  11  13
ENDBRANCH   5  11
ENDBRANCH   1  10
BRANCH   2  14
ATOM     14  C   UNL     1       7.839   6.726  18.324  0.00  0.00    +0.000 C 
ATOM     15  C   UNL     1       7.434   7.920  17.856  0.00  0.00    +0.000 C 
BRANCH  15  16
ATOM     16  C   UNL     1       8.266   9.094  17.791  0.00  0.00    +0.000 C 
ATOM     17  C   UNL     1       8.956   9.499  18.866  0.00  0.00    +0.000 C 
BRANCH  17  18
ATOM     18  C   UNL     1       9.727  10.741  18.984  0.00  0.00    +0.000 A 
ATOM     19  C   UNL     1      10.201  11.436  17.845  0.00  0.00    +0.000 A 
ATOM     20  C   UNL     1      10.669  12.751  17.945  0.00  0.00    +0.000 A 
ATOM     21  C   UNL     1      10.601  13.348  19.181  0.00  0.00    +0.000 A 
ATOM     22  C   UNL     1      10.198  12.657  20.303  0.00  0.00    +0.000 A 
ATOM     23  C   UNL     1       9.795  11.344  20.246  0.00  0.00    +0.000 A 
ATOM     24  O   UNL     1      10.118  13.463  21.399  0.00  0.00    +0.000 OA
ATOM     25  C   UNL     1      10.162  14.744  20.740  0.00  0.00    +0.000 C 
ATOM     26  O   UNL     1      10.794  14.670  19.444  0.00  0.00    +0.000 OA
ENDBRANCH  17  18
ENDBRANCH  15  16
ENDBRANCH   2  14
TORSDOF 6
ENDMDL
MODEL 8
REMARK VINA RESULT:      -8.3      1.627      1.868
REMARK  Name = 
REMARK  6 active torsions:
REMARK  status: ('A' for Active; 'I' for Inactive)
REMARK    1  A    between atoms: C_2  and  C_3
REMARK    2  A    between atoms: C_3  and  C_4
REMARK    3  A    between atoms: C_9  and  N_10
REMARK    4  A    between atoms: C_11  and  C_13
REMARK    5  A    between atoms: C_14  and  C_15
REMARK    6  A    between atoms: C_16  and  C_17
REMARK                            x       y       z     vdW  Elec       q    Type
REMARK                         _______ _______ _______ _____ _____    ______ ____
ROOT
ATOM      1  N   UNL     1       5.913   6.390  17.717  0.00  0.00    +0.000 N 
ATOM      2  C   UNL     1       7.005   6.161  18.530  0.00  0.00    +0.000 C 
ATOM      3  O   UNL     1       7.206   5.171  19.224  0.00  0.00    +0.000 OA
ATOM      4  H   UNL     1       5.943   7.221  17.145  0.00  0.00    +0.000 HD
ENDROOT
BRANCH   1  10
ATOM      5  C   UNL     1       4.990   4.298  16.799  0.00  0.00    +0.000 A 
ATOM      6  C   UNL     1       3.904   3.401  16.699  0.00  0.00    +0.000 A 
ATOM      7  C   UNL     1       2.682   3.667  17.316  0.00  0.00    +0.000 A 
ATOM      8  C   UNL     1       2.517   4.847  18.020  0.00  0.00    +0.000 A 
ATOM      9  C   UNL     1       3.573   5.752  18.116  0.00  0.00    +0.000 A 
ATOM     10  C   UNL     1       4.826   5.492  17.538  0.00  0.00    +0.000 A 
BRANCH   5  11
ATOM     11  C   UNL     1       6.303   3.861  16.193  0.00  0.00    +0.000 C 
BRANCH  11  13
ATOM     12  N   UNL     1       7.007   5.235  13.880  0.00  0.00    +0.000 NA
ATOM     13  C   UNL     1       6.688   4.612  14.930  0.00  0.00    +0.000 C 
ENDBRANCH  11  13
ENDBRANCH   5  11
ENDBRANCH   1  10
BRANCH   2  14
ATOM     14  C   UNL     1       8.038   7.227  18.435  0.00  0.00    +0.000 C 
ATOM     15  C   UNL     1       7.689   8.344  17.772  0.00  0.00    +0.000 C 
BRANCH  15  16
ATOM     16  C   UNL     1       8.552   9.484  17.588  0.00  0.00    +0.000 C 
ATOM     17  C   UNL     1       9.041  10.145  18.646  0.00  0.00    +0.000 C 
BRANCH  17  18
ATOM     18  C   UNL     1       9.812  11.392  18.608  0.00  0.00    +0.000 A 
ATOM     19  C   UNL     1      11.093  11.460  18.011  0.00  0.00    +0.000 A 
ATOM     20  C   UNL     1      11.687  12.692  17.716  0.00  0.00    +0.000 A 
ATOM     21  C   UNL     1      10.953  13.822  17.985  0.00  0.00    +0.000 A 
ATOM     22  C   UNL     1       9.732  13.764  18.621  0.00  0.00    +0.000 A 
ATOM     23  C   UNL     1       9.153  12.570  18.982  0.00  0.00    +0.000 A 
ATOM     24  O   UNL     1       9.139  14.989  18.704  0.00  0.00    +0.000 OA
ATOM     25  C   UNL     1       9.953  15.698  17.749  0.00  0.00    +0.000 C 
ATOM     26  O   UNL     1      11.250  15.087  17.576  0.00  0.00    +0.000 OA
ENDBRANCH  17  18
ENDBRANCH  15  16
ENDBRANCH   2  14
TORSDOF 6
ENDMDL
MODEL 9
REMARK VINA RESULT:      -8.2      1.417      1.697
REMARK  Name = 
REMARK  6 active torsions:
REMARK  status: ('A' for Active; 'I' for Inactive)
REMARK    1  A    between atoms: C_2  and  C_3
REMARK    2  A    between atoms: C_3  and  C_4
REMARK    3  A    between atoms: C_9  and  N_10
REMARK    4  A    between atoms: C_11  and  C_13
REMARK    5  A    between atoms: C_14  and  C_15
REMARK    6  A    between atoms: C_16  and  C_17
REMARK                            x       y       z     vdW  Elec       q    Type
REMARK                         _______ _______ _______ _____ _____    ______ ____
ROOT
ATOM      1  N   UNL     1       5.869   5.340  19.154  0.00  0.00    +0.000 N 
ATOM      2  C   UNL     1       7.066   5.331  18.467  0.00  0.00    +0.000 C 
ATOM      3  O   UNL     1       7.356   4.620  17.514  0.00  0.00    +0.000 OA
ATOM      4  H   UNL     1       5.761   6.049  19.864  0.00  0.00    +0.000 HD
ENDROOT
BRANCH   1  10
ATOM      5  C   UNL     1       3.681   5.011  18.068  0.00  0.00    +0.000 A 
ATOM      6  C   UNL     1       2.619   4.141  17.737  0.00  0.00    +0.000 A 
ATOM      7  C   UNL     1       2.604   2.814  18.164  0.00  0.00    +0.000 A 
ATOM      8  C   UNL     1       3.639   2.340  18.952  0.00  0.00    +0.000 A 
ATOM      9  C   UNL     1       4.689   3.188  19.301  0.00  0.00    +0.000 A 
ATOM     10  C   UNL     1       4.748   4.518  18.853  0.00  0.00    +0.000 A 
BRANCH   5  11
ATOM     11  C   UNL     1       3.658   6.393  17.459  0.00  0.00    +0.000 C 
BRANCH  11  13
ATOM     12  N   UNL     1       5.474   6.755  15.385  0.00  0.00    +0.000 NA
ATOM     13  C   UNL     1       4.650   6.591  16.326  0.00  0.00    +0.000 C 
ENDBRANCH  11  13
ENDBRANCH   5  11
ENDBRANCH   1  10
BRANCH   2  14
ATOM     14  C   UNL     1       8.015   6.375  18.937  0.00  0.00    +0.000 C 
ATOM     15  C   UNL     1       7.990   7.549  18.282  0.00  0.00    +0.000 C 
BRANCH  15  16
ATOM     16  C   UNL     1       8.827   8.677  18.601  0.00  0.00    +0.000 C 
ATOM     17  C   UNL     1       8.520   9.902  18.149  0.00  0.00    +0.000 C 
BRANCH  17  18
ATOM     18  C   UNL     1       9.347  11.106  18.280  0.00  0.00    +0.000 A 
ATOM     19  C   UNL     1      10.677  11.154  17.797  0.00  0.00    +0.000 A 
ATOM     20  C   UNL     1      11.350  12.373  17.656  0.00  0.00    +0.000 A 
ATOM     21  C   UNL     1      10.647  13.515  17.958  0.00  0.00    +0.000 A 
ATOM     22  C   UNL     1       9.375  13.470  18.485  0.00  0.00    +0.000 A 
ATOM     23  C   UNL     1       8.713  12.284  18.696  0.00  0.00    +0.000 A 
ATOM     24  O   UNL     1       8.834  14.714  18.622  0.00  0.00    +0.000 OA
ATOM     25  C   UNL     1       9.758  15.453  17.800  0.00  0.00    +0.000 C 
ATOM     26  O   UNL     1      11.036  14.791  17.683  0.00  0.00    +0.000 OA
ENDBRANCH  17  18
ENDBRANCH  15  16
ENDBRANCH   2  14
TORSDOF 6
ENDMDL
