MODEL 1
REMARK VINA RESULT:      -5.6      0.000      0.000
REMARK  Name = 
REMARK  9 active torsions:
REMARK  status: ('A' for Active; 'I' for Inactive)
REMARK    1  A    between atoms: C_1  and  C_2
REMARK    2  A    between atoms: C_2  and  N_3
REMARK    3  A    between atoms: C_4  and  S_5
REMARK    4  A    between atoms: C_4  and  S_6
REMARK    5  A    between atoms: S_6  and  C_7
REMARK    6  A    between atoms: C_7  and  C_8
REMARK    7  A    between atoms: C_8  and  O_9
REMARK    8  A    between atoms: O_9  and  C_10
REMARK    9  A    between atoms: C_13  and  C_14
REMARK                            x       y       z     vdW  Elec       q    Type
REMARK                         _______ _______ _______ _____ _____    ______ ____
ROOT
ATOM      1  C   UNL     1       7.226   5.009  16.797  0.00  0.00    +0.000 C 
ENDROOT
BRANCH   1   2
ATOM      2  C   UNL     1       6.451   6.025  17.641  0.00  0.00    +0.000 C 
BRANCH   2   3
ATOM      3  S   UNL     1       5.935   5.253  19.203  0.00  0.00    +0.000 S 
BRANCH   3   5
ATOM      4  N   UNL     1       3.903   4.549  17.662  0.00  0.00    +0.000 NA
ATOM      5  C   UNL     1       4.613   4.224  18.679  0.00  0.00    +0.000 C 
BRANCH   4   7
ATOM      6  C   UNL     1       1.499   4.308  17.721  0.00  0.00    +0.000 C 
ATOM      7  C   UNL     1       2.800   3.716  17.204  0.00  0.00    +0.000 C 
ENDBRANCH   4   7
BRANCH   5   8
ATOM      8  S   UNL     1       4.437   2.802  19.686  0.00  0.00    +0.000 S 
ATOM      9  H   UNL     1       3.160   2.520  19.418  0.00  0.00    +0.000 HD
ENDBRANCH   5   8
ENDBRANCH   3   5
ENDBRANCH   2   3
ENDBRANCH   1   2
BRANCH   1  10
ATOM     10  O   UNL     1       7.493   5.581  15.512  0.00  0.00    +0.000 OA
BRANCH  10  11
ATOM     11  C   UNL     1       6.994   4.914  14.424  0.00  0.00    +0.000 A 
ATOM     12  C   UNL     1       7.578   4.849  13.159  0.00  0.00    +0.000 A 
ATOM     13  C   UNL     1       6.966   4.120  12.132  0.00  0.00    +0.000 A 
ATOM     14  C   UNL     1       5.763   3.442  12.355  0.00  0.00    +0.000 A 
ATOM     15  C   UNL     1       5.108   2.650  11.263  0.00  0.00    +0.000 C 
ATOM     16  C   UNL     1       5.174   3.516  13.622  0.00  0.00    +0.000 A 
ATOM     17  C   UNL     1       5.787   4.245  14.646  0.00  0.00    +0.000 A 
ENDBRANCH  10  11
ENDBRANCH   1  10
TORSDOF 7
ENDMDL
MODEL 2
REMARK VINA RESULT:      -5.4      3.830      4.973
REMARK  Name = 
REMARK  9 active torsions:
REMARK  status: ('A' for Active; 'I' for Inactive)
REMARK    1  A    between atoms: C_1  and  C_2
REMARK    2  A    between atoms: C_2  and  N_3
REMARK    3  A    between atoms: C_4  and  S_5
REMARK    4  A    between atoms: C_4  and  S_6
REMARK    5  A    between atoms: S_6  and  C_7
REMARK    6  A    between atoms: C_7  and  C_8
REMARK    7  A    between atoms: C_8  and  O_9
REMARK    8  A    between atoms: O_9  and  C_10
REMARK    9  A    between atoms: C_13  and  C_14
REMARK                            x       y       z     vdW  Elec       q    Type
REMARK                         _______ _______ _______ _____ _____    ______ ____
ROOT
ATOM      1  C   UNL     1       3.698   3.274  17.585  0.00  0.00    +0.000 C 
ENDROOT
BRANCH   1   2
ATOM      2  C   UNL     1       3.105   1.950  18.077  0.00  0.00    +0.000 C 
BRANCH   2   3
ATOM      3  S   UNL     1       1.426   2.233  18.711  0.00  0.00    +0.000 S 
BRANCH   3   5
ATOM      4  N   UNL     1       1.496   4.720  19.611  0.00  0.00    +0.000 NA
ATOM      5  C   UNL     1       1.698   3.489  19.908  0.00  0.00    +0.000 C 
BRANCH   4   7
ATOM      6  C   UNL     1       2.403   6.943  19.884  0.00  0.00    +0.000 C 
ATOM      7  C   UNL     1       1.713   5.783  20.582  0.00  0.00    +0.000 C 
ENDBRANCH   4   7
BRANCH   5   8
ATOM      8  S   UNL     1       2.242   2.840  21.440  0.00  0.00    +0.000 S 
ATOM      9  H   UNL     1       1.097   2.938  22.120  0.00  0.00    +0.000 HD
ENDBRANCH   5   8
ENDBRANCH   3   5
ENDBRANCH   2   3
ENDBRANCH   1   2
BRANCH   1  10
ATOM     10  O   UNL     1       4.938   3.506  18.263  0.00  0.00    +0.000 OA
BRANCH  10  11
ATOM     11  C   UNL     1       5.565   4.698  18.008  0.00  0.00    +0.000 A 
ATOM     12  C   UNL     1       5.119   5.694  17.140  0.00  0.00    +0.000 A 
ATOM     13  C   UNL     1       5.854   6.875  16.978  0.00  0.00    +0.000 A 
ATOM     14  C   UNL     1       7.044   7.079  17.683  0.00  0.00    +0.000 A 
ATOM     15  C   UNL     1       7.831   8.345  17.523  0.00  0.00    +0.000 C 
ATOM     16  C   UNL     1       7.495   6.075  18.546  0.00  0.00    +0.000 A 
ATOM     17  C   UNL     1       6.760   4.896  18.706  0.00  0.00    +0.000 A 
ENDBRANCH  10  11
ENDBRANCH   1  10
TORSDOF 7
ENDMDL
MODEL 3
REMARK VINA RESULT:      -5.4      2.756      5.704
REMARK  Name = 
REMARK  9 active torsions:
REMARK  status: ('A' for Active; 'I' for Inactive)
REMARK    1  A    between atoms: C_1  and  C_2
REMARK    2  A    between atoms: C_2  and  N_3
REMARK    3  A    between atoms: C_4  and  S_5
REMARK    4  A    between atoms: C_4  and  S_6
REMARK    5  A    between atoms: S_6  and  C_7
REMARK    6  A    between atoms: C_7  and  C_8
REMARK    7  A    between atoms: C_8  and  O_9
REMARK    8  A    between atoms: O_9  and  C_10
REMARK    9  A    between atoms: C_13  and  C_14
REMARK                            x       y       z     vdW  Elec       q    Type
REMARK                         _______ _______ _______ _____ _____    ______ ____
ROOT
ATOM      1  C   UNL     1       6.497   4.850  18.923  0.00  0.00    +0.000 C 
ENDROOT
BRANCH   1   2
ATOM      2  C   UNL     1       7.680   5.815  19.037  0.00  0.00    +0.000 C 
BRANCH   2   3
ATOM      3  S   UNL     1       7.492   7.156  17.826  0.00  0.00    +0.000 S 
BRANCH   3   5
ATOM      4  N   UNL     1       7.416   5.504  15.761  0.00  0.00    +0.000 NA
ATOM      5  C   UNL     1       6.737   6.323  16.477  0.00  0.00    +0.000 C 
BRANCH   4   7
ATOM      6  C   UNL     1       6.035   3.612  15.169  0.00  0.00    +0.000 C 
ATOM      7  C   UNL     1       6.819   4.800  14.636  0.00  0.00    +0.000 C 
ENDBRANCH   4   7
BRANCH   5   8
ATOM      8  S   UNL     1       5.051   6.756  16.287  0.00  0.00    +0.000 S 
ATOM      9  H   UNL     1       5.139   8.052  16.594  0.00  0.00    +0.000 HD
ENDBRANCH   5   8
ENDBRANCH   3   5
ENDBRANCH   2   3
ENDBRANCH   1   2
BRANCH   1  10
ATOM     10  O   UNL     1       5.381   5.398  19.632  0.00  0.00    +0.000 OA
BRANCH  10  11
ATOM     11  C   UNL     1       4.183   4.746  19.496  0.00  0.00    +0.000 A 
ATOM     12  C   UNL     1       2.988   5.079  20.134  0.00  0.00    +0.000 A 
ATOM     13  C   UNL     1       1.827   4.332  19.899  0.00  0.00    +0.000 A 
ATOM     14  C   UNL     1       1.843   3.243  19.020  0.00  0.00    +0.000 A 
ATOM     15  C   UNL     1       0.601   2.445  18.755  0.00  0.00    +0.000 C 
ATOM     16  C   UNL     1       3.045   2.905  18.390  0.00  0.00    +0.000 A 
ATOM     17  C   UNL     1       4.203   3.652  18.627  0.00  0.00    +0.000 A 
ENDBRANCH  10  11
ENDBRANCH   1  10
TORSDOF 7
ENDMDL
MODEL 4
REMARK VINA RESULT:      -5.4      3.457      6.354
REMARK  Name = 
REMARK  9 active torsions:
REMARK  status: ('A' for Active; 'I' for Inactive)
REMARK    1  A    between atoms: C_1  and  C_2
REMARK    2  A    between atoms: C_2  and  N_3
REMARK    3  A    between atoms: C_4  and  S_5
REMARK    4  A    between atoms: C_4  and  S_6
REMARK    5  A    between atoms: S_6  and  C_7
REMARK    6  A    between atoms: C_7  and  C_8
REMARK    7  A    between atoms: C_8  and  O_9
REMARK    8  A    between atoms: O_9  and  C_10
REMARK    9  A    between atoms: C_13  and  C_14
REMARK                            x       y       z     vdW  Elec       q    Type
REMARK                         _______ _______ _______ _____ _____    ______ ____
ROOT
ATOM      1  C   UNL     1       5.917   3.887  15.797  0.00  0.00    +0.000 C 
ENDROOT
BRANCH   1   2
ATOM      2  C   UNL     1       5.381   4.354  14.441  0.00  0.00    +0.000 C 
BRANCH   2   3
ATOM      3  S   UNL     1       6.534   3.857  13.127  0.00  0.00    +0.000 S 
BRANCH   3   5
ATOM      4  N   UNL     1       4.366   3.674  11.622  0.00  0.00    +0.000 NA
ATOM      5  C   UNL     1       5.457   3.096  11.968  0.00  0.00    +0.000 C 
BRANCH   4   7
ATOM      6  C   UNL     1       2.989   4.138   9.691  0.00  0.00    +0.000 C 
ATOM      7  C   UNL     1       3.453   3.067  10.664  0.00  0.00    +0.000 C 
ENDBRANCH   4   7
BRANCH   5   8
ATOM      8  S   UNL     1       6.065   1.551  11.411  0.00  0.00    +0.000 S 
ATOM      9  H   UNL     1       5.267   1.389  10.353  0.00  0.00    +0.000 HD
ENDBRANCH   5   8
ENDBRANCH   3   5
ENDBRANCH   2   3
ENDBRANCH   1   2
BRANCH   1  10
ATOM     10  O   UNL     1       5.324   4.684  16.829  0.00  0.00    +0.000 OA
BRANCH  10  11
ATOM     11  C   UNL     1       4.239   4.150  17.472  0.00  0.00    +0.000 A 
ATOM     12  C   UNL     1       3.932   2.793  17.582  0.00  0.00    +0.000 A 
ATOM     13  C   UNL     1       2.790   2.378  18.279  0.00  0.00    +0.000 A 
ATOM     14  C   UNL     1       1.940   3.313  18.879  0.00  0.00    +0.000 A 
ATOM     15  C   UNL     1       0.722   2.876  19.637  0.00  0.00    +0.000 C 
ATOM     16  C   UNL     1       2.244   4.673  18.760  0.00  0.00    +0.000 A 
ATOM     17  C   UNL     1       3.384   5.085  18.062  0.00  0.00    +0.000 A 
ENDBRANCH  10  11
ENDBRANCH   1  10
TORSDOF 7
ENDMDL
MODEL 5
REMARK VINA RESULT:      -5.4      2.426      3.411
REMARK  Name = 
REMARK  9 active torsions:
REMARK  status: ('A' for Active; 'I' for Inactive)
REMARK    1  A    between atoms: C_1  and  C_2
REMARK    2  A    between atoms: C_2  and  N_3
REMARK    3  A    between atoms: C_4  and  S_5
REMARK    4  A    between atoms: C_4  and  S_6
REMARK    5  A    between atoms: S_6  and  C_7
REMARK    6  A    between atoms: C_7  and  C_8
REMARK    7  A    between atoms: C_8  and  O_9
REMARK    8  A    between atoms: O_9  and  C_10
REMARK    9  A    between atoms: C_13  and  C_14
REMARK                            x       y       z     vdW  Elec       q    Type
REMARK                         _______ _______ _______ _____ _____    ______ ____
ROOT
ATOM      1  C   UNL     1       3.874   5.470  19.299  0.00  0.00    +0.000 C 
ENDROOT
BRANCH   1   2
ATOM      2  C   UNL     1       2.741   6.471  19.543  0.00  0.00    +0.000 C 
BRANCH   2   3
ATOM      3  S   UNL     1       1.526   5.750  20.686  0.00  0.00    +0.000 S 
BRANCH   3   5
ATOM      4  N   UNL     1       1.189   3.720  19.023  0.00  0.00    +0.000 NA
ATOM      5  C   UNL     1       1.539   4.060  20.209  0.00  0.00    +0.000 C 
BRANCH   4   7
ATOM      6  C   UNL     1       2.463   2.059  17.816  0.00  0.00    +0.000 C 
ATOM      7  C   UNL     1       1.189   2.327  18.599  0.00  0.00    +0.000 C 
ENDBRANCH   4   7
BRANCH   5   8
ATOM      8  S   UNL     1       2.063   3.007  21.506  0.00  0.00    +0.000 S 
ATOM      9  H   UNL     1       0.887   2.445  21.798  0.00  0.00    +0.000 HD
ENDBRANCH   5   8
ENDBRANCH   3   5
ENDBRANCH   2   3
ENDBRANCH   1   2
BRANCH   1  10
ATOM     10  O   UNL     1       4.918   6.121  18.566  0.00  0.00    +0.000 OA
BRANCH  10  11
ATOM     11  C   UNL     1       5.168   5.653  17.303  0.00  0.00    +0.000 A 
ATOM     12  C   UNL     1       5.113   6.396  16.123  0.00  0.00    +0.000 A 
ATOM     13  C   UNL     1       5.402   5.794  14.892  0.00  0.00    +0.000 A 
ATOM     14  C   UNL     1       5.754   4.443  14.822  0.00  0.00    +0.000 A 
ATOM     15  C   UNL     1       6.076   3.794  13.509  0.00  0.00    +0.000 C 
ATOM     16  C   UNL     1       5.799   3.697  16.005  0.00  0.00    +0.000 A 
ATOM     17  C   UNL     1       5.509   4.299  17.233  0.00  0.00    +0.000 A 
ENDBRANCH  10  11
ENDBRANCH   1  10
TORSDOF 7
ENDMDL
MODEL 6
REMARK VINA RESULT:      -5.3      2.911      6.409
REMARK  Name = 
REMARK  9 active torsions:
REMARK  status: ('A' for Active; 'I' for Inactive)
REMARK    1  A    between atoms: C_1  and  C_2
REMARK    2  A    between atoms: C_2  and  N_3
REMARK    3  A    between atoms: C_4  and  S_5
REMARK    4  A    between atoms: C_4  and  S_6
REMARK    5  A    between atoms: S_6  and  C_7
REMARK    6  A    between atoms: C_7  and  C_8
REMARK    7  A    between atoms: C_8  and  O_9
REMARK    8  A    between atoms: O_9  and  C_10
REMARK    9  A    between atoms: C_13  and  C_14
REMARK                            x       y       z     vdW  Elec       q    Type
REMARK                         _______ _______ _______ _____ _____    ______ ____
ROOT
ATOM      1  C   UNL     1       4.973   6.611  17.176  0.00  0.00    +0.000 C 
ENDROOT
BRANCH   1   2
ATOM      2  C   UNL     1       5.266   6.178  15.737  0.00  0.00    +0.000 C 
BRANCH   2   3
ATOM      3  S   UNL     1       6.681   5.039  15.720  0.00  0.00    +0.000 S 
BRANCH   3   5
ATOM      4  N   UNL     1       5.885   3.673  13.599  0.00  0.00    +0.000 NA
ATOM      5  C   UNL     1       6.723   4.538  14.037  0.00  0.00    +0.000 C 
BRANCH   4   7
ATOM      6  C   UNL     1       4.485   3.346  11.656  0.00  0.00    +0.000 C 
ATOM      7  C   UNL     1       5.896   3.238  12.209  0.00  0.00    +0.000 C 
ENDBRANCH   4   7
BRANCH   5   8
ATOM      8  S   UNL     1       7.989   5.346  13.135  0.00  0.00    +0.000 S 
ATOM      9  H   UNL     1       7.457   5.255  11.914  0.00  0.00    +0.000 HD
ENDBRANCH   5   8
ENDBRANCH   3   5
ENDBRANCH   2   3
ENDBRANCH   1   2
BRANCH   1  10
ATOM     10  O   UNL     1       5.357   5.555  18.065  0.00  0.00    +0.000 OA
BRANCH  10  11
ATOM     11  C   UNL     1       4.375   5.039  18.869  0.00  0.00    +0.000 A 
ATOM     12  C   UNL     1       3.264   5.728  19.358  0.00  0.00    +0.000 A 
ATOM     13  C   UNL     1       2.325   5.076  20.166  0.00  0.00    +0.000 A 
ATOM     14  C   UNL     1       2.480   3.726  20.495  0.00  0.00    +0.000 A 
ATOM     15  C   UNL     1       1.472   3.018  21.351  0.00  0.00    +0.000 C 
ATOM     16  C   UNL     1       3.598   3.039  20.012  0.00  0.00    +0.000 A 
ATOM     17  C   UNL     1       4.536   3.692  19.205  0.00  0.00    +0.000 A 
ENDBRANCH  10  11
ENDBRANCH   1  10
TORSDOF 7
ENDMDL
MODEL 7
REMARK VINA RESULT:      -5.3      2.610      6.210
REMARK  Name = 
REMARK  9 active torsions:
REMARK  status: ('A' for Active; 'I' for Inactive)
REMARK    1  A    between atoms: C_1  and  C_2
REMARK    2  A    between atoms: C_2  and  N_3
REMARK    3  A    between atoms: C_4  and  S_5
REMARK    4  A    between atoms: C_4  and  S_6
REMARK    5  A    between atoms: S_6  and  C_7
REMARK    6  A    between atoms: C_7  and  C_8
REMARK    7  A    between atoms: C_8  and  O_9
REMARK    8  A    between atoms: O_9  and  C_10
REMARK    9  A    between atoms: C_13  and  C_14
REMARK                            x       y       z     vdW  Elec       q    Type
REMARK                         _______ _______ _______ _____ _____    ______ ____
ROOT
ATOM      1  C   UNL     1       4.702   6.706  16.773  0.00  0.00    +0.000 C 
ENDROOT
BRANCH   1   2
ATOM      2  C   UNL     1       6.014   7.048  17.484  0.00  0.00    +0.000 C 
BRANCH   2   3
ATOM      3  S   UNL     1       7.076   5.575  17.545  0.00  0.00    +0.000 S 
BRANCH   3   5
ATOM      4  N   UNL     1       7.470   5.376  14.937  0.00  0.00    +0.000 NA
ATOM      5  C   UNL     1       6.842   4.892  15.944  0.00  0.00    +0.000 C 
BRANCH   4   7
ATOM      6  C   UNL     1       8.192   5.600  12.641  0.00  0.00    +0.000 C 
ATOM      7  C   UNL     1       7.296   4.831  13.598  0.00  0.00    +0.000 C 
ENDBRANCH   4   7
BRANCH   5   8
ATOM      8  S   UNL     1       5.707   3.558  15.950  0.00  0.00    +0.000 S 
ATOM      9  H   UNL     1       4.587   4.244  15.710  0.00  0.00    +0.000 HD
ENDBRANCH   5   8
ENDBRANCH   3   5
ENDBRANCH   2   3
ENDBRANCH   1   2
BRANCH   1  10
ATOM     10  O   UNL     1       3.607   7.086  17.613  0.00  0.00    +0.000 OA
BRANCH  10  11
ATOM     11  C   UNL     1       2.961   6.076  18.278  0.00  0.00    +0.000 A 
ATOM     12  C   UNL     1       2.488   4.891  17.714  0.00  0.00    +0.000 A 
ATOM     13  C   UNL     1       1.851   3.931  18.511  0.00  0.00    +0.000 A 
ATOM     14  C   UNL     1       1.680   4.142  19.883  0.00  0.00    +0.000 A 
ATOM     15  C   UNL     1       1.008   3.115  20.746  0.00  0.00    +0.000 C 
ATOM     16  C   UNL     1       2.146   5.335  20.445  0.00  0.00    +0.000 A 
ATOM     17  C   UNL     1       2.781   6.292  19.646  0.00  0.00    +0.000 A 
ENDBRANCH  10  11
ENDBRANCH   1  10
TORSDOF 7
ENDMDL
MODEL 8
REMARK VINA RESULT:      -5.3      2.363      5.704
REMARK  Name = 
REMARK  9 active torsions:
REMARK  status: ('A' for Active; 'I' for Inactive)
REMARK    1  A    between atoms: C_1  and  C_2
REMARK    2  A    between atoms: C_2  and  N_3
REMARK    3  A    between atoms: C_4  and  S_5
REMARK    4  A    between atoms: C_4  and  S_6
REMARK    5  A    between atoms: S_6  and  C_7
REMARK    6  A    between atoms: C_7  and  C_8
REMARK    7  A    between atoms: C_8  and  O_9
REMARK    8  A    between atoms: O_9  and  C_10
REMARK    9  A    between atoms: C_13  and  C_14
REMARK                            x       y       z     vdW  Elec       q    Type
REMARK                         _______ _______ _______ _____ _____    ______ ____
ROOT
ATOM      1  C   UNL     1       6.516   5.269  19.313  0.00  0.00    +0.000 C 
ENDROOT
BRANCH   1   2
ATOM      2  C   UNL     1       6.885   5.897  17.966  0.00  0.00    +0.000 C 
BRANCH   2   3
ATOM      3  S   UNL     1       7.482   4.607  16.835  0.00  0.00    +0.000 S 
BRANCH   3   5
ATOM      4  N   UNL     1       6.384   3.894  14.536  0.00  0.00    +0.000 NA
ATOM      5  C   UNL     1       6.324   4.715  15.519  0.00  0.00    +0.000 C 
BRANCH   4   7
ATOM      6  C   UNL     1       6.038   3.238  12.236  0.00  0.00    +0.000 C 
ATOM      7  C   UNL     1       5.438   3.959  13.431  0.00  0.00    +0.000 C 
ENDBRANCH   4   7
BRANCH   5   8
ATOM      8  S   UNL     1       5.174   6.015  15.751  0.00  0.00    +0.000 S 
ATOM      9  H   UNL     1       5.640   6.864  14.831  0.00  0.00    +0.000 HD
ENDBRANCH   5   8
ENDBRANCH   3   5
ENDBRANCH   2   3
ENDBRANCH   1   2
BRANCH   1  10
ATOM     10  O   UNL     1       5.194   5.685  19.672  0.00  0.00    +0.000 OA
BRANCH  10  11
ATOM     11  C   UNL     1       4.182   4.792  19.435  0.00  0.00    +0.000 A 
ATOM     12  C   UNL     1       4.247   3.409  19.608  0.00  0.00    +0.000 A 
ATOM     13  C   UNL     1       3.131   2.607  19.338  0.00  0.00    +0.000 A 
ATOM     14  C   UNL     1       1.932   3.176  18.895  0.00  0.00    +0.000 A 
ATOM     15  C   UNL     1       0.729   2.326  18.614  0.00  0.00    +0.000 C 
ATOM     16  C   UNL     1       1.872   4.562  18.713  0.00  0.00    +0.000 A 
ATOM     17  C   UNL     1       2.988   5.360  18.982  0.00  0.00    +0.000 A 
ENDBRANCH  10  11
ENDBRANCH   1  10
TORSDOF 7
ENDMDL
MODEL 9
REMARK VINA RESULT:      -5.2      3.596      6.858
REMARK  Name = 
REMARK  9 active torsions:
REMARK  status: ('A' for Active; 'I' for Inactive)
REMARK    1  A    between atoms: C_1  and  C_2
REMARK    2  A    between atoms: C_2  and  N_3
REMARK    3  A    between atoms: C_4  and  S_5
REMARK    4  A    between atoms: C_4  and  S_6
REMARK    5  A    between atoms: S_6  and  C_7
REMARK    6  A    between atoms: C_7  and  C_8
REMARK    7  A    between atoms: C_8  and  O_9
REMARK    8  A    between atoms: O_9  and  C_10
REMARK    9  A    between atoms: C_13  and  C_14
REMARK                            x       y       z     vdW  Elec       q    Type
REMARK                         _______ _______ _______ _____ _____    ______ ____
ROOT
ATOM      1  C   UNL     1       3.006   4.650  18.558  0.00  0.00    +0.000 C 
ENDROOT
BRANCH   1   2
ATOM      2  C   UNL     1       4.308   3.850  18.463  0.00  0.00    +0.000 C 
BRANCH   2   3
ATOM      3  S   UNL     1       5.705   4.901  18.961  0.00  0.00    +0.000 S 
BRANCH   3   5
ATOM      4  N   UNL     1       6.449   4.413  16.469  0.00  0.00    +0.000 NA
ATOM      5  C   UNL     1       6.441   5.281  17.413  0.00  0.00    +0.000 C 
BRANCH   4   7
ATOM      6  C   UNL     1       6.228   4.020  14.095  0.00  0.00    +0.000 C 
ATOM      7  C   UNL     1       7.052   4.700  15.176  0.00  0.00    +0.000 C 
ENDBRANCH   4   7
BRANCH   5   8
ATOM      8  S   UNL     1       7.107   6.901  17.374  0.00  0.00    +0.000 S 
ATOM      9  H   UNL     1       8.192   6.656  16.637  0.00  0.00    +0.000 HD
ENDBRANCH   5   8
ENDBRANCH   3   5
ENDBRANCH   2   3
ENDBRANCH   1   2
BRANCH   1  10
ATOM     10  O   UNL     1       3.102   5.566  19.654  0.00  0.00    +0.000 OA
BRANCH  10  11
ATOM     11  C   UNL     1       2.487   6.780  19.499  0.00  0.00    +0.000 A 
ATOM     12  C   UNL     1       1.827   7.502  20.495  0.00  0.00    +0.000 A 
ATOM     13  C   UNL     1       1.245   8.742  20.204  0.00  0.00    +0.000 A 
ATOM     14  C   UNL     1       1.317   9.281  18.915  0.00  0.00    +0.000 A 
ATOM     15  C   UNL     1       0.706  10.613  18.599  0.00  0.00    +0.000 C 
ATOM     16  C   UNL     1       1.970   8.551  17.917  0.00  0.00    +0.000 A 
ATOM     17  C   UNL     1       2.550   7.312  18.209  0.00  0.00    +0.000 A 
ENDBRANCH  10  11
ENDBRANCH   1  10
TORSDOF 7
ENDMDL
