MODEL 1
REMARK VINA RESULT:      -7.3      0.000      0.000
REMARK  Name = 
REMARK  11 active torsions:
REMARK  status: ('A' for Active; 'I' for Inactive)
REMARK    1  A    between atoms: N_3  and  C_4
REMARK    2  A    between atoms: C_4  and  C_5
REMARK    3  A    between atoms: C_5  and  C_6
REMARK    4  A    between atoms: C_6  and  C_7
REMARK    5  A    between atoms: C_7  and  C_8
REMARK    6  A    between atoms: C_8  and  C_9
REMARK    7  A    between atoms: N_11  and  C_12
REMARK    8  A    between atoms: C_15  and  C_16
REMARK    9  A    between atoms: N_18  and  C_19
REMARK   10  A    between atoms: C_22  and  N_23
REMARK   11  A    between atoms: N_29  and  N_30
REMARK                            x       y       z     vdW  Elec       q    Type
REMARK                         _______ _______ _______ _____ _____    ______ ____
ROOT
ATOM      1  C   UNL     1       3.700   3.910  17.602  0.00  0.00    +0.000 C 
ATOM      2  O   UNL     1       4.252   2.827  17.444  0.00  0.00    +0.000 OA
ATOM      3  N   UNL     1       4.384   5.081  17.846  0.00  0.00    +0.000 N 
ATOM      4  H   UNL     1       3.859   5.881  18.179  0.00  0.00    +0.000 HD
ENDROOT
BRANCH   3   5
ATOM      5  C   UNL     1       5.825   5.097  18.004  0.00  0.00    +0.000 C 
ATOM      6  C   UNL     1       6.279   5.624  19.360  0.00  0.00    +0.000 C 
ATOM      7  N   UNL     1       7.698   5.918  19.152  0.00  0.00    +0.000 NA
ATOM      8  C   UNL     1       7.772   6.534  17.800  0.00  0.00    +0.000 C 
ATOM      9  C   UNL     1       6.544   6.032  17.032  0.00  0.00    +0.000 C 
ATOM     10  H   UNL     1       8.230   5.050  19.156  0.00  0.00    +0.000 HD
BRANCH   8  11
ATOM     11  C   UNL     1       7.801   8.081  17.915  0.00  0.00    +0.000 C 
ATOM     12  O   UNL     1       6.946   8.789  17.387  0.00  0.00    +0.000 OA
ATOM     13  N   UNL     1       8.879   8.572  18.648  0.00  0.00    +0.000 N 
ATOM     14  H   UNL     1       9.638   7.933  18.856  0.00  0.00    +0.000 HD
BRANCH  13  15
ATOM     15  C   UNL     1       9.074   9.929  18.999  0.00  0.00    +0.000 A 
ATOM     16  C   UNL     1       9.109  10.368  20.329  0.00  0.00    +0.000 A 
ATOM     17  C   UNL     1       9.289  11.716  20.643  0.00  0.00    +0.000 A 
ATOM     18  C   UNL     1       9.446  12.646  19.616  0.00  0.00    +0.000 A 
ATOM     19  C   UNL     1       9.433  12.228  18.279  0.00  0.00    +0.000 A 
ATOM     20  C   UNL     1       9.259  10.868  17.976  0.00  0.00    +0.000 A 
BRANCH  18  21
ATOM     21  N   UNL     1       9.635  14.063  19.947  0.00  0.00    +0.000 N 
ATOM     22  O   UNL     1      10.737  14.415  20.393  0.00  0.00    +0.000 OA
ATOM     23  O   UNL     1       8.676  14.829  19.757  0.00  0.00    +0.000 OA
ENDBRANCH  18  21
ENDBRANCH  13  15
ENDBRANCH   8  11
ENDBRANCH   3   5
BRANCH   1  24
ATOM     24  C   UNL     1       2.194   4.071  17.520  0.00  0.00    +0.000 C 
BRANCH  24  25
ATOM     25  C   UNL     1       1.449   2.989  18.297  0.00  0.00    +0.000 C 
BRANCH  25  26
ATOM     26  C   UNL     1       1.709   3.051  19.807  0.00  0.00    +0.000 C 
BRANCH  26  27
ATOM     27  C   UNL     1       1.013   4.242  20.471  0.00  0.00    +0.000 C 
BRANCH  27  28
ATOM     28  C   UNL     1       2.007   5.286  20.982  0.00  0.00    +0.000 C 
BRANCH  28  31
ATOM     29  N   UNL     1       1.430   8.138  21.543  0.00  0.00    +0.000 NA
ATOM     30  C   UNL     1       1.817   7.717  20.378  0.00  0.00    +0.000 C 
ATOM     31  N   UNL     1       2.054   6.415  20.089  0.00  0.00    +0.000 N 
ATOM     32  N   UNL     1       1.978   8.672  19.434  0.00  0.00    +0.000 N 
ATOM     33  H   UNL     1       1.327   7.350  22.180  0.00  0.00    +0.000 HD
ATOM     34  H   UNL     1       2.359   6.195  19.138  0.00  0.00    +0.000 HD
ATOM     35  H   UNL     1       1.774   9.600  19.763  0.00  0.00    +0.000 HD
BRANCH  32  36
ATOM     36  N   UNL     1       2.345   8.496  18.164  0.00  0.00    +0.000 N 
ATOM     37  O   UNL     1       1.701   9.042  17.260  0.00  0.00    +0.000 OA
ATOM     38  O   UNL     1       3.329   7.773  18.031  0.00  0.00    +0.000 OA
ENDBRANCH  32  36
ENDBRANCH  28  31
ENDBRANCH  27  28
ENDBRANCH  26  27
ENDBRANCH  25  26
ENDBRANCH  24  25
ENDBRANCH   1  24
TORSDOF 11
ENDMDL
MODEL 2
REMARK VINA RESULT:      -7.1      2.300      7.354
REMARK  Name = 
REMARK  11 active torsions:
REMARK  status: ('A' for Active; 'I' for Inactive)
REMARK    1  A    between atoms: N_3  and  C_4
REMARK    2  A    between atoms: C_4  and  C_5
REMARK    3  A    between atoms: C_5  and  C_6
REMARK    4  A    between atoms: C_6  and  C_7
REMARK    5  A    between atoms: C_7  and  C_8
REMARK    6  A    between atoms: C_8  and  C_9
REMARK    7  A    between atoms: N_11  and  C_12
REMARK    8  A    between atoms: C_15  and  C_16
REMARK    9  A    between atoms: N_18  and  C_19
REMARK   10  A    between atoms: C_22  and  N_23
REMARK   11  A    between atoms: N_29  and  N_30
REMARK                            x       y       z     vdW  Elec       q    Type
REMARK                         _______ _______ _______ _____ _____    ______ ____
ROOT
ATOM      1  C   UNL     1       4.992   4.772  16.761  0.00  0.00    +0.000 C 
ATOM      2  O   UNL     1       4.032   5.464  17.080  0.00  0.00    +0.000 OA
ATOM      3  N   UNL     1       5.201   3.498  17.242  0.00  0.00    +0.000 N 
ATOM      4  H   UNL     1       6.115   3.080  17.109  0.00  0.00    +0.000 HD
ENDROOT
BRANCH   3   5
ATOM      5  C   UNL     1       4.320   2.908  18.230  0.00  0.00    +0.000 C 
ATOM      6  C   UNL     1       2.883   2.756  17.746  0.00  0.00    +0.000 C 
ATOM      7  N   UNL     1       2.130   2.533  18.981  0.00  0.00    +0.000 NA
ATOM      8  C   UNL     1       2.723   3.471  19.971  0.00  0.00    +0.000 C 
ATOM      9  C   UNL     1       4.151   3.753  19.493  0.00  0.00    +0.000 C 
ATOM     10  H   UNL     1       2.271   1.575  19.298  0.00  0.00    +0.000 HD
BRANCH   8  11
ATOM     11  C   UNL     1       1.869   4.763  20.067  0.00  0.00    +0.000 C 
ATOM     12  O   UNL     1       0.726   4.754  20.518  0.00  0.00    +0.000 OA
ATOM     13  N   UNL     1       2.514   5.901  19.589  0.00  0.00    +0.000 N 
ATOM     14  H   UNL     1       3.360   5.771  19.046  0.00  0.00    +0.000 HD
BRANCH  13  15
ATOM     15  C   UNL     1       2.004   7.219  19.670  0.00  0.00    +0.000 A 
ATOM     16  C   UNL     1       1.516   7.769  20.863  0.00  0.00    +0.000 A 
ATOM     17  C   UNL     1       1.008   9.069  20.907  0.00  0.00    +0.000 A 
ATOM     18  C   UNL     1       0.989   9.840  19.745  0.00  0.00    +0.000 A 
ATOM     19  C   UNL     1       1.489   9.318  18.544  0.00  0.00    +0.000 A 
ATOM     20  C   UNL     1       2.006   8.012  18.514  0.00  0.00    +0.000 A 
BRANCH  18  21
ATOM     21  N   UNL     1       0.454  11.205  19.793  0.00  0.00    +0.000 N 
ATOM     22  O   UNL     1      -0.539  11.467  19.096  0.00  0.00    +0.000 OA
ATOM     23  O   UNL     1       1.026  12.019  20.535  0.00  0.00    +0.000 OA
ENDBRANCH  18  21
ENDBRANCH  13  15
ENDBRANCH   8  11
ENDBRANCH   3   5
BRANCH   1  24
ATOM     24  C   UNL     1       6.043   5.249  15.776  0.00  0.00    +0.000 C 
BRANCH  24  25
ATOM     25  C   UNL     1       7.287   5.795  16.470  0.00  0.00    +0.000 C 
BRANCH  25  26
ATOM     26  C   UNL     1       6.958   6.672  17.684  0.00  0.00    +0.000 C 
BRANCH  26  27
ATOM     27  C   UNL     1       7.420   8.120  17.502  0.00  0.00    +0.000 C 
BRANCH  27  28
ATOM     28  C   UNL     1       8.545   8.498  18.468  0.00  0.00    +0.000 C 
BRANCH  28  31
ATOM     29  N   UNL     1       9.468  10.389  20.554  0.00  0.00    +0.000 NA
ATOM     30  C   UNL     1       9.314  10.735  19.313  0.00  0.00    +0.000 C 
ATOM     31  N   UNL     1       8.860   9.897  18.349  0.00  0.00    +0.000 N 
ATOM     32  N   UNL     1       9.636  12.015  19.017  0.00  0.00    +0.000 N 
ATOM     33  H   UNL     1       9.191   9.417  20.680  0.00  0.00    +0.000 HD
ATOM     34  H   UNL     1       8.780  10.275  17.402  0.00  0.00    +0.000 HD
ATOM     35  H   UNL     1       9.960  12.541  19.811  0.00  0.00    +0.000 HD
BRANCH  32  36
ATOM     36  N   UNL     1       9.547  12.614  17.829  0.00  0.00    +0.000 N 
ATOM     37  O   UNL     1      10.578  12.872  17.196  0.00  0.00    +0.000 OA
ATOM     38  O   UNL     1       8.393  12.854  17.483  0.00  0.00    +0.000 OA
ENDBRANCH  32  36
ENDBRANCH  28  31
ENDBRANCH  27  28
ENDBRANCH  26  27
ENDBRANCH  25  26
ENDBRANCH  24  25
ENDBRANCH   1  24
TORSDOF 11
ENDMDL
MODEL 3
REMARK VINA RESULT:      -7.1      2.681      8.888
REMARK  Name = 
REMARK  11 active torsions:
REMARK  status: ('A' for Active; 'I' for Inactive)
REMARK    1  A    between atoms: N_3  and  C_4
REMARK    2  A    between atoms: C_4  and  C_5
REMARK    3  A    between atoms: C_5  and  C_6
REMARK    4  A    between atoms: C_6  and  C_7
REMARK    5  A    between atoms: C_7  and  C_8
REMARK    6  A    between atoms: C_8  and  C_9
REMARK    7  A    between atoms: N_11  and  C_12
REMARK    8  A    between atoms: C_15  and  C_16
REMARK    9  A    between atoms: N_18  and  C_19
REMARK   10  A    between atoms: C_22  and  N_23
REMARK   11  A    between atoms: N_29  and  N_30
REMARK                            x       y       z     vdW  Elec       q    Type
REMARK                         _______ _______ _______ _____ _____    ______ ____
ROOT
ATOM      1  C   UNL     1       7.492   6.598  17.854  0.00  0.00    +0.000 C 
ATOM      2  O   UNL     1       7.399   6.358  16.655  0.00  0.00    +0.000 OA
ATOM      3  N   UNL     1       6.701   6.000  18.810  0.00  0.00    +0.000 N 
ATOM      4  H   UNL     1       6.685   6.405  19.738  0.00  0.00    +0.000 HD
ENDROOT
BRANCH   3   5
ATOM      5  C   UNL     1       5.640   5.082  18.448  0.00  0.00    +0.000 C 
ATOM      6  C   UNL     1       4.688   5.640  17.397  0.00  0.00    +0.000 C 
ATOM      7  N   UNL     1       3.528   4.752  17.484  0.00  0.00    +0.000 NA
ATOM      8  C   UNL     1       3.330   4.515  18.939  0.00  0.00    +0.000 C 
ATOM      9  C   UNL     1       4.693   4.746  19.600  0.00  0.00    +0.000 C 
ATOM     10  H   UNL     1       3.740   3.869  17.024  0.00  0.00    +0.000 HD
BRANCH   8  11
ATOM     11  C   UNL     1       2.237   5.465  19.495  0.00  0.00    +0.000 C 
ATOM     12  O   UNL     1       1.200   5.039  19.999  0.00  0.00    +0.000 OA
ATOM     13  N   UNL     1       2.542   6.817  19.356  0.00  0.00    +0.000 N 
ATOM     14  H   UNL     1       3.309   7.067  18.742  0.00  0.00    +0.000 HD
BRANCH  13  15
ATOM     15  C   UNL     1       1.774   7.883  19.883  0.00  0.00    +0.000 A 
ATOM     16  C   UNL     1       1.323   7.906  21.209  0.00  0.00    +0.000 A 
ATOM     17  C   UNL     1       0.555   8.966  21.695  0.00  0.00    +0.000 A 
ATOM     18  C   UNL     1       0.235  10.028  20.849  0.00  0.00    +0.000 A 
ATOM     19  C   UNL     1       0.691  10.035  19.524  0.00  0.00    +0.000 A 
ATOM     20  C   UNL     1       1.469   8.968  19.049  0.00  0.00    +0.000 A 
BRANCH  18  21
ATOM     21  N   UNL     1      -0.572  11.141  21.362  0.00  0.00    +0.000 N 
ATOM     22  O   UNL     1      -1.476  11.586  20.639  0.00  0.00    +0.000 OA
ATOM     23  O   UNL     1      -0.304  11.568  22.496  0.00  0.00    +0.000 OA
ENDBRANCH  18  21
ENDBRANCH  13  15
ENDBRANCH   8  11
ENDBRANCH   3   5
BRANCH   1  24
ATOM     24  C   UNL     1       8.515   7.572  18.407  0.00  0.00    +0.000 C 
BRANCH  24  25
ATOM     25  C   UNL     1       8.194   9.020  18.049  0.00  0.00    +0.000 C 
BRANCH  25  26
ATOM     26  C   UNL     1       9.063  10.031  18.807  0.00  0.00    +0.000 C 
BRANCH  26  27
ATOM     27  C   UNL     1       9.273  11.327  18.020  0.00  0.00    +0.000 C 
BRANCH  27  28
ATOM     28  C   UNL     1      10.715  11.834  18.108  0.00  0.00    +0.000 C 
BRANCH  28  31
ATOM     29  N   UNL     1      12.028  13.187  15.824  0.00  0.00    +0.000 NA
ATOM     30  C   UNL     1      11.353  13.831  16.726  0.00  0.00    +0.000 C 
ATOM     31  N   UNL     1      10.773  13.238  17.797  0.00  0.00    +0.000 N 
ATOM     32  N   UNL     1      11.253  15.167  16.540  0.00  0.00    +0.000 N 
ATOM     33  H   UNL     1      12.057  12.196  16.054  0.00  0.00    +0.000 HD
ATOM     34  H   UNL     1      10.261  13.842  18.445  0.00  0.00    +0.000 HD
ATOM     35  H   UNL     1      11.723  15.494  15.712  0.00  0.00    +0.000 HD
BRANCH  32  36
ATOM     36  N   UNL     1      10.635  16.046  17.330  0.00  0.00    +0.000 N 
ATOM     37  O   UNL     1      11.283  16.966  17.844  0.00  0.00    +0.000 OA
ATOM     38  O   UNL     1       9.434  15.829  17.464  0.00  0.00    +0.000 OA
ENDBRANCH  32  36
ENDBRANCH  28  31
ENDBRANCH  27  28
ENDBRANCH  26  27
ENDBRANCH  25  26
ENDBRANCH  24  25
ENDBRANCH   1  24
TORSDOF 11
ENDMDL
MODEL 4
REMARK VINA RESULT:      -6.9      4.880      8.313
REMARK  Name = 
REMARK  11 active torsions:
REMARK  status: ('A' for Active; 'I' for Inactive)
REMARK    1  A    between atoms: N_3  and  C_4
REMARK    2  A    between atoms: C_4  and  C_5
REMARK    3  A    between atoms: C_5  and  C_6
REMARK    4  A    between atoms: C_6  and  C_7
REMARK    5  A    between atoms: C_7  and  C_8
REMARK    6  A    between atoms: C_8  and  C_9
REMARK    7  A    between atoms: N_11  and  C_12
REMARK    8  A    between atoms: C_15  and  C_16
REMARK    9  A    between atoms: N_18  and  C_19
REMARK   10  A    between atoms: C_22  and  N_23
REMARK   11  A    between atoms: N_29  and  N_30
REMARK                            x       y       z     vdW  Elec       q    Type
REMARK                         _______ _______ _______ _____ _____    ______ ____
ROOT
ATOM      1  C   UNL     1       6.499   4.410  18.199  0.00  0.00    +0.000 C 
ATOM      2  O   UNL     1       6.915   4.794  19.287  0.00  0.00    +0.000 OA
ATOM      3  N   UNL     1       5.321   3.713  18.042  0.00  0.00    +0.000 N 
ATOM      4  H   UNL     1       5.157   3.245  17.158  0.00  0.00    +0.000 HD
ENDROOT
BRANCH   3   5
ATOM      5  C   UNL     1       4.517   3.319  19.181  0.00  0.00    +0.000 C 
ATOM      6  C   UNL     1       3.114   2.859  18.801  0.00  0.00    +0.000 C 
ATOM      7  N   UNL     1       2.389   2.899  20.072  0.00  0.00    +0.000 NA
ATOM      8  C   UNL     1       2.849   4.144  20.742  0.00  0.00    +0.000 C 
ATOM      9  C   UNL     1       4.232   4.457  20.161  0.00  0.00    +0.000 C 
ATOM     10  H   UNL     1       2.649   2.095  20.639  0.00  0.00    +0.000 HD
BRANCH   8  11
ATOM     11  C   UNL     1       1.836   5.293  20.498  0.00  0.00    +0.000 C 
ATOM     12  O   UNL     1       0.626   5.089  20.425  0.00  0.00    +0.000 OA
ATOM     13  N   UNL     1       2.427   6.547  20.362  0.00  0.00    +0.000 N 
ATOM     14  H   UNL     1       3.431   6.583  20.223  0.00  0.00    +0.000 HD
BRANCH  13  15
ATOM     15  C   UNL     1       1.724   7.771  20.250  0.00  0.00    +0.000 A 
ATOM     16  C   UNL     1       1.637   8.486  19.049  0.00  0.00    +0.000 A 
ATOM     17  C   UNL     1       0.947   9.697  18.975  0.00  0.00    +0.000 A 
ATOM     18  C   UNL     1       0.326  10.206  20.115  0.00  0.00    +0.000 A 
ATOM     19  C   UNL     1       0.384   9.499  21.324  0.00  0.00    +0.000 A 
ATOM     20  C   UNL     1       1.074   8.278  21.384  0.00  0.00    +0.000 A 
BRANCH  18  21
ATOM     21  N   UNL     1      -0.398  11.480  20.036  0.00  0.00    +0.000 N 
ATOM     22  O   UNL     1      -0.767  12.007  21.096  0.00  0.00    +0.000 OA
ATOM     23  O   UNL     1      -0.594  11.957  18.907  0.00  0.00    +0.000 OA
ENDBRANCH  18  21
ENDBRANCH  13  15
ENDBRANCH   8  11
ENDBRANCH   3   5
BRANCH   1  24
ATOM     24  C   UNL     1       7.239   4.690  16.904  0.00  0.00    +0.000 C 
BRANCH  24  25
ATOM     25  C   UNL     1       6.743   5.956  16.213  0.00  0.00    +0.000 C 
BRANCH  25  26
ATOM     26  C   UNL     1       5.597   5.691  15.229  0.00  0.00    +0.000 C 
BRANCH  26  27
ATOM     27  C   UNL     1       5.707   4.318  14.559  0.00  0.00    +0.000 C 
BRANCH  27  28
ATOM     28  C   UNL     1       6.485   4.374  13.243  0.00  0.00    +0.000 C 
BRANCH  28  31
ATOM     29  N   UNL     1       4.208   3.366  11.638  0.00  0.00    +0.000 NA
ATOM     30  C   UNL     1       5.316   2.705  11.775  0.00  0.00    +0.000 C 
ATOM     31  N   UNL     1       6.357   3.129  12.531  0.00  0.00    +0.000 N 
ATOM     32  N   UNL     1       5.385   1.532  11.105  0.00  0.00    +0.000 N 
ATOM     33  H   UNL     1       4.247   4.225  12.185  0.00  0.00    +0.000 HD
ATOM     34  H   UNL     1       7.185   2.530  12.565  0.00  0.00    +0.000 HD
ATOM     35  H   UNL     1       4.554   1.321  10.578  0.00  0.00    +0.000 HD
BRANCH  32  36
ATOM     36  N   UNL     1       6.399   0.666  11.099  0.00  0.00    +0.000 N 
ATOM     37  O   UNL     1       7.562   1.086  11.136  0.00  0.00    +0.000 OA
ATOM     38  O   UNL     1       6.044  -0.509  11.055  0.00  0.00    +0.000 OA
ENDBRANCH  32  36
ENDBRANCH  28  31
ENDBRANCH  27  28
ENDBRANCH  26  27
ENDBRANCH  25  26
ENDBRANCH  24  25
ENDBRANCH   1  24
TORSDOF 11
ENDMDL
MODEL 5
REMARK VINA RESULT:      -6.8      4.881      9.483
REMARK  Name = 
REMARK  11 active torsions:
REMARK  status: ('A' for Active; 'I' for Inactive)
REMARK    1  A    between atoms: N_3  and  C_4
REMARK    2  A    between atoms: C_4  and  C_5
REMARK    3  A    between atoms: C_5  and  C_6
REMARK    4  A    between atoms: C_6  and  C_7
REMARK    5  A    between atoms: C_7  and  C_8
REMARK    6  A    between atoms: C_8  and  C_9
REMARK    7  A    between atoms: N_11  and  C_12
REMARK    8  A    between atoms: C_15  and  C_16
REMARK    9  A    between atoms: N_18  and  C_19
REMARK   10  A    between atoms: C_22  and  N_23
REMARK   11  A    between atoms: N_29  and  N_30
REMARK                            x       y       z     vdW  Elec       q    Type
REMARK                         _______ _______ _______ _____ _____    ______ ____
ROOT
ATOM      1  C   UNL     1       3.445   6.098  18.284  0.00  0.00    +0.000 C 
ATOM      2  O   UNL     1       4.516   6.678  18.137  0.00  0.00    +0.000 OA
ATOM      3  N   UNL     1       2.277   6.740  18.631  0.00  0.00    +0.000 N 
ATOM      4  H   UNL     1       1.496   6.176  18.945  0.00  0.00    +0.000 HD
ENDROOT
BRANCH   3   5
ATOM      5  C   UNL     1       2.251   8.160  18.920  0.00  0.00    +0.000 C 
ATOM      6  C   UNL     1       1.345   8.523  20.091  0.00  0.00    +0.000 C 
ATOM      7  N   UNL     1       1.167   9.969  19.946  0.00  0.00    +0.000 NA
ATOM      8  C   UNL     1       0.997  10.194  18.486  0.00  0.00    +0.000 C 
ATOM      9  C   UNL     1       1.678   9.012  17.788  0.00  0.00    +0.000 C 
ATOM     10  H   UNL     1       2.006  10.450  20.266  0.00  0.00    +0.000 HD
BRANCH   8  11
ATOM     11  C   UNL     1      -0.509  10.299  18.129  0.00  0.00    +0.000 C 
ATOM     12  O   UNL     1      -1.059   9.490  17.386  0.00  0.00    +0.000 OA
ATOM     13  N   UNL     1      -1.152  11.388  18.714  0.00  0.00    +0.000 N 
ATOM     14  H   UNL     1      -0.574  12.110  19.128  0.00  0.00    +0.000 HD
BRANCH  13  15
ATOM     15  C   UNL     1      -2.542  11.645  18.645  0.00  0.00    +0.000 A 
ATOM     16  C   UNL     1      -3.315  11.329  17.520  0.00  0.00    +0.000 A 
ATOM     17  C   UNL     1      -4.682  11.608  17.478  0.00  0.00    +0.000 A 
ATOM     18  C   UNL     1      -5.296  12.206  18.578  0.00  0.00    +0.000 A 
ATOM     19  C   UNL     1      -4.547  12.515  19.722  0.00  0.00    +0.000 A 
ATOM     20  C   UNL     1      -3.174  12.222  19.755  0.00  0.00    +0.000 A 
BRANCH  18  21
ATOM     21  N   UNL     1      -6.733  12.499  18.532  0.00  0.00    +0.000 N 
ATOM     22  O   UNL     1      -7.273  12.596  17.420  0.00  0.00    +0.000 OA
ATOM     23  O   UNL     1      -7.326  12.629  19.615  0.00  0.00    +0.000 OA
ENDBRANCH  18  21
ENDBRANCH  13  15
ENDBRANCH   8  11
ENDBRANCH   3   5
BRANCH   1  24
ATOM     24  C   UNL     1       3.298   4.603  18.071  0.00  0.00    +0.000 C 
BRANCH  24  25
ATOM     25  C   UNL     1       3.620   4.184  16.639  0.00  0.00    +0.000 C 
BRANCH  25  26
ATOM     26  C   UNL     1       5.061   3.689  16.470  0.00  0.00    +0.000 C 
BRANCH  26  27
ATOM     27  C   UNL     1       5.699   4.179  15.168  0.00  0.00    +0.000 C 
BRANCH  27  28
ATOM     28  C   UNL     1       6.942   5.037  15.415  0.00  0.00    +0.000 C 
BRANCH  28  31
ATOM     29  N   UNL     1       7.594   7.518  16.898  0.00  0.00    +0.000 NA
ATOM     30  C   UNL     1       7.415   6.376  17.487  0.00  0.00    +0.000 C 
ATOM     31  N   UNL     1       7.150   5.222  16.828  0.00  0.00    +0.000 N 
ATOM     32  N   UNL     1       7.510   6.392  18.836  0.00  0.00    +0.000 N 
ATOM     33  H   UNL     1       7.515   7.404  15.889  0.00  0.00    +0.000 HD
ATOM     34  H   UNL     1       7.024   4.379  17.393  0.00  0.00    +0.000 HD
ATOM     35  H   UNL     1       7.710   7.302  19.214  0.00  0.00    +0.000 HD
BRANCH  32  36
ATOM     36  N   UNL     1       7.389   5.353  19.665  0.00  0.00    +0.000 N 
ATOM     37  O   UNL     1       8.113   5.282  20.665  0.00  0.00    +0.000 OA
ATOM     38  O   UNL     1       6.529   4.547  19.321  0.00  0.00    +0.000 OA
ENDBRANCH  32  36
ENDBRANCH  28  31
ENDBRANCH  27  28
ENDBRANCH  26  27
ENDBRANCH  25  26
ENDBRANCH  24  25
ENDBRANCH   1  24
TORSDOF 11
ENDMDL
MODEL 6
REMARK VINA RESULT:      -6.7      4.902      8.688
REMARK  Name = 
REMARK  11 active torsions:
REMARK  status: ('A' for Active; 'I' for Inactive)
REMARK    1  A    between atoms: N_3  and  C_4
REMARK    2  A    between atoms: C_4  and  C_5
REMARK    3  A    between atoms: C_5  and  C_6
REMARK    4  A    between atoms: C_6  and  C_7
REMARK    5  A    between atoms: C_7  and  C_8
REMARK    6  A    between atoms: C_8  and  C_9
REMARK    7  A    between atoms: N_11  and  C_12
REMARK    8  A    between atoms: C_15  and  C_16
REMARK    9  A    between atoms: N_18  and  C_19
REMARK   10  A    between atoms: C_22  and  N_23
REMARK   11  A    between atoms: N_29  and  N_30
REMARK                            x       y       z     vdW  Elec       q    Type
REMARK                         _______ _______ _______ _____ _____    ______ ____
ROOT
ATOM      1  C   UNL     1       1.806   4.454  20.986  0.00  0.00    +0.000 C 
ATOM      2  O   UNL     1       2.589   4.581  21.921  0.00  0.00    +0.000 OA
ATOM      3  N   UNL     1       1.446   5.490  20.153  0.00  0.00    +0.000 N 
ATOM      4  H   UNL     1       0.640   5.362  19.551  0.00  0.00    +0.000 HD
ENDROOT
BRANCH   3   5
ATOM      5  C   UNL     1       1.924   6.840  20.374  0.00  0.00    +0.000 C 
ATOM      6  C   UNL     1       0.971   7.691  21.205  0.00  0.00    +0.000 C 
ATOM      7  N   UNL     1       1.440   9.057  20.967  0.00  0.00    +0.000 NA
ATOM      8  C   UNL     1       1.765   9.107  19.516  0.00  0.00    +0.000 C 
ATOM      9  C   UNL     1       2.065   7.665  19.094  0.00  0.00    +0.000 C 
ATOM     10  H   UNL     1       2.286   9.227  21.508  0.00  0.00    +0.000 HD
BRANCH   8  11
ATOM     11  C   UNL     1       0.583   9.719  18.720  0.00  0.00    +0.000 C 
ATOM     12  O   UNL     1       0.633   9.880  17.502  0.00  0.00    +0.000 OA
ATOM     13  N   UNL     1      -0.508  10.070  19.511  0.00  0.00    +0.000 N 
ATOM     14  H   UNL     1      -0.372  10.099  20.516  0.00  0.00    +0.000 HD
BRANCH  13  15
ATOM     15  C   UNL     1      -1.752  10.537  19.022  0.00  0.00    +0.000 A 
ATOM     16  C   UNL     1      -2.371  11.694  19.512  0.00  0.00    +0.000 A 
ATOM     17  C   UNL     1      -3.605  12.120  19.018  0.00  0.00    +0.000 A 
ATOM     18  C   UNL     1      -4.234  11.386  18.012  0.00  0.00    +0.000 A 
ATOM     19  C   UNL     1      -3.625  10.235  17.494  0.00  0.00    +0.000 A 
ATOM     20  C   UNL     1      -2.380   9.821  17.993  0.00  0.00    +0.000 A 
BRANCH  18  21
ATOM     21  N   UNL     1      -5.531  11.835  17.495  0.00  0.00    +0.000 N 
ATOM     22  O   UNL     1      -5.540  12.761  16.669  0.00  0.00    +0.000 OA
ATOM     23  O   UNL     1      -6.547  11.256  17.913  0.00  0.00    +0.000 OA
ENDBRANCH  18  21
ENDBRANCH  13  15
ENDBRANCH   8  11
ENDBRANCH   3   5
BRANCH   1  24
ATOM     24  C   UNL     1       1.169   3.121  20.639  0.00  0.00    +0.000 C 
BRANCH  24  25
ATOM     25  C   UNL     1       0.792   3.023  19.164  0.00  0.00    +0.000 C 
BRANCH  25  26
ATOM     26  C   UNL     1       1.706   2.078  18.374  0.00  0.00    +0.000 C 
BRANCH  26  27
ATOM     27  C   UNL     1       2.966   2.778  17.859  0.00  0.00    +0.000 C 
BRANCH  27  28
ATOM     28  C   UNL     1       4.169   2.561  18.779  0.00  0.00    +0.000 C 
BRANCH  28  31
ATOM     29  N   UNL     1       4.864   5.313  19.628  0.00  0.00    +0.000 NA
ATOM     30  C   UNL     1       5.590   4.633  18.794  0.00  0.00    +0.000 C 
ATOM     31  N   UNL     1       5.273   3.387  18.365  0.00  0.00    +0.000 N 
ATOM     32  N   UNL     1       6.713   5.247  18.358  0.00  0.00    +0.000 N 
ATOM     33  H   UNL     1       4.040   4.776  19.889  0.00  0.00    +0.000 HD
ATOM     34  H   UNL     1       5.919   2.941  17.709  0.00  0.00    +0.000 HD
ATOM     35  H   UNL     1       6.842   6.167  18.743  0.00  0.00    +0.000 HD
BRANCH  32  36
ATOM     36  N   UNL     1       7.606   4.771  17.489  0.00  0.00    +0.000 N 
ATOM     37  O   UNL     1       8.523   4.045  17.892  0.00  0.00    +0.000 OA
ATOM     38  O   UNL     1       7.405   5.126  16.331  0.00  0.00    +0.000 OA
ENDBRANCH  32  36
ENDBRANCH  28  31
ENDBRANCH  27  28
ENDBRANCH  26  27
ENDBRANCH  25  26
ENDBRANCH  24  25
ENDBRANCH   1  24
TORSDOF 11
ENDMDL
MODEL 7
REMARK VINA RESULT:      -6.7      5.219      7.232
REMARK  Name = 
REMARK  11 active torsions:
REMARK  status: ('A' for Active; 'I' for Inactive)
REMARK    1  A    between atoms: N_3  and  C_4
REMARK    2  A    between atoms: C_4  and  C_5
REMARK    3  A    between atoms: C_5  and  C_6
REMARK    4  A    between atoms: C_6  and  C_7
REMARK    5  A    between atoms: C_7  and  C_8
REMARK    6  A    between atoms: C_8  and  C_9
REMARK    7  A    between atoms: N_11  and  C_12
REMARK    8  A    between atoms: C_15  and  C_16
REMARK    9  A    between atoms: N_18  and  C_19
REMARK   10  A    between atoms: C_22  and  N_23
REMARK   11  A    between atoms: N_29  and  N_30
REMARK                            x       y       z     vdW  Elec       q    Type
REMARK                         _______ _______ _______ _____ _____    ______ ____
ROOT
ATOM      1  C   UNL     1       2.119   6.694  19.687  0.00  0.00    +0.000 C 
ATOM      2  O   UNL     1       2.796   6.219  18.782  0.00  0.00    +0.000 OA
ATOM      3  N   UNL     1       1.516   5.931  20.664  0.00  0.00    +0.000 N 
ATOM      4  H   UNL     1       0.805   6.366  21.239  0.00  0.00    +0.000 HD
ENDROOT
BRANCH   3   5
ATOM      5  C   UNL     1       1.586   4.484  20.643  0.00  0.00    +0.000 C 
ATOM      6  C   UNL     1       2.926   3.935  21.118  0.00  0.00    +0.000 C 
ATOM      7  N   UNL     1       2.910   2.549  20.649  0.00  0.00    +0.000 NA
ATOM      8  C   UNL     1       2.317   2.607  19.286  0.00  0.00    +0.000 C 
ATOM      9  C   UNL     1       1.461   3.877  19.245  0.00  0.00    +0.000 C 
ATOM     10  H   UNL     1       2.310   1.991  21.254  0.00  0.00    +0.000 HD
BRANCH   8  11
ATOM     11  C   UNL     1       3.436   2.617  18.212  0.00  0.00    +0.000 C 
ATOM     12  O   UNL     1       3.963   1.580  17.813  0.00  0.00    +0.000 OA
ATOM     13  N   UNL     1       3.781   3.891  17.769  0.00  0.00    +0.000 N 
ATOM     14  H   UNL     1       3.448   4.684  18.307  0.00  0.00    +0.000 HD
BRANCH  13  15
ATOM     15  C   UNL     1       4.684   4.170  16.715  0.00  0.00    +0.000 A 
ATOM     16  C   UNL     1       4.336   4.030  15.365  0.00  0.00    +0.000 A 
ATOM     17  C   UNL     1       5.254   4.300  14.348  0.00  0.00    +0.000 A 
ATOM     18  C   UNL     1       6.541   4.724  14.679  0.00  0.00    +0.000 A 
ATOM     19  C   UNL     1       6.906   4.888  16.021  0.00  0.00    +0.000 A 
ATOM     20  C   UNL     1       5.971   4.622  17.035  0.00  0.00    +0.000 A 
BRANCH  18  21
ATOM     21  N   UNL     1       7.505   5.006  13.609  0.00  0.00    +0.000 N 
ATOM     22  O   UNL     1       8.446   5.774  13.860  0.00  0.00    +0.000 OA
ATOM     23  O   UNL     1       7.322   4.453  12.512  0.00  0.00    +0.000 OA
ENDBRANCH  18  21
ENDBRANCH  13  15
ENDBRANCH   8  11
ENDBRANCH   3   5
BRANCH   1  24
ATOM     24  C   UNL     1       1.898   8.188  19.835  0.00  0.00    +0.000 C 
BRANCH  24  25
ATOM     25  C   UNL     1       1.625   8.871  18.498  0.00  0.00    +0.000 C 
BRANCH  25  26
ATOM     26  C   UNL     1       1.161  10.324  18.652  0.00  0.00    +0.000 C 
BRANCH  26  27
ATOM     27  C   UNL     1      -0.313  10.510  18.282  0.00  0.00    +0.000 C 
BRANCH  27  28
ATOM     28  C   UNL     1      -1.072  11.341  19.318  0.00  0.00    +0.000 C 
BRANCH  28  31
ATOM     29  N   UNL     1      -1.764  12.549  21.934  0.00  0.00    +0.000 NA
ATOM     30  C   UNL     1      -1.181  11.394  21.827  0.00  0.00    +0.000 C 
ATOM     31  N   UNL     1      -0.825  10.838  20.644  0.00  0.00    +0.000 N 
ATOM     32  N   UNL     1      -0.938  10.751  22.992  0.00  0.00    +0.000 N 
ATOM     33  H   UNL     1      -1.895  12.958  21.010  0.00  0.00    +0.000 HD
ATOM     34  H   UNL     1      -0.374   9.921  20.677  0.00  0.00    +0.000 HD
ATOM     35  H   UNL     1      -1.246  11.260  23.803  0.00  0.00    +0.000 HD
BRANCH  32  36
ATOM     36  N   UNL     1      -0.337   9.571  23.150  0.00  0.00    +0.000 N 
ATOM     37  O   UNL     1      -0.764   8.582  22.542  0.00  0.00    +0.000 OA
ATOM     38  O   UNL     1       0.618   9.603  23.921  0.00  0.00    +0.000 OA
ENDBRANCH  32  36
ENDBRANCH  28  31
ENDBRANCH  27  28
ENDBRANCH  26  27
ENDBRANCH  25  26
ENDBRANCH  24  25
ENDBRANCH   1  24
TORSDOF 11
ENDMDL
MODEL 8
REMARK VINA RESULT:      -6.7      6.367     10.882
REMARK  Name = 
REMARK  11 active torsions:
REMARK  status: ('A' for Active; 'I' for Inactive)
REMARK    1  A    between atoms: N_3  and  C_4
REMARK    2  A    between atoms: C_4  and  C_5
REMARK    3  A    between atoms: C_5  and  C_6
REMARK    4  A    between atoms: C_6  and  C_7
REMARK    5  A    between atoms: C_7  and  C_8
REMARK    6  A    between atoms: C_8  and  C_9
REMARK    7  A    between atoms: N_11  and  C_12
REMARK    8  A    between atoms: C_15  and  C_16
REMARK    9  A    between atoms: N_18  and  C_19
REMARK   10  A    between atoms: C_22  and  N_23
REMARK   11  A    between atoms: N_29  and  N_30
REMARK                            x       y       z     vdW  Elec       q    Type
REMARK                         _______ _______ _______ _____ _____    ______ ____
ROOT
ATOM      1  C   UNL     1       1.618  10.434  18.555  0.00  0.00    +0.000 C 
ATOM      2  O   UNL     1       2.388  10.965  17.761  0.00  0.00    +0.000 OA
ATOM      3  N   UNL     1       0.742  11.142  19.349  0.00  0.00    +0.000 N 
ATOM      4  H   UNL     1       0.304  10.660  20.125  0.00  0.00    +0.000 HD
ENDROOT
BRANCH   3   5
ATOM      5  C   UNL     1       0.722  12.591  19.348  0.00  0.00    +0.000 C 
ATOM      6  C   UNL     1       0.990  13.202  20.718  0.00  0.00    +0.000 C 
ATOM      7  N   UNL     1       0.539  14.586  20.567  0.00  0.00    +0.000 NA
ATOM      8  C   UNL     1      -0.718  14.500  19.776  0.00  0.00    +0.000 C 
ATOM      9  C   UNL     1      -0.637  13.191  18.984  0.00  0.00    +0.000 C 
ATOM     10  H   UNL     1       1.232  15.115  20.041  0.00  0.00    +0.000 HD
BRANCH   8  11
ATOM     11  C   UNL     1      -1.950  14.542  20.718  0.00  0.00    +0.000 C 
ATOM     12  O   UNL     1      -2.370  15.595  21.193  0.00  0.00    +0.000 OA
ATOM     13  N   UNL     1      -2.508  13.291  20.973  0.00  0.00    +0.000 N 
ATOM     14  H   UNL     1      -1.968  12.472  20.715  0.00  0.00    +0.000 HD
BRANCH  13  15
ATOM     15  C   UNL     1      -3.701  13.065  21.700  0.00  0.00    +0.000 A 
ATOM     16  C   UNL     1      -3.737  13.023  23.100  0.00  0.00    +0.000 A 
ATOM     17  C   UNL     1      -4.928  12.784  23.787  0.00  0.00    +0.000 A 
ATOM     18  C   UNL     1      -6.109  12.589  23.071  0.00  0.00    +0.000 A 
ATOM     19  C   UNL     1      -6.101  12.645  21.671  0.00  0.00    +0.000 A 
ATOM     20  C   UNL     1      -4.898  12.895  20.991  0.00  0.00    +0.000 A 
BRANCH  18  21
ATOM     21  N   UNL     1      -7.360  12.338  23.795  0.00  0.00    +0.000 N 
ATOM     22  O   UNL     1      -7.875  13.282  24.413  0.00  0.00    +0.000 OA
ATOM     23  O   UNL     1      -7.832  11.191  23.742  0.00  0.00    +0.000 OA
ENDBRANCH  18  21
ENDBRANCH  13  15
ENDBRANCH   8  11
ENDBRANCH   3   5
BRANCH   1  24
ATOM     24  C   UNL     1       1.540   8.929  18.725  0.00  0.00    +0.000 C 
BRANCH  24  25
ATOM     25  C   UNL     1       2.527   8.190  17.827  0.00  0.00    +0.000 C 
BRANCH  25  26
ATOM     26  C   UNL     1       3.159   6.969  18.508  0.00  0.00    +0.000 C 
BRANCH  26  27
ATOM     27  C   UNL     1       2.678   5.648  17.902  0.00  0.00    +0.000 C 
BRANCH  27  28
ATOM     28  C   UNL     1       3.787   4.596  17.845  0.00  0.00    +0.000 C 
BRANCH  28  31
ATOM     29  N   UNL     1       6.136   3.772  16.238  0.00  0.00    +0.000 NA
ATOM     30  C   UNL     1       6.124   4.852  16.959  0.00  0.00    +0.000 C 
ATOM     31  N   UNL     1       5.075   5.230  17.728  0.00  0.00    +0.000 N 
ATOM     32  N   UNL     1       7.246   5.605  16.905  0.00  0.00    +0.000 N 
ATOM     33  H   UNL     1       5.258   3.269  16.352  0.00  0.00    +0.000 HD
ATOM     34  H   UNL     1       5.171   6.102  18.253  0.00  0.00    +0.000 HD
ATOM     35  H   UNL     1       7.956   5.225  16.303  0.00  0.00    +0.000 HD
BRANCH  32  36
ATOM     36  N   UNL     1       7.486   6.739  17.564  0.00  0.00    +0.000 N 
ATOM     37  O   UNL     1       7.993   6.694  18.692  0.00  0.00    +0.000 OA
ATOM     38  O   UNL     1       7.160   7.748  16.945  0.00  0.00    +0.000 OA
ENDBRANCH  32  36
ENDBRANCH  28  31
ENDBRANCH  27  28
ENDBRANCH  26  27
ENDBRANCH  25  26
ENDBRANCH  24  25
ENDBRANCH   1  24
TORSDOF 11
ENDMDL
MODEL 9
REMARK VINA RESULT:      -6.7      2.503      8.902
REMARK  Name = 
REMARK  11 active torsions:
REMARK  status: ('A' for Active; 'I' for Inactive)
REMARK    1  A    between atoms: N_3  and  C_4
REMARK    2  A    between atoms: C_4  and  C_5
REMARK    3  A    between atoms: C_5  and  C_6
REMARK    4  A    between atoms: C_6  and  C_7
REMARK    5  A    between atoms: C_7  and  C_8
REMARK    6  A    between atoms: C_8  and  C_9
REMARK    7  A    between atoms: N_11  and  C_12
REMARK    8  A    between atoms: C_15  and  C_16
REMARK    9  A    between atoms: N_18  and  C_19
REMARK   10  A    between atoms: C_22  and  N_23
REMARK   11  A    between atoms: N_29  and  N_30
REMARK                            x       y       z     vdW  Elec       q    Type
REMARK                         _______ _______ _______ _____ _____    ______ ____
ROOT
ATOM      1  C   UNL     1       8.053   7.731  17.900  0.00  0.00    +0.000 C 
ATOM      2  O   UNL     1       8.239   7.062  18.911  0.00  0.00    +0.000 OA
ATOM      3  N   UNL     1       7.156   7.381  16.915  0.00  0.00    +0.000 N 
ATOM      4  H   UNL     1       7.217   7.857  16.022  0.00  0.00    +0.000 HD
ENDROOT
BRANCH   3   5
ATOM      5  C   UNL     1       6.411   6.140  16.976  0.00  0.00    +0.000 C 
ATOM      6  C   UNL     1       5.368   6.005  15.872  0.00  0.00    +0.000 C 
ATOM      7  N   UNL     1       4.507   4.922  16.349  0.00  0.00    +0.000 NA
ATOM      8  C   UNL     1       4.345   5.170  17.807  0.00  0.00    +0.000 C 
ATOM      9  C   UNL     1       5.567   5.986  18.242  0.00  0.00    +0.000 C 
ATOM     10  H   UNL     1       4.973   4.028  16.209  0.00  0.00    +0.000 HD
BRANCH   8  11
ATOM     11  C   UNL     1       3.013   5.915  18.083  0.00  0.00    +0.000 C 
ATOM     12  O   UNL     1       1.927   5.340  18.049  0.00  0.00    +0.000 OA
ATOM     13  N   UNL     1       3.171   7.273  18.352  0.00  0.00    +0.000 N 
ATOM     14  H   UNL     1       4.071   7.693  18.147  0.00  0.00    +0.000 HD
BRANCH  13  15
ATOM     15  C   UNL     1       2.134   8.150  18.749  0.00  0.00    +0.000 A 
ATOM     16  C   UNL     1       1.474   8.996  17.849  0.00  0.00    +0.000 A 
ATOM     17  C   UNL     1       0.463   9.861  18.275  0.00  0.00    +0.000 A 
ATOM     18  C   UNL     1       0.097   9.880  19.620  0.00  0.00    +0.000 A 
ATOM     19  C   UNL     1       0.731   9.030  20.536  0.00  0.00    +0.000 A 
ATOM     20  C   UNL     1       1.740   8.159  20.094  0.00  0.00    +0.000 A 
BRANCH  18  21
ATOM     21  N   UNL     1      -0.965  10.790  20.066  0.00  0.00    +0.000 N 
ATOM     22  O   UNL     1      -0.968  11.144  21.255  0.00  0.00    +0.000 OA
ATOM     23  O   UNL     1      -1.798  11.155  19.221  0.00  0.00    +0.000 OA
ENDBRANCH  18  21
ENDBRANCH  13  15
ENDBRANCH   8  11
ENDBRANCH   3   5
BRANCH   1  24
ATOM     24  C   UNL     1       8.785   9.035  17.646  0.00  0.00    +0.000 C 
BRANCH  24  25
ATOM     25  C   UNL     1       8.549  10.060  18.752  0.00  0.00    +0.000 C 
BRANCH  25  26
ATOM     26  C   UNL     1       9.843  10.724  19.239  0.00  0.00    +0.000 C 
BRANCH  26  27
ATOM     27  C   UNL     1      10.650  11.341  18.093  0.00  0.00    +0.000 C 
BRANCH  27  28
ATOM     28  C   UNL     1      11.463  12.556  18.543  0.00  0.00    +0.000 C 
BRANCH  28  31
ATOM     29  N   UNL     1      11.375  14.245  16.111  0.00  0.00    +0.000 NA
ATOM     30  C   UNL     1      10.675  14.507  17.172  0.00  0.00    +0.000 C 
ATOM     31  N   UNL     1      10.726  13.770  18.307  0.00  0.00    +0.000 N 
ATOM     32  N   UNL     1       9.868  15.589  17.089  0.00  0.00    +0.000 N 
ATOM     33  H   UNL     1      11.956  13.424  16.272  0.00  0.00    +0.000 HD
ATOM     34  H   UNL     1      10.129  14.065  19.084  0.00  0.00    +0.000 HD
ATOM     35  H   UNL     1       9.915  16.057  16.200  0.00  0.00    +0.000 HD
BRANCH  32  36
ATOM     36  N   UNL     1       9.072  16.075  18.042  0.00  0.00    +0.000 N 
ATOM     37  O   UNL     1       7.845  15.967  17.928  0.00  0.00    +0.000 OA
ATOM     38  O   UNL     1       9.680  16.603  18.970  0.00  0.00    +0.000 OA
ENDBRANCH  32  36
ENDBRANCH  28  31
ENDBRANCH  27  28
ENDBRANCH  26  27
ENDBRANCH  25  26
ENDBRANCH  24  25
ENDBRANCH   1  24
TORSDOF 11
ENDMDL
