MODEL 1
REMARK VINA RESULT:      -6.3      0.000      0.000
REMARK  Name = 
REMARK  8 active torsions:
REMARK  status: ('A' for Active; 'I' for Inactive)
REMARK    1  A    between atoms: C_1  and  N_2
REMARK    2  A    between atoms: N_2  and  C_3
REMARK    3  A    between atoms: N_2  and  C_4
REMARK    4  A    between atoms: C_4  and  C_5
REMARK    5  A    between atoms: C_5  and  C_6
REMARK    6  A    between atoms: C_6  and  S_7
REMARK    7  A    between atoms: S_7  and  C_8
REMARK    8  A    between atoms: C_18  and  C_19
REMARK                            x       y       z     vdW  Elec       q    Type
REMARK                         _______ _______ _______ _____ _____    ______ ____
ROOT
ATOM      1  C   UNL     1       2.658   7.641  18.649  0.00  0.00    +0.000 A 
ATOM      2  N   UNL     1       3.532   7.064  17.781  0.00  0.00    +0.000 NA
ATOM      3  C   UNL     1       3.902   5.769  17.937  0.00  0.00    +0.000 A 
ATOM      4  N   UNL     1       4.833   5.242  17.050  0.00  0.00    +0.000 N 
ATOM      5  C   UNL     1       5.595   6.135  16.174  0.00  0.00    +0.000 C 
ATOM      6  C   UNL     1       5.573   5.454  14.808  0.00  0.00    +0.000 C 
ATOM      7  C   UNL     1       5.496   3.981  15.147  0.00  0.00    +0.000 C 
ATOM      8  C   UNL     1       4.623   3.947  16.396  0.00  0.00    +0.000 C 
ATOM      9  C   UNL     1       3.401   5.021  19.026  0.00  0.00    +0.000 A 
ATOM     10  C   UNL     1       2.468   5.612  19.916  0.00  0.00    +0.000 A 
ATOM     11  C   UNL     1       2.101   6.957  19.729  0.00  0.00    +0.000 A 
ATOM     12  C   UNL     1       1.945   4.845  21.118  0.00  0.00    +0.000 C 
ATOM     13  C   UNL     1       2.151   3.337  21.028  0.00  0.00    +0.000 C 
ATOM     14  C   UNL     1       3.588   3.045  20.651  0.00  0.00    +0.000 C 
ATOM     15  C   UNL     1       3.872   3.604  19.267  0.00  0.00    +0.000 C 
ENDROOT
BRANCH  11  16
ATOM     16  C   UNL     1       1.200   7.608  20.645  0.00  0.00    +0.000 C 
ATOM     17  N   UNL     1       0.437   8.112  21.365  0.00  0.00    +0.000 NA
ENDBRANCH  11  16
BRANCH   1  18
ATOM     18  S   UNL     1       2.338   9.394  18.407  0.00  0.00    +0.000 S 
BRANCH  18  19
ATOM     19  C   UNL     1       0.643   9.358  17.738  0.00  0.00    +0.000 C 
BRANCH  19  20
ATOM     20  C   UNL     1      -0.185  10.438  18.437  0.00  0.00    +0.000 C 
BRANCH  20  21
ATOM     21  C   UNL     1      -1.698  10.205  18.305  0.00  0.00    +0.000 C 
BRANCH  21  23
ATOM     22  C   UNL     1      -2.636  10.936  16.177  0.00  0.00    +0.000 C 
ATOM     23  N   UNL     1      -2.422  11.267  17.587  0.00  0.00    +0.000 NA
ATOM     24  C   UNL     1      -3.714  11.516  18.234  0.00  0.00    +0.000 C 
ENDBRANCH  21  23
ENDBRANCH  20  21
ENDBRANCH  19  20
ENDBRANCH  18  19
ENDBRANCH   1  18
TORSDOF 6
ENDMDL
MODEL 2
REMARK VINA RESULT:      -6.2      1.292      1.616
REMARK  Name = 
REMARK  8 active torsions:
REMARK  status: ('A' for Active; 'I' for Inactive)
REMARK    1  A    between atoms: C_1  and  N_2
REMARK    2  A    between atoms: N_2  and  C_3
REMARK    3  A    between atoms: N_2  and  C_4
REMARK    4  A    between atoms: C_4  and  C_5
REMARK    5  A    between atoms: C_5  and  C_6
REMARK    6  A    between atoms: C_6  and  S_7
REMARK    7  A    between atoms: S_7  and  C_8
REMARK    8  A    between atoms: C_18  and  C_19
REMARK                            x       y       z     vdW  Elec       q    Type
REMARK                         _______ _______ _______ _____ _____    ______ ____
ROOT
ATOM      1  C   UNL     1       2.723   7.561  18.650  0.00  0.00    +0.000 A 
ATOM      2  N   UNL     1       3.598   6.987  17.782  0.00  0.00    +0.000 NA
ATOM      3  C   UNL     1       3.967   5.691  17.932  0.00  0.00    +0.000 A 
ATOM      4  N   UNL     1       4.899   5.167  17.046  0.00  0.00    +0.000 N 
ATOM      5  C   UNL     1       5.664   6.063  16.174  0.00  0.00    +0.000 C 
ATOM      6  C   UNL     1       5.644   5.388  14.805  0.00  0.00    +0.000 C 
ATOM      7  C   UNL     1       5.564   3.914  15.138  0.00  0.00    +0.000 C 
ATOM      8  C   UNL     1       4.689   3.875  16.385  0.00  0.00    +0.000 C 
ATOM      9  C   UNL     1       3.463   4.939  19.017  0.00  0.00    +0.000 A 
ATOM     10  C   UNL     1       2.528   5.527  19.908  0.00  0.00    +0.000 A 
ATOM     11  C   UNL     1       2.163   6.874  19.726  0.00  0.00    +0.000 A 
ATOM     12  C   UNL     1       2.002   4.756  21.105  0.00  0.00    +0.000 C 
ATOM     13  C   UNL     1       2.207   3.248  21.010  0.00  0.00    +0.000 C 
ATOM     14  C   UNL     1       3.644   2.956  20.635  0.00  0.00    +0.000 C 
ATOM     15  C   UNL     1       3.932   3.520  19.253  0.00  0.00    +0.000 C 
ENDROOT
BRANCH  11  16
ATOM     16  C   UNL     1       1.262   7.522  20.643  0.00  0.00    +0.000 C 
ATOM     17  N   UNL     1       0.537   8.085  21.358  0.00  0.00    +0.000 NA
ENDBRANCH  11  16
BRANCH   1  18
ATOM     18  S   UNL     1       2.406   9.316  18.415  0.00  0.00    +0.000 S 
BRANCH  18  19
ATOM     19  C   UNL     1       0.715   9.284  17.736  0.00  0.00    +0.000 C 
BRANCH  19  20
ATOM     20  C   UNL     1      -0.136  10.310  18.488  0.00  0.00    +0.000 C 
BRANCH  20  21
ATOM     21  C   UNL     1       0.697  11.203  19.420  0.00  0.00    +0.000 C 
BRANCH  21  23
ATOM     22  C   UNL     1       1.800  13.100  18.357  0.00  0.00    +0.000 C 
ATOM     23  N   UNL     1       0.632  12.642  19.113  0.00  0.00    +0.000 NA
ATOM     24  C   UNL     1      -0.589  12.936  18.355  0.00  0.00    +0.000 C 
ENDBRANCH  21  23
ENDBRANCH  20  21
ENDBRANCH  19  20
ENDBRANCH  18  19
ENDBRANCH   1  18
TORSDOF 6
ENDMDL
MODEL 3
REMARK VINA RESULT:      -6.0      3.233      6.901
REMARK  Name = 
REMARK  8 active torsions:
REMARK  status: ('A' for Active; 'I' for Inactive)
REMARK    1  A    between atoms: C_1  and  N_2
REMARK    2  A    between atoms: N_2  and  C_3
REMARK    3  A    between atoms: N_2  and  C_4
REMARK    4  A    between atoms: C_4  and  C_5
REMARK    5  A    between atoms: C_5  and  C_6
REMARK    6  A    between atoms: C_6  and  S_7
REMARK    7  A    between atoms: S_7  and  C_8
REMARK    8  A    between atoms: C_18  and  C_19
REMARK                            x       y       z     vdW  Elec       q    Type
REMARK                         _______ _______ _______ _____ _____    ______ ____
ROOT
ATOM      1  C   UNL     1       4.689   6.181  17.267  0.00  0.00    +0.000 A 
ATOM      2  N   UNL     1       3.797   6.877  18.022  0.00  0.00    +0.000 NA
ATOM      3  C   UNL     1       2.774   6.239  18.641  0.00  0.00    +0.000 A 
ATOM      4  N   UNL     1       1.864   7.003  19.362  0.00  0.00    +0.000 N 
ATOM      5  C   UNL     1       1.852   8.460  19.211  0.00  0.00    +0.000 C 
ATOM      6  C   UNL     1       1.729   9.000  20.633  0.00  0.00    +0.000 C 
ATOM      7  C   UNL     1       0.952   7.921  21.356  0.00  0.00    +0.000 C 
ATOM      8  C   UNL     1       1.454   6.630  20.720  0.00  0.00    +0.000 C 
ATOM      9  C   UNL     1       2.613   4.844  18.477  0.00  0.00    +0.000 A 
ATOM     10  C   UNL     1       3.558   4.112  17.713  0.00  0.00    +0.000 A 
ATOM     11  C   UNL     1       4.611   4.801  17.083  0.00  0.00    +0.000 A 
ATOM     12  C   UNL     1       3.387   2.621  17.485  0.00  0.00    +0.000 C 
ATOM     13  C   UNL     1       2.426   1.951  18.461  0.00  0.00    +0.000 C 
ATOM     14  C   UNL     1       1.139   2.745  18.528  0.00  0.00    +0.000 C 
ATOM     15  C   UNL     1       1.427   4.130  19.085  0.00  0.00    +0.000 C 
ENDROOT
BRANCH  11  16
ATOM     16  C   UNL     1       5.556   4.101  16.253  0.00  0.00    +0.000 C 
ATOM     17  N   UNL     1       6.304   3.559  15.545  0.00  0.00    +0.000 NA
ENDBRANCH  11  16
BRANCH   1  18
ATOM     18  S   UNL     1       5.929   7.155  16.402  0.00  0.00    +0.000 S 
BRANCH  18  19
ATOM     19  C   UNL     1       7.269   7.205  17.637  0.00  0.00    +0.000 C 
BRANCH  19  20
ATOM     20  C   UNL     1       7.948   8.574  17.571  0.00  0.00    +0.000 C 
BRANCH  20  21
ATOM     21  C   UNL     1       8.710   8.922  18.859  0.00  0.00    +0.000 C 
BRANCH  21  23
ATOM     22  C   UNL     1       8.739  11.173  17.922  0.00  0.00    +0.000 C 
ATOM     23  N   UNL     1       9.384  10.231  18.839  0.00  0.00    +0.000 NA
ATOM     24  C   UNL     1       9.409  10.801  20.190  0.00  0.00    +0.000 C 
ENDBRANCH  21  23
ENDBRANCH  20  21
ENDBRANCH  19  20
ENDBRANCH  18  19
ENDBRANCH   1  18
TORSDOF 6
ENDMDL
MODEL 4
REMARK VINA RESULT:      -6.0      3.750      7.044
REMARK  Name = 
REMARK  8 active torsions:
REMARK  status: ('A' for Active; 'I' for Inactive)
REMARK    1  A    between atoms: C_1  and  N_2
REMARK    2  A    between atoms: N_2  and  C_3
REMARK    3  A    between atoms: N_2  and  C_4
REMARK    4  A    between atoms: C_4  and  C_5
REMARK    5  A    between atoms: C_5  and  C_6
REMARK    6  A    between atoms: C_6  and  S_7
REMARK    7  A    between atoms: S_7  and  C_8
REMARK    8  A    between atoms: C_18  and  C_19
REMARK                            x       y       z     vdW  Elec       q    Type
REMARK                         _______ _______ _______ _____ _____    ______ ____
ROOT
ATOM      1  C   UNL     1       5.821   6.750  17.704  0.00  0.00    +0.000 A 
ATOM      2  N   UNL     1       4.681   7.480  17.826  0.00  0.00    +0.000 NA
ATOM      3  C   UNL     1       3.569   6.933  18.378  0.00  0.00    +0.000 A 
ATOM      4  N   UNL     1       2.417   7.708  18.437  0.00  0.00    +0.000 N 
ATOM      5  C   UNL     1       2.333   8.953  17.669  0.00  0.00    +0.000 C 
ATOM      6  C   UNL     1       1.718   9.965  18.632  0.00  0.00    +0.000 C 
ATOM      7  C   UNL     1       0.843   9.116  19.528  0.00  0.00    +0.000 C 
ATOM      8  C   UNL     1       1.627   7.816  19.667  0.00  0.00    +0.000 C 
ATOM      9  C   UNL     1       3.585   5.585  18.801  0.00  0.00    +0.000 A 
ATOM     10  C   UNL     1       4.782   4.830  18.700  0.00  0.00    +0.000 A 
ATOM     11  C   UNL     1       5.920   5.424  18.125  0.00  0.00    +0.000 A 
ATOM     12  C   UNL     1       4.816   3.367  19.109  0.00  0.00    +0.000 C 
ATOM     13  C   UNL     1       3.652   2.945  19.999  0.00  0.00    +0.000 C 
ATOM     14  C   UNL     1       2.351   3.413  19.383  0.00  0.00    +0.000 C 
ATOM     15  C   UNL     1       2.330   4.932  19.336  0.00  0.00    +0.000 C 
ENDROOT
BRANCH  11  16
ATOM     16  C   UNL     1       7.135   4.671  17.953  0.00  0.00    +0.000 C 
ATOM     17  N   UNL     1       8.135   4.099  17.789  0.00  0.00    +0.000 NA
ENDBRANCH  11  16
BRANCH   1  18
ATOM     18  S   UNL     1       7.187   7.546  16.848  0.00  0.00    +0.000 S 
BRANCH  18  19
ATOM     19  C   UNL     1       8.207   8.108  18.251  0.00  0.00    +0.000 C 
BRANCH  19  20
ATOM     20  C   UNL     1       8.443   9.613  18.115  0.00  0.00    +0.000 C 
BRANCH  20  21
ATOM     21  C   UNL     1       9.294  10.187  19.259  0.00  0.00    +0.000 C 
BRANCH  21  23
ATOM     22  C   UNL     1      11.196  11.646  18.817  0.00  0.00    +0.000 C 
ATOM     23  N   UNL     1       9.752  11.570  19.051  0.00  0.00    +0.000 NA
ATOM     24  C   UNL     1       9.040  12.167  17.917  0.00  0.00    +0.000 C 
ENDBRANCH  21  23
ENDBRANCH  20  21
ENDBRANCH  19  20
ENDBRANCH  18  19
ENDBRANCH   1  18
TORSDOF 6
ENDMDL
MODEL 5
REMARK VINA RESULT:      -5.9      2.614      4.633
REMARK  Name = 
REMARK  8 active torsions:
REMARK  status: ('A' for Active; 'I' for Inactive)
REMARK    1  A    between atoms: C_1  and  N_2
REMARK    2  A    between atoms: N_2  and  C_3
REMARK    3  A    between atoms: N_2  and  C_4
REMARK    4  A    between atoms: C_4  and  C_5
REMARK    5  A    between atoms: C_5  and  C_6
REMARK    6  A    between atoms: C_6  and  S_7
REMARK    7  A    between atoms: S_7  and  C_8
REMARK    8  A    between atoms: C_18  and  C_19
REMARK                            x       y       z     vdW  Elec       q    Type
REMARK                         _______ _______ _______ _____ _____    ______ ____
ROOT
ATOM      1  C   UNL     1       1.699   7.574  19.617  0.00  0.00    +0.000 A 
ATOM      2  N   UNL     1       1.686   6.294  20.077  0.00  0.00    +0.000 NA
ATOM      3  C   UNL     1       2.468   5.348  19.502  0.00  0.00    +0.000 A 
ATOM      4  N   UNL     1       2.382   4.046  19.981  0.00  0.00    +0.000 N 
ATOM      5  C   UNL     1       1.279   3.665  20.868  0.00  0.00    +0.000 C 
ATOM      6  C   UNL     1       1.934   2.836  21.970  0.00  0.00    +0.000 C 
ATOM      7  C   UNL     1       3.116   2.194  21.277  0.00  0.00    +0.000 C 
ATOM      8  C   UNL     1       3.581   3.263  20.295  0.00  0.00    +0.000 C 
ATOM      9  C   UNL     1       3.280   5.685  18.396  0.00  0.00    +0.000 A 
ATOM     10  C   UNL     1       3.316   7.025  17.931  0.00  0.00    +0.000 A 
ATOM     11  C   UNL     1       2.495   7.986  18.549  0.00  0.00    +0.000 A 
ATOM     12  C   UNL     1       4.147   7.406  16.719  0.00  0.00    +0.000 C 
ATOM     13  C   UNL     1       5.217   6.382  16.354  0.00  0.00    +0.000 C 
ATOM     14  C   UNL     1       4.597   5.002  16.303  0.00  0.00    +0.000 C 
ATOM     15  C   UNL     1       4.090   4.623  17.685  0.00  0.00    +0.000 C 
ENDROOT
BRANCH  11  16
ATOM     16  C   UNL     1       2.462   9.343  18.069  0.00  0.00    +0.000 C 
ATOM     17  N   UNL     1       2.450  10.454  17.723  0.00  0.00    +0.000 NA
ENDBRANCH  11  16
BRANCH   1  18
ATOM     18  S   UNL     1       0.531   8.706  20.383  0.00  0.00    +0.000 S 
BRANCH  18  19
ATOM     19  C   UNL     1       1.299   8.957  22.018  0.00  0.00    +0.000 C 
BRANCH  19  20
ATOM     20  C   UNL     1       0.232   9.469  22.988  0.00  0.00    +0.000 C 
BRANCH  20  21
ATOM     21  C   UNL     1      -0.708  10.501  22.347  0.00  0.00    +0.000 C 
BRANCH  21  23
ATOM     22  C   UNL     1       0.140  12.433  21.125  0.00  0.00    +0.000 C 
ATOM     23  N   UNL     1      -0.240  11.895  22.433  0.00  0.00    +0.000 NA
ATOM     24  C   UNL     1      -1.284  12.736  23.026  0.00  0.00    +0.000 C 
ENDBRANCH  21  23
ENDBRANCH  20  21
ENDBRANCH  19  20
ENDBRANCH  18  19
ENDBRANCH   1  18
TORSDOF 6
ENDMDL
MODEL 6
REMARK VINA RESULT:      -5.9      2.695      6.353
REMARK  Name = 
REMARK  8 active torsions:
REMARK  status: ('A' for Active; 'I' for Inactive)
REMARK    1  A    between atoms: C_1  and  N_2
REMARK    2  A    between atoms: N_2  and  C_3
REMARK    3  A    between atoms: N_2  and  C_4
REMARK    4  A    between atoms: C_4  and  C_5
REMARK    5  A    between atoms: C_5  and  C_6
REMARK    6  A    between atoms: C_6  and  S_7
REMARK    7  A    between atoms: S_7  and  C_8
REMARK    8  A    between atoms: C_18  and  C_19
REMARK                            x       y       z     vdW  Elec       q    Type
REMARK                         _______ _______ _______ _____ _____    ______ ____
ROOT
ATOM      1  C   UNL     1       2.978   4.834  20.452  0.00  0.00    +0.000 A 
ATOM      2  N   UNL     1       2.448   6.064  20.217  0.00  0.00    +0.000 NA
ATOM      3  C   UNL     1       2.876   6.809  19.169  0.00  0.00    +0.000 A 
ATOM      4  N   UNL     1       2.335   8.078  19.001  0.00  0.00    +0.000 N 
ATOM      5  C   UNL     1       1.555   8.688  20.081  0.00  0.00    +0.000 C 
ATOM      6  C   UNL     1       0.340   9.300  19.388  0.00  0.00    +0.000 C 
ATOM      7  C   UNL     1       0.858   9.657  18.012  0.00  0.00    +0.000 C 
ATOM      8  C   UNL     1       1.843   8.537  17.698  0.00  0.00    +0.000 C 
ATOM      9  C   UNL     1       3.903   6.319  18.331  0.00  0.00    +0.000 A 
ATOM     10  C   UNL     1       4.438   5.025  18.558  0.00  0.00    +0.000 A 
ATOM     11  C   UNL     1       3.973   4.273  19.652  0.00  0.00    +0.000 A 
ATOM     12  C   UNL     1       5.571   4.490  17.699  0.00  0.00    +0.000 C 
ATOM     13  C   UNL     1       5.755   5.234  16.381  0.00  0.00    +0.000 C 
ATOM     14  C   UNL     1       5.793   6.725  16.644  0.00  0.00    +0.000 C 
ATOM     15  C   UNL     1       4.456   7.173  17.212  0.00  0.00    +0.000 C 
ENDROOT
BRANCH  11  16
ATOM     16  C   UNL     1       4.533   2.980  19.948  0.00  0.00    +0.000 C 
ATOM     17  N   UNL     1       4.963   1.936  20.228  0.00  0.00    +0.000 NA
ENDBRANCH  11  16
BRANCH   1  18
ATOM     18  S   UNL     1       2.414   3.996  21.939  0.00  0.00    +0.000 S 
BRANCH  18  19
ATOM     19  C   UNL     1       1.395   2.660  21.231  0.00  0.00    +0.000 C 
BRANCH  19  20
ATOM     20  C   UNL     1       0.708   3.184  19.968  0.00  0.00    +0.000 C 
BRANCH  20  21
ATOM     21  C   UNL     1       0.680   2.147  18.834  0.00  0.00    +0.000 C 
BRANCH  21  23
ATOM     22  C   UNL     1       1.235   4.076  17.450  0.00  0.00    +0.000 C 
ATOM     23  N   UNL     1       1.248   2.615  17.559  0.00  0.00    +0.000 NA
ATOM     24  C   UNL     1       2.622   2.124  17.413  0.00  0.00    +0.000 C 
ENDBRANCH  21  23
ENDBRANCH  20  21
ENDBRANCH  19  20
ENDBRANCH  18  19
ENDBRANCH   1  18
TORSDOF 6
ENDMDL
MODEL 7
REMARK VINA RESULT:      -5.9      2.348      6.982
REMARK  Name = 
REMARK  8 active torsions:
REMARK  status: ('A' for Active; 'I' for Inactive)
REMARK    1  A    between atoms: C_1  and  N_2
REMARK    2  A    between atoms: N_2  and  C_3
REMARK    3  A    between atoms: N_2  and  C_4
REMARK    4  A    between atoms: C_4  and  C_5
REMARK    5  A    between atoms: C_5  and  C_6
REMARK    6  A    between atoms: C_6  and  S_7
REMARK    7  A    between atoms: S_7  and  C_8
REMARK    8  A    between atoms: C_18  and  C_19
REMARK                            x       y       z     vdW  Elec       q    Type
REMARK                         _______ _______ _______ _____ _____    ______ ____
ROOT
ATOM      1  C   UNL     1       4.640   6.663  17.841  0.00  0.00    +0.000 A 
ATOM      2  N   UNL     1       3.661   7.597  17.980  0.00  0.00    +0.000 NA
ATOM      3  C   UNL     1       2.606   7.371  18.800  0.00  0.00    +0.000 A 
ATOM      4  N   UNL     1       1.611   8.338  18.870  0.00  0.00    +0.000 N 
ATOM      5  C   UNL     1       1.567   9.415  17.877  0.00  0.00    +0.000 C 
ATOM      6  C   UNL     1       1.297  10.681  18.685  0.00  0.00    +0.000 C 
ATOM      7  C   UNL     1       0.492  10.184  19.866  0.00  0.00    +0.000 C 
ATOM      8  C   UNL     1       1.090   8.813  20.156  0.00  0.00    +0.000 C 
ATOM      9  C   UNL     1       2.504   6.144  19.493  0.00  0.00    +0.000 A 
ATOM     10  C   UNL     1       3.538   5.180  19.372  0.00  0.00    +0.000 A 
ATOM     11  C   UNL     1       4.622   5.442  18.514  0.00  0.00    +0.000 A 
ATOM     12  C   UNL     1       3.434   3.836  20.072  0.00  0.00    +0.000 C 
ATOM     13  C   UNL     1       2.410   3.802  21.200  0.00  0.00    +0.000 C 
ATOM     14  C   UNL     1       1.098   4.376  20.708  0.00  0.00    +0.000 C 
ATOM     15  C   UNL     1       1.290   5.838  20.342  0.00  0.00    +0.000 C 
ENDROOT
BRANCH  11  16
ATOM     16  C   UNL     1       5.660   4.463  18.321  0.00  0.00    +0.000 C 
ATOM     17  N   UNL     1       6.516   3.683  18.208  0.00  0.00    +0.000 NA
ENDBRANCH  11  16
BRANCH   1  18
ATOM     18  S   UNL     1       5.922   7.028  16.635  0.00  0.00    +0.000 S 
BRANCH  18  19
ATOM     19  C   UNL     1       5.375   6.021  15.217  0.00  0.00    +0.000 C 
BRANCH  19  20
ATOM     20  C   UNL     1       6.535   5.129  14.771  0.00  0.00    +0.000 C 
BRANCH  20  21
ATOM     21  C   UNL     1       6.065   3.763  14.246  0.00  0.00    +0.000 C 
BRANCH  21  23
ATOM     22  C   UNL     1       5.229   3.300  12.003  0.00  0.00    +0.000 C 
ATOM     23  N   UNL     1       6.415   3.491  12.842  0.00  0.00    +0.000 NA
ATOM     24  C   UNL     1       7.223   4.591  12.306  0.00  0.00    +0.000 C 
ENDBRANCH  21  23
ENDBRANCH  20  21
ENDBRANCH  19  20
ENDBRANCH  18  19
ENDBRANCH   1  18
TORSDOF 6
ENDMDL
MODEL 8
REMARK VINA RESULT:      -5.8      3.566      7.206
REMARK  Name = 
REMARK  8 active torsions:
REMARK  status: ('A' for Active; 'I' for Inactive)
REMARK    1  A    between atoms: C_1  and  N_2
REMARK    2  A    between atoms: N_2  and  C_3
REMARK    3  A    between atoms: N_2  and  C_4
REMARK    4  A    between atoms: C_4  and  C_5
REMARK    5  A    between atoms: C_5  and  C_6
REMARK    6  A    between atoms: C_6  and  S_7
REMARK    7  A    between atoms: S_7  and  C_8
REMARK    8  A    between atoms: C_18  and  C_19
REMARK                            x       y       z     vdW  Elec       q    Type
REMARK                         _______ _______ _______ _____ _____    ______ ____
ROOT
ATOM      1  C   UNL     1       5.631   5.159  17.895  0.00  0.00    +0.000 A 
ATOM      2  N   UNL     1       4.670   4.293  18.314  0.00  0.00    +0.000 NA
ATOM      3  C   UNL     1       3.408   4.727  18.552  0.00  0.00    +0.000 A 
ATOM      4  N   UNL     1       2.476   3.810  19.023  0.00  0.00    +0.000 N 
ATOM      5  C   UNL     1       2.921   2.505  19.517  0.00  0.00    +0.000 C 
ATOM      6  C   UNL     1       1.939   1.503  18.915  0.00  0.00    +0.000 C 
ATOM      7  C   UNL     1       0.658   2.298  18.784  0.00  0.00    +0.000 C 
ATOM      8  C   UNL     1       1.140   3.700  18.430  0.00  0.00    +0.000 C 
ATOM      9  C   UNL     1       3.094   6.096  18.394  0.00  0.00    +0.000 A 
ATOM     10  C   UNL     1       4.088   6.997  17.930  0.00  0.00    +0.000 A 
ATOM     11  C   UNL     1       5.388   6.517  17.690  0.00  0.00    +0.000 A 
ATOM     12  C   UNL     1       3.790   8.479  17.791  0.00  0.00    +0.000 C 
ATOM     13  C   UNL     1       2.302   8.813  17.761  0.00  0.00    +0.000 C 
ATOM     14  C   UNL     1       1.607   8.120  18.913  0.00  0.00    +0.000 C 
ATOM     15  C   UNL     1       1.716   6.615  18.740  0.00  0.00    +0.000 C 
ENDROOT
BRANCH  11  16
ATOM     16  C   UNL     1       6.437   7.412  17.274  0.00  0.00    +0.000 C 
ATOM     17  N   UNL     1       7.312   8.097  16.929  0.00  0.00    +0.000 NA
ENDBRANCH  11  16
BRANCH   1  18
ATOM     18  S   UNL     1       7.290   4.487  17.730  0.00  0.00    +0.000 S 
BRANCH  18  19
ATOM     19  C   UNL     1       7.449   4.372  15.918  0.00  0.00    +0.000 C 
BRANCH  19  20
ATOM     20  C   UNL     1       6.187   3.715  15.355  0.00  0.00    +0.000 C 
BRANCH  20  21
ATOM     21  C   UNL     1       5.761   4.309  14.003  0.00  0.00    +0.000 C 
BRANCH  21  23
ATOM     22  C   UNL     1       4.946   3.220  11.980  0.00  0.00    +0.000 C 
ATOM     23  N   UNL     1       6.107   3.485  12.833  0.00  0.00    +0.000 NA
ATOM     24  C   UNL     1       7.153   4.147  12.047  0.00  0.00    +0.000 C 
ENDBRANCH  21  23
ENDBRANCH  20  21
ENDBRANCH  19  20
ENDBRANCH  18  19
ENDBRANCH   1  18
TORSDOF 6
ENDMDL
MODEL 9
REMARK VINA RESULT:      -5.7      5.476     10.206
REMARK  Name = 
REMARK  8 active torsions:
REMARK  status: ('A' for Active; 'I' for Inactive)
REMARK    1  A    between atoms: C_1  and  N_2
REMARK    2  A    between atoms: N_2  and  C_3
REMARK    3  A    between atoms: N_2  and  C_4
REMARK    4  A    between atoms: C_4  and  C_5
REMARK    5  A    between atoms: C_5  and  C_6
REMARK    6  A    between atoms: C_6  and  S_7
REMARK    7  A    between atoms: S_7  and  C_8
REMARK    8  A    between atoms: C_18  and  C_19
REMARK                            x       y       z     vdW  Elec       q    Type
REMARK                         _______ _______ _______ _____ _____    ______ ____
ROOT
ATOM      1  C   UNL     1      -2.205  12.098  19.168  0.00  0.00    +0.000 A 
ATOM      2  N   UNL     1      -2.534  12.667  20.358  0.00  0.00    +0.000 NA
ATOM      3  C   UNL     1      -3.834  12.848  20.699  0.00  0.00    +0.000 A 
ATOM      4  N   UNL     1      -4.113  13.477  21.906  0.00  0.00    +0.000 N 
ATOM      5  C   UNL     1      -3.048  14.173  22.632  0.00  0.00    +0.000 C 
ATOM      6  C   UNL     1      -3.232  13.758  24.090  0.00  0.00    +0.000 C 
ATOM      7  C   UNL     1      -4.722  13.516  24.204  0.00  0.00    +0.000 C 
ATOM      8  C   UNL     1      -5.095  12.929  22.848  0.00  0.00    +0.000 C 
ATOM      9  C   UNL     1      -4.855  12.471  19.799  0.00  0.00    +0.000 A 
ATOM     10  C   UNL     1      -4.516  11.852  18.569  0.00  0.00    +0.000 A 
ATOM     11  C   UNL     1      -3.159  11.676  18.242  0.00  0.00    +0.000 A 
ATOM     12  C   UNL     1      -5.591  11.474  17.565  0.00  0.00    +0.000 C 
ATOM     13  C   UNL     1      -6.996  11.411  18.155  0.00  0.00    +0.000 C 
ATOM     14  C   UNL     1      -7.267  12.671  18.948  0.00  0.00    +0.000 C 
ATOM     15  C   UNL     1      -6.307  12.747  20.124  0.00  0.00    +0.000 C 
ENDROOT
BRANCH  11  16
ATOM     16  C   UNL     1      -2.775  11.103  16.978  0.00  0.00    +0.000 C 
ATOM     17  N   UNL     1      -2.509  10.629  15.949  0.00  0.00    +0.000 NA
ENDBRANCH  11  16
BRANCH   1  18
ATOM     18  S   UNL     1      -0.451  12.023  18.779  0.00  0.00    +0.000 S 
BRANCH  18  19
ATOM     19  C   UNL     1      -0.152  10.225  18.832  0.00  0.00    +0.000 C 
BRANCH  19  20
ATOM     20  C   UNL     1       0.547   9.882  20.149  0.00  0.00    +0.000 C 
BRANCH  20  21
ATOM     21  C   UNL     1       0.566  11.060  21.135  0.00  0.00    +0.000 C 
BRANCH  21  23
ATOM     22  C   UNL     1      -1.053  10.876  22.949  0.00  0.00    +0.000 C 
ATOM     23  N   UNL     1       0.342  10.687  22.542  0.00  0.00    +0.000 NA
ATOM     24  C   UNL     1       0.732   9.291  22.758  0.00  0.00    +0.000 C 
ENDBRANCH  21  23
ENDBRANCH  20  21
ENDBRANCH  19  20
ENDBRANCH  18  19
ENDBRANCH   1  18
TORSDOF 6
ENDMDL
