MODEL 1
REMARK VINA RESULT:      -6.2      0.000      0.000
REMARK  Name = 
REMARK  12 active torsions:
REMARK  status: ('A' for Active; 'I' for Inactive)
REMARK    1  A    between atoms: C_1  and  O_2
REMARK    2  A    between atoms: O_2  and  C_3
REMARK    3  A    between atoms: C_6  and  C_7
REMARK    4  A    between atoms: C_8  and  C_9
REMARK    5  A    between atoms: C_9  and  O_11
REMARK    6  A    between atoms: C_13  and  S_14
REMARK    7  A    between atoms: S_14  and  C_15
REMARK    8  A    between atoms: C_15  and  C_16
REMARK    9  A    between atoms: C_15  and  C_17
REMARK   10  A    between atoms: C_18  and  C_19
REMARK   11  A    between atoms: C_21  and  O_22
REMARK   12  A    between atoms: O_22  and  C_23
REMARK                            x       y       z     vdW  Elec       q    Type
REMARK                         _______ _______ _______ _____ _____    ______ ____
ROOT
ATOM      1  C   UNL     1       3.701   5.609  17.618  0.00  0.00    +0.000 A 
ATOM      2  C   UNL     1       3.191   4.355  17.282  0.00  0.00    +0.000 A 
ATOM      3  S   UNL     1       4.336   3.413  16.418  0.00  0.00    +0.000 S 
ATOM      4  C   UNL     1       5.517   4.639  16.453  0.00  0.00    +0.000 A 
ATOM      5  C   UNL     1       5.030   5.790  17.040  0.00  0.00    +0.000 A 
ENDROOT
BRANCH   1   9
ATOM      6  C   UNL     1       1.519   8.526  19.933  0.00  0.00    +0.000 A 
ATOM      7  C   UNL     1       1.736   8.719  18.572  0.00  0.00    +0.000 A 
ATOM      8  C   UNL     1       2.469   7.788  17.829  0.00  0.00    +0.000 A 
ATOM      9  C   UNL     1       2.941   6.603  18.416  0.00  0.00    +0.000 A 
ATOM     10  C   UNL     1       2.664   6.385  19.788  0.00  0.00    +0.000 A 
ATOM     11  C   UNL     1       1.989   7.362  20.538  0.00  0.00    +0.000 A 
BRANCH   6  13
ATOM     12  C   UNL     1      -0.054   9.159  21.605  0.00  0.00    +0.000 C 
ATOM     13  O   UNL     1       0.824   9.532  20.549  0.00  0.00    +0.000 OA
ENDBRANCH   6  13
BRANCH  10  14
ATOM     14  O   UNL     1       3.081   5.183  20.308  0.00  0.00    +0.000 OA
ATOM     15  C   UNL     1       2.194   4.473  21.161  0.00  0.00    +0.000 C 
ENDBRANCH  10  14
ENDBRANCH   1   9
BRANCH   2  16
ATOM     16  C   UNL     1       1.909   3.737  17.586  0.00  0.00    +0.000 C 
ATOM     17  O   UNL     1       0.807   4.164  17.284  0.00  0.00    +0.000 OA
BRANCH  16  18
ATOM     18  O   UNL     1       2.052   2.537  18.214  0.00  0.00    +0.000 OA
ATOM     19  H   UNL     1       2.973   2.368  18.491  0.00  0.00    +0.000 HD
ENDBRANCH  16  18
ENDBRANCH   2  16
BRANCH   5  20
ATOM     20  C   UNL     1       5.788   7.016  17.058  0.00  0.00    +0.000 C 
ATOM     21  N   UNL     1       6.419   7.987  17.089  0.00  0.00    +0.000 NA
ENDBRANCH   5  20
BRANCH   4  22
ATOM     22  S   UNL     1       7.076   4.334  15.683  0.00  0.00    +0.000 S 
BRANCH  22  23
ATOM     23  C   UNL     1       6.812   4.845  13.942  0.00  0.00    +0.000 C 
ATOM     24  C   UNL     1       8.100   5.291  13.256  0.00  0.00    +0.000 C 
ATOM     25  C   UNL     1       6.221   3.650  13.189  0.00  0.00    +0.000 C 
ENDBRANCH  22  23
ENDBRANCH   4  22
TORSDOF 8
ENDMDL
MODEL 2
REMARK VINA RESULT:      -5.9      2.980      6.602
REMARK  Name = 
REMARK  12 active torsions:
REMARK  status: ('A' for Active; 'I' for Inactive)
REMARK    1  A    between atoms: C_1  and  O_2
REMARK    2  A    between atoms: O_2  and  C_3
REMARK    3  A    between atoms: C_6  and  C_7
REMARK    4  A    between atoms: C_8  and  C_9
REMARK    5  A    between atoms: C_9  and  O_11
REMARK    6  A    between atoms: C_13  and  S_14
REMARK    7  A    between atoms: S_14  and  C_15
REMARK    8  A    between atoms: C_15  and  C_16
REMARK    9  A    between atoms: C_15  and  C_17
REMARK   10  A    between atoms: C_18  and  C_19
REMARK   11  A    between atoms: C_21  and  O_22
REMARK   12  A    between atoms: O_22  and  C_23
REMARK                            x       y       z     vdW  Elec       q    Type
REMARK                         _______ _______ _______ _____ _____    ______ ____
ROOT
ATOM      1  C   UNL     1       3.750   4.841  18.777  0.00  0.00    +0.000 A 
ATOM      2  C   UNL     1       3.609   3.867  19.765  0.00  0.00    +0.000 A 
ATOM      3  S   UNL     1       2.378   4.274  20.890  0.00  0.00    +0.000 S 
ATOM      4  C   UNL     1       2.016   5.744  20.111  0.00  0.00    +0.000 A 
ATOM      5  C   UNL     1       2.872   5.977  19.053  0.00  0.00    +0.000 A 
ENDROOT
BRANCH   1   9
ATOM      6  C   UNL     1       6.511   4.435  15.485  0.00  0.00    +0.000 A 
ATOM      7  C   UNL     1       5.142   4.285  15.286  0.00  0.00    +0.000 A 
ATOM      8  C   UNL     1       4.250   4.386  16.358  0.00  0.00    +0.000 A 
ATOM      9  C   UNL     1       4.703   4.715  17.647  0.00  0.00    +0.000 A 
ATOM     10  C   UNL     1       6.091   4.926  17.830  0.00  0.00    +0.000 A 
ATOM     11  C   UNL     1       6.982   4.749  16.759  0.00  0.00    +0.000 A 
BRANCH   6  13
ATOM     12  C   UNL     1       6.593   3.912  13.163  0.00  0.00    +0.000 C 
ATOM     13  O   UNL     1       7.274   4.269  14.361  0.00  0.00    +0.000 OA
ENDBRANCH   6  13
BRANCH  10  14
ATOM     14  O   UNL     1       6.485   5.313  19.088  0.00  0.00    +0.000 OA
ATOM     15  C   UNL     1       7.802   5.820  19.257  0.00  0.00    +0.000 C 
ENDBRANCH  10  14
ENDBRANCH   1   9
BRANCH   2  16
ATOM     16  C   UNL     1       4.287   2.592  19.947  0.00  0.00    +0.000 C 
ATOM     17  O   UNL     1       4.931   2.244  20.922  0.00  0.00    +0.000 OA
BRANCH  16  18
ATOM     18  O   UNL     1       4.073   1.742  18.904  0.00  0.00    +0.000 OA
ATOM     19  H   UNL     1       4.785   1.081  18.810  0.00  0.00    +0.000 HD
ENDBRANCH  16  18
ENDBRANCH   2  16
BRANCH   5  20
ATOM     20  C   UNL     1       2.866   7.221  18.326  0.00  0.00    +0.000 C 
ATOM     21  N   UNL     1       2.891   8.217  17.735  0.00  0.00    +0.000 NA
ENDBRANCH   5  20
BRANCH   4  22
ATOM     22  S   UNL     1       0.745   6.767  20.784  0.00  0.00    +0.000 S 
BRANCH  22  23
ATOM     23  C   UNL     1       1.512   8.431  20.851  0.00  0.00    +0.000 C 
ATOM     24  C   UNL     1       0.741   9.469  20.040  0.00  0.00    +0.000 C 
ATOM     25  C   UNL     1       1.560   8.865  22.319  0.00  0.00    +0.000 C 
ENDBRANCH  22  23
ENDBRANCH   4  22
TORSDOF 8
ENDMDL
MODEL 3
REMARK VINA RESULT:      -5.5      5.348      8.416
REMARK  Name = 
REMARK  12 active torsions:
REMARK  status: ('A' for Active; 'I' for Inactive)
REMARK    1  A    between atoms: C_1  and  O_2
REMARK    2  A    between atoms: O_2  and  C_3
REMARK    3  A    between atoms: C_6  and  C_7
REMARK    4  A    between atoms: C_8  and  C_9
REMARK    5  A    between atoms: C_9  and  O_11
REMARK    6  A    between atoms: C_13  and  S_14
REMARK    7  A    between atoms: S_14  and  C_15
REMARK    8  A    between atoms: C_15  and  C_16
REMARK    9  A    between atoms: C_15  and  C_17
REMARK   10  A    between atoms: C_18  and  C_19
REMARK   11  A    between atoms: C_21  and  O_22
REMARK   12  A    between atoms: O_22  and  C_23
REMARK                            x       y       z     vdW  Elec       q    Type
REMARK                         _______ _______ _______ _____ _____    ______ ____
ROOT
ATOM      1  C   UNL     1      -0.061  10.994  19.078  0.00  0.00    +0.000 A 
ATOM      2  C   UNL     1      -1.334  11.013  18.511  0.00  0.00    +0.000 A 
ATOM      3  S   UNL     1      -2.091  12.543  18.697  0.00  0.00    +0.000 S 
ATOM      4  C   UNL     1      -0.767  13.204  19.539  0.00  0.00    +0.000 A 
ATOM      5  C   UNL     1       0.213  12.257  19.758  0.00  0.00    +0.000 A 
ENDROOT
BRANCH   1   9
ATOM      6  C   UNL     1       2.527   7.547  18.848  0.00  0.00    +0.000 A 
ATOM      7  C   UNL     1       2.467   8.460  17.801  0.00  0.00    +0.000 A 
ATOM      8  C   UNL     1       1.606   9.560  17.863  0.00  0.00    +0.000 A 
ATOM      9  C   UNL     1       0.836   9.813  19.010  0.00  0.00    +0.000 A 
ATOM     10  C   UNL     1       0.948   8.912  20.097  0.00  0.00    +0.000 A 
ATOM     11  C   UNL     1       1.762   7.772  19.992  0.00  0.00    +0.000 A 
BRANCH   6  13
ATOM     12  C   UNL     1       3.407   5.481  19.640  0.00  0.00    +0.000 C 
ATOM     13  O   UNL     1       3.378   6.494  18.642  0.00  0.00    +0.000 OA
ENDBRANCH   6  13
BRANCH  10  14
ATOM     14  O   UNL     1       0.233   9.232  21.226  0.00  0.00    +0.000 OA
ATOM     15  C   UNL     1       0.921   9.289  22.468  0.00  0.00    +0.000 C 
ENDBRANCH  10  14
ENDBRANCH   1   9
BRANCH   2  16
ATOM     16  C   UNL     1      -2.064   9.991  17.775  0.00  0.00    +0.000 C 
ATOM     17  O   UNL     1      -3.016   9.345  18.180  0.00  0.00    +0.000 OA
BRANCH  16  18
ATOM     18  O   UNL     1      -1.613   9.856  16.497  0.00  0.00    +0.000 OA
ATOM     19  H   UNL     1      -0.958   9.137  16.407  0.00  0.00    +0.000 HD
ENDBRANCH  16  18
ENDBRANCH   2  16
BRANCH   5  20
ATOM     20  C   UNL     1       1.369  12.530  20.576  0.00  0.00    +0.000 C 
ATOM     21  N   UNL     1       2.316  12.745  21.208  0.00  0.00    +0.000 NA
ENDBRANCH   5  20
BRANCH   4  22
ATOM     22  S   UNL     1      -0.864  14.879  20.086  0.00  0.00    +0.000 S 
BRANCH  22  23
ATOM     23  C   UNL     1       0.095  15.807  18.829  0.00  0.00    +0.000 C 
ATOM     24  C   UNL     1      -0.646  17.037  18.310  0.00  0.00    +0.000 C 
ATOM     25  C   UNL     1       1.414  16.242  19.474  0.00  0.00    +0.000 C 
ENDBRANCH  22  23
ENDBRANCH   4  22
TORSDOF 8
ENDMDL
MODEL 4
REMARK VINA RESULT:      -5.4      7.991      9.265
REMARK  Name = 
REMARK  12 active torsions:
REMARK  status: ('A' for Active; 'I' for Inactive)
REMARK    1  A    between atoms: C_1  and  O_2
REMARK    2  A    between atoms: O_2  and  C_3
REMARK    3  A    between atoms: C_6  and  C_7
REMARK    4  A    between atoms: C_8  and  C_9
REMARK    5  A    between atoms: C_9  and  O_11
REMARK    6  A    between atoms: C_13  and  S_14
REMARK    7  A    between atoms: S_14  and  C_15
REMARK    8  A    between atoms: C_15  and  C_16
REMARK    9  A    between atoms: C_15  and  C_17
REMARK   10  A    between atoms: C_18  and  C_19
REMARK   11  A    between atoms: C_21  and  O_22
REMARK   12  A    between atoms: O_22  and  C_23
REMARK                            x       y       z     vdW  Elec       q    Type
REMARK                         _______ _______ _______ _____ _____    ______ ____
ROOT
ATOM      1  C   UNL     1      -0.220  13.170  20.509  0.00  0.00    +0.000 A 
ATOM      2  C   UNL     1      -0.068  12.590  19.250  0.00  0.00    +0.000 A 
ATOM      3  S   UNL     1       1.465  12.948  18.565  0.00  0.00    +0.000 S 
ATOM      4  C   UNL     1       1.951  13.884  19.901  0.00  0.00    +0.000 A 
ATOM      5  C   UNL     1       0.937  14.001  20.830  0.00  0.00    +0.000 A 
ENDROOT
BRANCH   1   9
ATOM      6  C   UNL     1      -3.733  12.636  22.960  0.00  0.00    +0.000 A 
ATOM      7  C   UNL     1      -3.767  13.463  21.841  0.00  0.00    +0.000 A 
ATOM      8  C   UNL     1      -2.620  13.660  21.065  0.00  0.00    +0.000 A 
ATOM      9  C   UNL     1      -1.428  12.973  21.348  0.00  0.00    +0.000 A 
ATOM     10  C   UNL     1      -1.418  12.086  22.453  0.00  0.00    +0.000 A 
ATOM     11  C   UNL     1      -2.556  11.955  23.266  0.00  0.00    +0.000 A 
BRANCH   6  13
ATOM     12  C   UNL     1      -6.092  12.964  22.968  0.00  0.00    +0.000 C 
ATOM     13  O   UNL     1      -4.911  12.565  23.655  0.00  0.00    +0.000 OA
ENDBRANCH   6  13
BRANCH  10  14
ATOM     14  O   UNL     1      -0.256  11.382  22.655  0.00  0.00    +0.000 OA
ATOM     15  C   UNL     1      -0.352  10.009  23.011  0.00  0.00    +0.000 C 
ENDBRANCH  10  14
ENDBRANCH   1   9
BRANCH   2  16
ATOM     16  C   UNL     1      -0.956  11.725  18.488  0.00  0.00    +0.000 C 
ATOM     17  O   UNL     1      -1.297  10.592  18.783  0.00  0.00    +0.000 OA
BRANCH  16  18
ATOM     18  O   UNL     1      -1.458  12.346  17.385  0.00  0.00    +0.000 OA
ATOM     19  H   UNL     1      -1.974  11.741  16.818  0.00  0.00    +0.000 HD
ENDBRANCH  16  18
ENDBRANCH   2  16
BRANCH   5  20
ATOM     20  C   UNL     1       1.051  14.864  21.980  0.00  0.00    +0.000 C 
ATOM     21  N   UNL     1       1.169  15.543  22.911  0.00  0.00    +0.000 NA
ENDBRANCH   5  20
BRANCH   4  22
ATOM     22  S   UNL     1       3.552  14.627  19.874  0.00  0.00    +0.000 S 
BRANCH  22  23
ATOM     23  C   UNL     1       3.919  14.814  18.088  0.00  0.00    +0.000 C 
ATOM     24  C   UNL     1       3.353  16.104  17.501  0.00  0.00    +0.000 C 
ATOM     25  C   UNL     1       5.440  14.801  17.919  0.00  0.00    +0.000 C 
ENDBRANCH  22  23
ENDBRANCH   4  22
TORSDOF 8
ENDMDL
MODEL 5
REMARK VINA RESULT:      -5.4      2.869      6.640
REMARK  Name = 
REMARK  12 active torsions:
REMARK  status: ('A' for Active; 'I' for Inactive)
REMARK    1  A    between atoms: C_1  and  O_2
REMARK    2  A    between atoms: O_2  and  C_3
REMARK    3  A    between atoms: C_6  and  C_7
REMARK    4  A    between atoms: C_8  and  C_9
REMARK    5  A    between atoms: C_9  and  O_11
REMARK    6  A    between atoms: C_13  and  S_14
REMARK    7  A    between atoms: S_14  and  C_15
REMARK    8  A    between atoms: C_15  and  C_16
REMARK    9  A    between atoms: C_15  and  C_17
REMARK   10  A    between atoms: C_18  and  C_19
REMARK   11  A    between atoms: C_21  and  O_22
REMARK   12  A    between atoms: O_22  and  C_23
REMARK                            x       y       z     vdW  Elec       q    Type
REMARK                         _______ _______ _______ _____ _____    ______ ____
ROOT
ATOM      1  C   UNL     1       3.463   5.311  19.131  0.00  0.00    +0.000 A 
ATOM      2  C   UNL     1       3.260   4.406  20.173  0.00  0.00    +0.000 A 
ATOM      3  S   UNL     1       1.970   4.892  21.196  0.00  0.00    +0.000 S 
ATOM      4  C   UNL     1       1.663   6.306  20.300  0.00  0.00    +0.000 A 
ATOM      5  C   UNL     1       2.578   6.465  19.279  0.00  0.00    +0.000 A 
ENDROOT
BRANCH   1   9
ATOM      6  C   UNL     1       6.416   4.751  16.033  0.00  0.00    +0.000 A 
ATOM      7  C   UNL     1       6.723   5.468  17.185  0.00  0.00    +0.000 A 
ATOM      8  C   UNL     1       5.757   5.675  18.175  0.00  0.00    +0.000 A 
ATOM      9  C   UNL     1       4.477   5.105  18.068  0.00  0.00    +0.000 A 
ATOM     10  C   UNL     1       4.191   4.326  16.921  0.00  0.00    +0.000 A 
ATOM     11  C   UNL     1       5.148   4.187  15.901  0.00  0.00    +0.000 A 
BRANCH   6  13
ATOM     12  C   UNL     1       7.085   4.702  13.749  0.00  0.00    +0.000 C 
ATOM     13  O   UNL     1       7.438   4.659  15.127  0.00  0.00    +0.000 OA
ENDBRANCH   6  13
BRANCH  10  14
ATOM     14  O   UNL     1       2.954   3.728  16.886  0.00  0.00    +0.000 OA
ATOM     15  C   UNL     1       2.869   2.336  17.159  0.00  0.00    +0.000 C 
ENDBRANCH  10  14
ENDBRANCH   1   9
BRANCH   2  16
ATOM     16  C   UNL     1       3.918   3.145  20.478  0.00  0.00    +0.000 C 
ATOM     17  O   UNL     1       4.945   2.721  19.976  0.00  0.00    +0.000 OA
BRANCH  16  18
ATOM     18  O   UNL     1       3.291   2.467  21.480  0.00  0.00    +0.000 OA
ATOM     19  H   UNL     1       3.506   2.824  22.363  0.00  0.00    +0.000 HD
ENDBRANCH  16  18
ENDBRANCH   2  16
BRANCH   5  20
ATOM     20  C   UNL     1       2.621   7.657  18.470  0.00  0.00    +0.000 C 
ATOM     21  N   UNL     1       2.646   8.632  17.844  0.00  0.00    +0.000 NA
ENDBRANCH   5  20
BRANCH   4  22
ATOM     22  S   UNL     1       0.363   7.377  20.829  0.00  0.00    +0.000 S 
BRANCH  22  23
ATOM     23  C   UNL     1       1.230   8.922  21.298  0.00  0.00    +0.000 C 
ATOM     24  C   UNL     1       0.787  10.123  20.466  0.00  0.00    +0.000 C 
ATOM     25  C   UNL     1       0.939   9.192  22.776  0.00  0.00    +0.000 C 
ENDBRANCH  22  23
ENDBRANCH   4  22
TORSDOF 8
ENDMDL
MODEL 6
REMARK VINA RESULT:      -5.3      4.904      7.017
REMARK  Name = 
REMARK  12 active torsions:
REMARK  status: ('A' for Active; 'I' for Inactive)
REMARK    1  A    between atoms: C_1  and  O_2
REMARK    2  A    between atoms: O_2  and  C_3
REMARK    3  A    between atoms: C_6  and  C_7
REMARK    4  A    between atoms: C_8  and  C_9
REMARK    5  A    between atoms: C_9  and  O_11
REMARK    6  A    between atoms: C_13  and  S_14
REMARK    7  A    between atoms: S_14  and  C_15
REMARK    8  A    between atoms: C_15  and  C_16
REMARK    9  A    between atoms: C_15  and  C_17
REMARK   10  A    between atoms: C_18  and  C_19
REMARK   11  A    between atoms: C_21  and  O_22
REMARK   12  A    between atoms: O_22  and  C_23
REMARK                            x       y       z     vdW  Elec       q    Type
REMARK                         _______ _______ _______ _____ _____    ______ ____
ROOT
ATOM      1  C   UNL     1       0.801   9.912  20.356  0.00  0.00    +0.000 A 
ATOM      2  C   UNL     1       0.422   9.399  21.596  0.00  0.00    +0.000 A 
ATOM      3  S   UNL     1       0.972   7.788  21.813  0.00  0.00    +0.000 S 
ATOM      4  C   UNL     1       1.704   7.727  20.278  0.00  0.00    +0.000 A 
ATOM      5  C   UNL     1       1.469   8.884  19.562  0.00  0.00    +0.000 A 
ENDROOT
BRANCH   1   9
ATOM      6  C   UNL     1      -0.059  13.970  19.161  0.00  0.00    +0.000 A 
ATOM      7  C   UNL     1       1.122  13.662  19.829  0.00  0.00    +0.000 A 
ATOM      8  C   UNL     1       1.386  12.352  20.243  0.00  0.00    +0.000 A 
ATOM      9  C   UNL     1       0.505  11.303  19.932  0.00  0.00    +0.000 A 
ATOM     10  C   UNL     1      -0.666  11.614  19.199  0.00  0.00    +0.000 A 
ATOM     11  C   UNL     1      -0.953  12.945  18.853  0.00  0.00    +0.000 A 
BRANCH   6  13
ATOM     12  C   UNL     1       0.973  16.074  18.741  0.00  0.00    +0.000 C 
ATOM     13  O   UNL     1      -0.213  15.294  18.851  0.00  0.00    +0.000 OA
ENDBRANCH   6  13
BRANCH  10  14
ATOM     14  O   UNL     1      -1.467  10.552  18.855  0.00  0.00    +0.000 OA
ATOM     15  C   UNL     1      -1.628  10.247  17.476  0.00  0.00    +0.000 C 
ENDBRANCH  10  14
ENDBRANCH   1   9
BRANCH   2  16
ATOM     16  C   UNL     1      -0.296  10.017  22.701  0.00  0.00    +0.000 C 
ATOM     17  O   UNL     1      -1.307  10.693  22.624  0.00  0.00    +0.000 OA
BRANCH  16  18
ATOM     18  O   UNL     1       0.251   9.702  23.909  0.00  0.00    +0.000 OA
ATOM     19  H   UNL     1       1.031  10.250  24.119  0.00  0.00    +0.000 HD
ENDBRANCH  16  18
ENDBRANCH   2  16
BRANCH   5  20
ATOM     20  C   UNL     1       1.860   9.019  18.180  0.00  0.00    +0.000 C 
ATOM     21  N   UNL     1       2.202   9.136  17.080  0.00  0.00    +0.000 NA
ENDBRANCH   5  20
BRANCH   4  22
ATOM     22  S   UNL     1       2.523   6.242  19.790  0.00  0.00    +0.000 S 
BRANCH  22  23
ATOM     23  C   UNL     1       1.507   4.914  20.541  0.00  0.00    +0.000 C 
ATOM     24  C   UNL     1       0.992   3.910  19.512  0.00  0.00    +0.000 C 
ATOM     25  C   UNL     1       2.375   4.187  21.572  0.00  0.00    +0.000 C 
ENDBRANCH  22  23
ENDBRANCH   4  22
TORSDOF 8
ENDMDL
MODEL 7
REMARK VINA RESULT:      -5.2      8.029      9.445
REMARK  Name = 
REMARK  12 active torsions:
REMARK  status: ('A' for Active; 'I' for Inactive)
REMARK    1  A    between atoms: C_1  and  O_2
REMARK    2  A    between atoms: O_2  and  C_3
REMARK    3  A    between atoms: C_6  and  C_7
REMARK    4  A    between atoms: C_8  and  C_9
REMARK    5  A    between atoms: C_9  and  O_11
REMARK    6  A    between atoms: C_13  and  S_14
REMARK    7  A    between atoms: S_14  and  C_15
REMARK    8  A    between atoms: C_15  and  C_16
REMARK    9  A    between atoms: C_15  and  C_17
REMARK   10  A    between atoms: C_18  and  C_19
REMARK   11  A    between atoms: C_21  and  O_22
REMARK   12  A    between atoms: O_22  and  C_23
REMARK                            x       y       z     vdW  Elec       q    Type
REMARK                         _______ _______ _______ _____ _____    ______ ____
ROOT
ATOM      1  C   UNL     1      -0.178  13.180  20.464  0.00  0.00    +0.000 A 
ATOM      2  C   UNL     1       0.014  12.607  19.207  0.00  0.00    +0.000 A 
ATOM      3  S   UNL     1       1.560  12.984  18.564  0.00  0.00    +0.000 S 
ATOM      4  C   UNL     1       2.001  13.920  19.916  0.00  0.00    +0.000 A 
ATOM      5  C   UNL     1       0.962  14.023  20.818  0.00  0.00    +0.000 A 
ENDROOT
BRANCH   1   9
ATOM      6  C   UNL     1      -3.748  12.597  22.818  0.00  0.00    +0.000 A 
ATOM      7  C   UNL     1      -3.778  13.376  21.666  0.00  0.00    +0.000 A 
ATOM      8  C   UNL     1      -2.613  13.589  20.920  0.00  0.00    +0.000 A 
ATOM      9  C   UNL     1      -1.405  12.966  21.271  0.00  0.00    +0.000 A 
ATOM     10  C   UNL     1      -1.397  12.125  22.410  0.00  0.00    +0.000 A 
ATOM     11  C   UNL     1      -2.556  11.978  23.191  0.00  0.00    +0.000 A 
BRANCH   6  13
ATOM     12  C   UNL     1      -4.895  12.315  24.886  0.00  0.00    +0.000 C 
ATOM     13  O   UNL     1      -4.945  12.504  23.476  0.00  0.00    +0.000 OA
ENDBRANCH   6  13
BRANCH  10  14
ATOM     14  O   UNL     1      -0.214  11.479  22.680  0.00  0.00    +0.000 OA
ATOM     15  C   UNL     1      -0.202  10.058  22.662  0.00  0.00    +0.000 C 
ENDBRANCH  10  14
ENDBRANCH   1   9
BRANCH   2  16
ATOM     16  C   UNL     1      -0.844  11.735  18.418  0.00  0.00    +0.000 C 
ATOM     17  O   UNL     1      -1.098  10.564  18.647  0.00  0.00    +0.000 OA
BRANCH  16  18
ATOM     18  O   UNL     1      -1.428  12.392  17.378  0.00  0.00    +0.000 OA
ATOM     19  H   UNL     1      -0.804  12.564  16.648  0.00  0.00    +0.000 HD
ENDBRANCH  16  18
ENDBRANCH   2  16
BRANCH   5  20
ATOM     20  C   UNL     1       1.035  14.882  21.974  0.00  0.00    +0.000 C 
ATOM     21  N   UNL     1       1.074  15.591  22.889  0.00  0.00    +0.000 NA
ENDBRANCH   5  20
BRANCH   4  22
ATOM     22  S   UNL     1       3.594  14.682  19.934  0.00  0.00    +0.000 S 
BRANCH  22  23
ATOM     23  C   UNL     1       3.425  16.078  18.758  0.00  0.00    +0.000 C 
ATOM     24  C   UNL     1       3.615  15.652  17.304  0.00  0.00    +0.000 C 
ATOM     25  C   UNL     1       2.025  16.672  18.935  0.00  0.00    +0.000 C 
ENDBRANCH  22  23
ENDBRANCH   4  22
TORSDOF 8
ENDMDL
MODEL 8
REMARK VINA RESULT:      -5.2      6.157     10.424
REMARK  Name = 
REMARK  12 active torsions:
REMARK  status: ('A' for Active; 'I' for Inactive)
REMARK    1  A    between atoms: C_1  and  O_2
REMARK    2  A    between atoms: O_2  and  C_3
REMARK    3  A    between atoms: C_6  and  C_7
REMARK    4  A    between atoms: C_8  and  C_9
REMARK    5  A    between atoms: C_9  and  O_11
REMARK    6  A    between atoms: C_13  and  S_14
REMARK    7  A    between atoms: S_14  and  C_15
REMARK    8  A    between atoms: C_15  and  C_16
REMARK    9  A    between atoms: C_15  and  C_17
REMARK   10  A    between atoms: C_18  and  C_19
REMARK   11  A    between atoms: C_21  and  O_22
REMARK   12  A    between atoms: O_22  and  C_23
REMARK                            x       y       z     vdW  Elec       q    Type
REMARK                         _______ _______ _______ _____ _____    ______ ____
ROOT
ATOM      1  C   UNL     1      -1.720  11.827  19.949  0.00  0.00    +0.000 A 
ATOM      2  C   UNL     1      -1.717  12.347  21.242  0.00  0.00    +0.000 A 
ATOM      3  S   UNL     1      -3.265  12.937  21.695  0.00  0.00    +0.000 S 
ATOM      4  C   UNL     1      -3.964  12.534  20.196  0.00  0.00    +0.000 A 
ATOM      5  C   UNL     1      -3.023  12.033  19.320  0.00  0.00    +0.000 A 
ENDROOT
BRANCH   1   9
ATOM      6  C   UNL     1       1.757   9.983  18.176  0.00  0.00    +0.000 A 
ATOM      7  C   UNL     1       0.704   9.205  18.648  0.00  0.00    +0.000 A 
ATOM      8  C   UNL     1      -0.409   9.802  19.250  0.00  0.00    +0.000 A 
ATOM      9  C   UNL     1      -0.528  11.199  19.328  0.00  0.00    +0.000 A 
ATOM     10  C   UNL     1       0.521  11.986  18.791  0.00  0.00    +0.000 A 
ATOM     11  C   UNL     1       1.665  11.372  18.255  0.00  0.00    +0.000 A 
BRANCH   6  13
ATOM     12  C   UNL     1       2.822   7.872  17.899  0.00  0.00    +0.000 C 
ATOM     13  O   UNL     1       2.802   9.273  17.649  0.00  0.00    +0.000 OA
ENDBRANCH   6  13
BRANCH  10  14
ATOM     14  O   UNL     1       0.335  13.347  18.823  0.00  0.00    +0.000 OA
ATOM     15  C   UNL     1       1.482  14.186  18.791  0.00  0.00    +0.000 C 
ENDBRANCH  10  14
ENDBRANCH   1   9
BRANCH   2  16
ATOM     16  C   UNL     1      -0.658  12.416  22.238  0.00  0.00    +0.000 C 
ATOM     17  O   UNL     1      -0.497  11.660  23.182  0.00  0.00    +0.000 OA
BRANCH  16  18
ATOM     18  O   UNL     1       0.232  13.413  21.974  0.00  0.00    +0.000 OA
ATOM     19  H   UNL     1       1.041  13.343  22.516  0.00  0.00    +0.000 HD
ENDBRANCH  16  18
ENDBRANCH   2  16
BRANCH   5  20
ATOM     20  C   UNL     1      -3.335  11.756  17.940  0.00  0.00    +0.000 C 
ATOM     21  N   UNL     1      -3.564  11.554  16.822  0.00  0.00    +0.000 NA
ENDBRANCH   5  20
BRANCH   4  22
ATOM     22  S   UNL     1      -5.673  12.893  19.937  0.00  0.00    +0.000 S 
BRANCH  22  23
ATOM     23  C   UNL     1      -6.471  11.243  19.933  0.00  0.00    +0.000 C 
ATOM     24  C   UNL     1      -7.688  11.174  20.852  0.00  0.00    +0.000 C 
ATOM     25  C   UNL     1      -6.900  10.934  18.496  0.00  0.00    +0.000 C 
ENDBRANCH  22  23
ENDBRANCH   4  22
TORSDOF 8
ENDMDL
MODEL 9
REMARK VINA RESULT:      -5.2      7.751     10.618
REMARK  Name = 
REMARK  12 active torsions:
REMARK  status: ('A' for Active; 'I' for Inactive)
REMARK    1  A    between atoms: C_1  and  O_2
REMARK    2  A    between atoms: O_2  and  C_3
REMARK    3  A    between atoms: C_6  and  C_7
REMARK    4  A    between atoms: C_8  and  C_9
REMARK    5  A    between atoms: C_9  and  O_11
REMARK    6  A    between atoms: C_13  and  S_14
REMARK    7  A    between atoms: S_14  and  C_15
REMARK    8  A    between atoms: C_15  and  C_16
REMARK    9  A    between atoms: C_15  and  C_17
REMARK   10  A    between atoms: C_18  and  C_19
REMARK   11  A    between atoms: C_21  and  O_22
REMARK   12  A    between atoms: O_22  and  C_23
REMARK                            x       y       z     vdW  Elec       q    Type
REMARK                         _______ _______ _______ _____ _____    ______ ____
ROOT
ATOM      1  C   UNL     1      -2.660  12.048  18.870  0.00  0.00    +0.000 A 
ATOM      2  C   UNL     1      -3.284  11.431  17.786  0.00  0.00    +0.000 A 
ATOM      3  S   UNL     1      -4.983  11.324  18.006  0.00  0.00    +0.000 S 
ATOM      4  C   UNL     1      -4.931  12.072  19.534  0.00  0.00    +0.000 A 
ATOM      5  C   UNL     1      -3.632  12.330  19.924  0.00  0.00    +0.000 A 
ENDROOT
BRANCH   1   9
ATOM      6  C   UNL     1       1.580  12.848  18.963  0.00  0.00    +0.000 A 
ATOM      7  C   UNL     1       0.680  13.839  18.586  0.00  0.00    +0.000 A 
ATOM      8  C   UNL     1      -0.692  13.570  18.526  0.00  0.00    +0.000 A 
ATOM      9  C   UNL     1      -1.202  12.321  18.915  0.00  0.00    +0.000 A 
ATOM     10  C   UNL     1      -0.285  11.336  19.357  0.00  0.00    +0.000 A 
ATOM     11  C   UNL     1       1.096  11.597  19.342  0.00  0.00    +0.000 A 
BRANCH   6  13
ATOM     12  C   UNL     1       3.211  14.409  18.207  0.00  0.00    +0.000 C 
ATOM     13  O   UNL     1       2.895  13.230  18.938  0.00  0.00    +0.000 OA
ENDBRANCH   6  13
BRANCH  10  14
ATOM     14  O   UNL     1      -0.829  10.153  19.794  0.00  0.00    +0.000 OA
ATOM     15  C   UNL     1      -0.173   9.456  20.845  0.00  0.00    +0.000 C 
ENDBRANCH  10  14
ENDBRANCH   1   9
BRANCH   2  16
ATOM     16  C   UNL     1      -2.738  10.932  16.533  0.00  0.00    +0.000 C 
ATOM     17  O   UNL     1      -2.033   9.947  16.388  0.00  0.00    +0.000 OA
BRANCH  16  18
ATOM     18  O   UNL     1      -3.161  11.658  15.461  0.00  0.00    +0.000 OA
ATOM     19  H   UNL     1      -3.355  12.587  15.694  0.00  0.00    +0.000 HD
ENDBRANCH  16  18
ENDBRANCH   2  16
BRANCH   5  20
ATOM     20  C   UNL     1      -3.314  12.825  21.240  0.00  0.00    +0.000 C 
ATOM     21  N   UNL     1      -3.049  13.195  22.306  0.00  0.00    +0.000 NA
ENDBRANCH   5  20
BRANCH   4  22
ATOM     22  S   UNL     1      -6.443  12.303  20.414  0.00  0.00    +0.000 S 
BRANCH  22  23
ATOM     23  C   UNL     1      -7.140  13.837  19.692  0.00  0.00    +0.000 C 
ATOM     24  C   UNL     1      -6.073  14.885  19.389  0.00  0.00    +0.000 C 
ATOM     25  C   UNL     1      -7.863  13.457  18.397  0.00  0.00    +0.000 C 
ENDBRANCH  22  23
ENDBRANCH   4  22
TORSDOF 8
ENDMDL
