MODEL 1
REMARK VINA RESULT:      -9.1      0.000      0.000
REMARK  Name = 
REMARK  5 active torsions:
REMARK  status: ('A' for Active; 'I' for Inactive)
REMARK    1  A    between atoms: C_1  and  C_2
REMARK    2  A    between atoms: C_5  and  C_6
REMARK    3  A    between atoms: C_15  and  N_16
REMARK    4  A    between atoms: N_16  and  C_17
REMARK    5  A    between atoms: C_19  and  C_20
REMARK                            x       y       z     vdW  Elec       q    Type
REMARK                         _______ _______ _______ _____ _____    ______ ____
ROOT
ATOM      1  N   UNL     1       3.230   4.943  17.897  0.00  0.00    +0.000 N 
ATOM      2  H   UNL     1       2.606   4.679  17.140  0.00  0.00    +0.000 HD
ENDROOT
BRANCH   1   3
ATOM      3  C   UNL     1       4.548   5.005  17.366  0.00  0.00    +0.000 A 
ATOM      4  C   UNL     1       4.788   4.782  16.001  0.00  0.00    +0.000 A 
ATOM      5  C   UNL     1       6.083   4.743  15.479  0.00  0.00    +0.000 A 
ATOM      6  N   UNL     1       7.195   4.888  16.238  0.00  0.00    +0.000 NA
ATOM      7  C   UNL     1       6.937   5.076  17.544  0.00  0.00    +0.000 A 
ATOM      8  N   UNL     1       7.908   5.230  18.498  0.00  0.00    +0.000 N 
ATOM      9  C   UNL     1       7.328   5.373  19.731  0.00  0.00    +0.000 A 
ATOM     10  C   UNL     1       5.958   5.311  19.557  0.00  0.00    +0.000 A 
ATOM     11  C   UNL     1       5.699   5.133  18.168  0.00  0.00    +0.000 A 
ATOM     12  H   UNL     1       8.897   5.227  18.299  0.00  0.00    +0.000 HD
BRANCH   5  13
ATOM     13  C   UNL     1       6.304   4.430  14.057  0.00  0.00    +0.000 A 
ATOM     14  C   UNL     1       5.537   3.485  13.356  0.00  0.00    +0.000 A 
ATOM     15  C   UNL     1       5.871   3.127  12.052  0.00  0.00    +0.000 A 
ATOM     16  C   UNL     1       6.962   3.741  11.464  0.00  0.00    +0.000 A 
ATOM     17  N   UNL     1       7.706   4.686  12.074  0.00  0.00    +0.000 NA
ATOM     18  C   UNL     1       7.354   5.010  13.345  0.00  0.00    +0.000 A 
ENDBRANCH   5  13
ENDBRANCH   1   3
BRANCH   1  25
ATOM     19  C   UNL     1       2.315   4.264  20.655  0.00  0.00    +0.000 C 
ATOM     20  C   UNL     1       2.215   5.636  20.049  0.00  0.00    +0.000 A 
ATOM     21  C   UNL     1       1.663   6.657  20.843  0.00  0.00    +0.000 A 
ATOM     22  C   UNL     1       1.557   7.961  20.367  0.00  0.00    +0.000 A 
ATOM     23  C   UNL     1       1.926   8.262  19.060  0.00  0.00    +0.000 A 
ATOM     24  C   UNL     1       2.512   7.259  18.275  0.00  0.00    +0.000 A 
ATOM     25  C   UNL     1       2.625   5.930  18.730  0.00  0.00    +0.000 A 
BRANCH  23  26
ATOM     26  C   UNL     1       1.765   9.623  18.474  0.00  0.00    +0.000 C 
ATOM     27  O   UNL     1       2.225   9.806  17.347  0.00  0.00    +0.000 OA
ATOM     28  N   UNL     1       1.085  10.625  19.167  0.00  0.00    +0.000 N 
ATOM     29  C   UNL     1       0.404  10.511  20.463  0.00  0.00    +0.000 C 
ATOM     30  C   UNL     1      -0.900  11.310  20.503  0.00  0.00    +0.000 C 
ATOM     31  O   UNL     1      -0.698  12.666  20.094  0.00  0.00    +0.000 OA
ATOM     32  C   UNL     1      -0.184  12.711  18.754  0.00  0.00    +0.000 C 
ATOM     33  C   UNL     1       1.168  12.000  18.662  0.00  0.00    +0.000 C 
ENDBRANCH  23  26
ENDBRANCH   1  25
TORSDOF 4
ENDMDL
MODEL 2
REMARK VINA RESULT:      -9.0      2.141      3.850
REMARK  Name = 
REMARK  5 active torsions:
REMARK  status: ('A' for Active; 'I' for Inactive)
REMARK    1  A    between atoms: C_1  and  C_2
REMARK    2  A    between atoms: C_5  and  C_6
REMARK    3  A    between atoms: C_15  and  N_16
REMARK    4  A    between atoms: N_16  and  C_17
REMARK    5  A    between atoms: C_19  and  C_20
REMARK                            x       y       z     vdW  Elec       q    Type
REMARK                         _______ _______ _______ _____ _____    ______ ____
ROOT
ATOM      1  N   UNL     1       2.852   6.587  20.107  0.00  0.00    +0.000 N 
ATOM      2  H   UNL     1       2.611   6.183  21.008  0.00  0.00    +0.000 HD
ENDROOT
BRANCH   1   3
ATOM      3  C   UNL     1       3.067   5.513  19.198  0.00  0.00    +0.000 A 
ATOM      4  C   UNL     1       4.069   5.586  18.219  0.00  0.00    +0.000 A 
ATOM      5  C   UNL     1       4.230   4.585  17.256  0.00  0.00    +0.000 A 
ATOM      6  N   UNL     1       3.430   3.496  17.175  0.00  0.00    +0.000 NA
ATOM      7  C   UNL     1       2.463   3.465  18.109  0.00  0.00    +0.000 A 
ATOM      8  N   UNL     1       1.530   2.467  18.207  0.00  0.00    +0.000 N 
ATOM      9  C   UNL     1       0.670   2.736  19.239  0.00  0.00    +0.000 A 
ATOM     10  C   UNL     1       1.066   3.931  19.812  0.00  0.00    +0.000 A 
ATOM     11  C   UNL     1       2.212   4.397  19.107  0.00  0.00    +0.000 A 
ATOM     12  H   UNL     1       1.497   1.666  17.595  0.00  0.00    +0.000 HD
BRANCH   5  13
ATOM     13  C   UNL     1       5.243   4.728  16.197  0.00  0.00    +0.000 A 
ATOM     14  C   UNL     1       5.165   4.046  14.971  0.00  0.00    +0.000 A 
ATOM     15  C   UNL     1       6.214   4.109  14.057  0.00  0.00    +0.000 A 
ATOM     16  C   UNL     1       7.319   4.874  14.381  0.00  0.00    +0.000 A 
ATOM     17  N   UNL     1       7.428   5.584  15.522  0.00  0.00    +0.000 NA
ATOM     18  C   UNL     1       6.388   5.499  16.392  0.00  0.00    +0.000 A 
ENDBRANCH   5  13
ENDBRANCH   1   3
BRANCH   1  25
ATOM     19  C   UNL     1       2.889   7.888  17.422  0.00  0.00    +0.000 C 
ATOM     20  C   UNL     1       2.045   8.359  18.574  0.00  0.00    +0.000 A 
ATOM     21  C   UNL     1       1.220   9.476  18.358  0.00  0.00    +0.000 A 
ATOM     22  C   UNL     1       0.388   9.961  19.364  0.00  0.00    +0.000 A 
ATOM     23  C   UNL     1       0.419   9.392  20.633  0.00  0.00    +0.000 A 
ATOM     24  C   UNL     1       1.210   8.255  20.846  0.00  0.00    +0.000 A 
ATOM     25  C   UNL     1       2.066   7.748  19.847  0.00  0.00    +0.000 A 
BRANCH  23  26
ATOM     26  C   UNL     1      -0.393   9.917  21.767  0.00  0.00    +0.000 C 
ATOM     27  O   UNL     1      -0.684   9.125  22.663  0.00  0.00    +0.000 OA
ATOM     28  N   UNL     1      -0.769  11.260  21.819  0.00  0.00    +0.000 N 
ATOM     29  C   UNL     1      -0.404  12.326  20.876  0.00  0.00    +0.000 C 
ATOM     30  C   UNL     1      -0.127  13.653  21.585  0.00  0.00    +0.000 C 
ATOM     31  O   UNL     1      -1.202  14.019  22.455  0.00  0.00    +0.000 OA
ATOM     32  C   UNL     1      -1.398  13.008  23.456  0.00  0.00    +0.000 C 
ATOM     33  C   UNL     1      -1.765  11.667  22.815  0.00  0.00    +0.000 C 
ENDBRANCH  23  26
ENDBRANCH   1  25
TORSDOF 4
ENDMDL
MODEL 3
REMARK VINA RESULT:      -8.9      2.831      5.563
REMARK  Name = 
REMARK  5 active torsions:
REMARK  status: ('A' for Active; 'I' for Inactive)
REMARK    1  A    between atoms: C_1  and  C_2
REMARK    2  A    between atoms: C_5  and  C_6
REMARK    3  A    between atoms: C_15  and  N_16
REMARK    4  A    between atoms: N_16  and  C_17
REMARK    5  A    between atoms: C_19  and  C_20
REMARK                            x       y       z     vdW  Elec       q    Type
REMARK                         _______ _______ _______ _____ _____    ______ ____
ROOT
ATOM      1  N   UNL     1       1.299  10.044  17.705  0.00  0.00    +0.000 N 
ATOM      2  H   UNL     1       1.877  10.366  16.933  0.00  0.00    +0.000 HD
ENDROOT
BRANCH   1   3
ATOM      3  C   UNL     1       1.931   8.899  18.266  0.00  0.00    +0.000 A 
ATOM      4  C   UNL     1       2.797   8.104  17.500  0.00  0.00    +0.000 A 
ATOM      5  C   UNL     1       3.349   6.923  18.003  0.00  0.00    +0.000 A 
ATOM      6  N   UNL     1       3.078   6.444  19.241  0.00  0.00    +0.000 NA
ATOM      7  C   UNL     1       2.226   7.212  19.943  0.00  0.00    +0.000 A 
ATOM      8  N   UNL     1       1.799   6.914  21.209  0.00  0.00    +0.000 N 
ATOM      9  C   UNL     1       0.920   7.872  21.639  0.00  0.00    +0.000 A 
ATOM     10  C   UNL     1       0.786   8.803  20.625  0.00  0.00    +0.000 A 
ATOM     11  C   UNL     1       1.622   8.397  19.545  0.00  0.00    +0.000 A 
ATOM     12  H   UNL     1       2.096   6.100  21.726  0.00  0.00    +0.000 HD
BRANCH   5  13
ATOM     13  C   UNL     1       4.193   6.072  17.148  0.00  0.00    +0.000 A 
ATOM     14  C   UNL     1       4.118   4.670  17.157  0.00  0.00    +0.000 A 
ATOM     15  C   UNL     1       5.030   3.907  16.431  0.00  0.00    +0.000 A 
ATOM     16  C   UNL     1       5.993   4.567  15.689  0.00  0.00    +0.000 A 
ATOM     17  N   UNL     1       6.083   5.910  15.610  0.00  0.00    +0.000 NA
ATOM     18  C   UNL     1       5.180   6.624  16.331  0.00  0.00    +0.000 A 
ENDBRANCH   5  13
ENDBRANCH   1   3
BRANCH   1  25
ATOM     19  C   UNL     1      -1.644  10.452  17.974  0.00  0.00    +0.000 C 
ATOM     20  C   UNL     1      -0.610  11.340  18.608  0.00  0.00    +0.000 A 
ATOM     21  C   UNL     1      -1.070  12.421  19.381  0.00  0.00    +0.000 A 
ATOM     22  C   UNL     1      -0.179  13.277  20.023  0.00  0.00    +0.000 A 
ATOM     23  C   UNL     1       1.192  13.122  19.845  0.00  0.00    +0.000 A 
ATOM     24  C   UNL     1       1.659  12.026  19.107  0.00  0.00    +0.000 A 
ATOM     25  C   UNL     1       0.779  11.148  18.442  0.00  0.00    +0.000 A 
BRANCH  23  26
ATOM     26  C   UNL     1       2.189  14.053  20.446  0.00  0.00    +0.000 C 
ATOM     27  O   UNL     1       2.612  13.774  21.568  0.00  0.00    +0.000 OA
ATOM     28  N   UNL     1       2.644  15.169  19.742  0.00  0.00    +0.000 N 
ATOM     29  C   UNL     1       2.301  15.558  18.368  0.00  0.00    +0.000 C 
ATOM     30  C   UNL     1       3.503  16.129  17.613  0.00  0.00    +0.000 C 
ATOM     31  O   UNL     1       4.137  17.178  18.351  0.00  0.00    +0.000 OA
ATOM     32  C   UNL     1       4.596  16.687  19.620  0.00  0.00    +0.000 C 
ATOM     33  C   UNL     1       3.426  16.177  20.465  0.00  0.00    +0.000 C 
ENDBRANCH  23  26
ENDBRANCH   1  25
TORSDOF 4
ENDMDL
MODEL 4
REMARK VINA RESULT:      -8.8      1.415      1.779
REMARK  Name = 
REMARK  5 active torsions:
REMARK  status: ('A' for Active; 'I' for Inactive)
REMARK    1  A    between atoms: C_1  and  C_2
REMARK    2  A    between atoms: C_5  and  C_6
REMARK    3  A    between atoms: C_15  and  N_16
REMARK    4  A    between atoms: N_16  and  C_17
REMARK    5  A    between atoms: C_19  and  C_20
REMARK                            x       y       z     vdW  Elec       q    Type
REMARK                         _______ _______ _______ _____ _____    ______ ____
ROOT
ATOM      1  N   UNL     1       4.498   3.891  18.239  0.00  0.00    +0.000 N 
ATOM      2  H   UNL     1       4.141   2.999  17.907  0.00  0.00    +0.000 HD
ENDROOT
BRANCH   1   3
ATOM      3  C   UNL     1       5.234   4.483  17.175  0.00  0.00    +0.000 A 
ATOM      4  C   UNL     1       5.120   4.000  15.862  0.00  0.00    +0.000 A 
ATOM      5  C   UNL     1       5.907   4.503  14.823  0.00  0.00    +0.000 A 
ATOM      6  N   UNL     1       6.847   5.462  14.999  0.00  0.00    +0.000 NA
ATOM      7  C   UNL     1       6.952   5.888  16.270  0.00  0.00    +0.000 A 
ATOM      8  N   UNL     1       7.846   6.840  16.683  0.00  0.00    +0.000 N 
ATOM      9  C   UNL     1       7.726   7.034  18.033  0.00  0.00    +0.000 A 
ATOM     10  C   UNL     1       6.732   6.189  18.490  0.00  0.00    +0.000 A 
ATOM     11  C   UNL     1       6.226   5.463  17.374  0.00  0.00    +0.000 A 
ATOM     12  H   UNL     1       8.491   7.310  16.066  0.00  0.00    +0.000 HD
BRANCH   5  13
ATOM     13  C   UNL     1       5.817   3.922  13.472  0.00  0.00    +0.000 A 
ATOM     14  C   UNL     1       4.593   3.682  12.826  0.00  0.00    +0.000 A 
ATOM     15  C   UNL     1       4.555   3.007  11.608  0.00  0.00    +0.000 A 
ATOM     16  C   UNL     1       5.752   2.602  11.047  0.00  0.00    +0.000 A 
ATOM     17  N   UNL     1       6.957   2.845  11.601  0.00  0.00    +0.000 NA
ATOM     18  C   UNL     1       6.958   3.503  12.789  0.00  0.00    +0.000 A 
ENDBRANCH   5  13
ENDBRANCH   1   3
BRANCH   1  25
ATOM     19  C   UNL     1       3.321   2.555  20.633  0.00  0.00    +0.000 C 
ATOM     20  C   UNL     1       2.981   3.953  20.198  0.00  0.00    +0.000 A 
ATOM     21  C   UNL     1       2.057   4.668  20.980  0.00  0.00    +0.000 A 
ATOM     22  C   UNL     1       1.706   5.978  20.661  0.00  0.00    +0.000 A 
ATOM     23  C   UNL     1       2.208   6.577  19.509  0.00  0.00    +0.000 A 
ATOM     24  C   UNL     1       3.158   5.884  18.745  0.00  0.00    +0.000 A 
ATOM     25  C   UNL     1       3.525   4.556  19.043  0.00  0.00    +0.000 A 
BRANCH  23  26
ATOM     26  C   UNL     1       1.809   7.947  19.079  0.00  0.00    +0.000 C 
ATOM     27  O   UNL     1       1.911   8.210  17.881  0.00  0.00    +0.000 OA
ATOM     28  N   UNL     1       1.306   8.868  19.998  0.00  0.00    +0.000 N 
ATOM     29  C   UNL     1       1.037   8.650  21.425  0.00  0.00    +0.000 C 
ATOM     30  C   UNL     1      -0.241   9.354  21.887  0.00  0.00    +0.000 C 
ATOM     31  O   UNL     1      -0.241  10.737  21.521  0.00  0.00    +0.000 OA
ATOM     32  C   UNL     1      -0.141  10.875  20.095  0.00  0.00    +0.000 C 
ATOM     33  C   UNL     1       1.163  10.266  19.576  0.00  0.00    +0.000 C 
ENDBRANCH  23  26
ENDBRANCH   1  25
TORSDOF 4
ENDMDL
MODEL 5
REMARK VINA RESULT:      -8.7      3.074      6.304
REMARK  Name = 
REMARK  5 active torsions:
REMARK  status: ('A' for Active; 'I' for Inactive)
REMARK    1  A    between atoms: C_1  and  C_2
REMARK    2  A    between atoms: C_5  and  C_6
REMARK    3  A    between atoms: C_15  and  N_16
REMARK    4  A    between atoms: N_16  and  C_17
REMARK    5  A    between atoms: C_19  and  C_20
REMARK                            x       y       z     vdW  Elec       q    Type
REMARK                         _______ _______ _______ _____ _____    ______ ____
ROOT
ATOM      1  N   UNL     1       1.111  10.548  17.884  0.00  0.00    +0.000 N 
ATOM      2  H   UNL     1       1.562  10.644  16.978  0.00  0.00    +0.000 HD
ENDROOT
BRANCH   1   3
ATOM      3  C   UNL     1       1.637   9.382  18.506  0.00  0.00    +0.000 A 
ATOM      4  C   UNL     1       2.474   8.503  17.800  0.00  0.00    +0.000 A 
ATOM      5  C   UNL     1       2.922   7.304  18.362  0.00  0.00    +0.000 A 
ATOM      6  N   UNL     1       2.569   6.887  19.601  0.00  0.00    +0.000 NA
ATOM      7  C   UNL     1       1.747   7.735  20.244  0.00  0.00    +0.000 A 
ATOM      8  N   UNL     1       1.250   7.510  21.500  0.00  0.00    +0.000 N 
ATOM      9  C   UNL     1       0.425   8.541  21.864  0.00  0.00    +0.000 A 
ATOM     10  C   UNL     1       0.398   9.443  20.817  0.00  0.00    +0.000 A 
ATOM     11  C   UNL     1       1.244   8.945  19.786  0.00  0.00    +0.000 A 
ATOM     12  H   UNL     1       1.469   6.695  22.053  0.00  0.00    +0.000 HD
BRANCH   5  13
ATOM     13  C   UNL     1       3.736   6.369  17.569  0.00  0.00    +0.000 A 
ATOM     14  C   UNL     1       4.702   6.796  16.642  0.00  0.00    +0.000 A 
ATOM     15  C   UNL     1       5.350   5.877  15.819  0.00  0.00    +0.000 A 
ATOM     16  C   UNL     1       5.031   4.538  15.955  0.00  0.00    +0.000 A 
ATOM     17  N   UNL     1       4.145   4.069  16.857  0.00  0.00    +0.000 NA
ATOM     18  C   UNL     1       3.531   4.991  17.642  0.00  0.00    +0.000 A 
ENDBRANCH   5  13
ENDBRANCH   1   3
BRANCH   1  25
ATOM     19  C   UNL     1      -1.507  11.977  17.810  0.00  0.00    +0.000 C 
ATOM     20  C   UNL     1      -0.284  12.498  18.512  0.00  0.00    +0.000 A 
ATOM     21  C   UNL     1      -0.394  13.731  19.178  0.00  0.00    +0.000 A 
ATOM     22  C   UNL     1       0.684  14.272  19.874  0.00  0.00    +0.000 A 
ATOM     23  C   UNL     1       1.921  13.635  19.854  0.00  0.00    +0.000 A 
ATOM     24  C   UNL     1       2.029  12.388  19.224  0.00  0.00    +0.000 A 
ATOM     25  C   UNL     1       0.955  11.821  18.508  0.00  0.00    +0.000 A 
BRANCH  23  26
ATOM     26  C   UNL     1       3.127  14.206  20.516  0.00  0.00    +0.000 C 
ATOM     27  O   UNL     1       3.210  14.077  21.738  0.00  0.00    +0.000 OA
ATOM     28  N   UNL     1       4.131  14.824  19.769  0.00  0.00    +0.000 N 
ATOM     29  C   UNL     1       4.206  14.953  18.308  0.00  0.00    +0.000 C 
ATOM     30  C   UNL     1       5.633  14.778  17.785  0.00  0.00    +0.000 C 
ATOM     31  O   UNL     1       6.552  15.634  18.471  0.00  0.00    +0.000 OA
ATOM     32  C   UNL     1       6.550  15.341  19.877  0.00  0.00    +0.000 C 
ATOM     33  C   UNL     1       5.165  15.580  20.483  0.00  0.00    +0.000 C 
ENDBRANCH  23  26
ENDBRANCH   1  25
TORSDOF 4
ENDMDL
MODEL 6
REMARK VINA RESULT:      -8.7      2.788      5.805
REMARK  Name = 
REMARK  5 active torsions:
REMARK  status: ('A' for Active; 'I' for Inactive)
REMARK    1  A    between atoms: C_1  and  C_2
REMARK    2  A    between atoms: C_5  and  C_6
REMARK    3  A    between atoms: C_15  and  N_16
REMARK    4  A    between atoms: N_16  and  C_17
REMARK    5  A    between atoms: C_19  and  C_20
REMARK                            x       y       z     vdW  Elec       q    Type
REMARK                         _______ _______ _______ _____ _____    ______ ____
ROOT
ATOM      1  N   UNL     1       1.286  10.317  17.827  0.00  0.00    +0.000 N 
ATOM      2  H   UNL     1       2.032  10.765  17.302  0.00  0.00    +0.000 HD
ENDROOT
BRANCH   1   3
ATOM      3  C   UNL     1       1.825   9.140  18.419  0.00  0.00    +0.000 A 
ATOM      4  C   UNL     1       2.669   8.288  17.691  0.00  0.00    +0.000 A 
ATOM      5  C   UNL     1       3.128   7.079  18.222  0.00  0.00    +0.000 A 
ATOM      6  N   UNL     1       2.781   6.627  19.450  0.00  0.00    +0.000 NA
ATOM      7  C   UNL     1       1.952   7.451  20.115  0.00  0.00    +0.000 A 
ATOM      8  N   UNL     1       1.458   7.189  21.365  0.00  0.00    +0.000 N 
ATOM      9  C   UNL     1       0.624   8.203  21.756  0.00  0.00    +0.000 A 
ATOM     10  C   UNL     1       0.587   9.131  20.732  0.00  0.00    +0.000 A 
ATOM     11  C   UNL     1       1.437   8.667  19.688  0.00  0.00    +0.000 A 
ATOM     12  H   UNL     1       1.685   6.362  21.897  0.00  0.00    +0.000 HD
BRANCH   5  13
ATOM     13  C   UNL     1       3.951   6.172  17.404  0.00  0.00    +0.000 A 
ATOM     14  C   UNL     1       4.854   6.630  16.431  0.00  0.00    +0.000 A 
ATOM     15  C   UNL     1       5.508   5.732  15.591  0.00  0.00    +0.000 A 
ATOM     16  C   UNL     1       5.259   4.381  15.756  0.00  0.00    +0.000 A 
ATOM     17  N   UNL     1       4.435   3.884  16.701  0.00  0.00    +0.000 NA
ATOM     18  C   UNL     1       3.813   4.787  17.502  0.00  0.00    +0.000 A 
ENDBRANCH   5  13
ENDBRANCH   1   3
BRANCH   1  25
ATOM     19  C   UNL     1      -1.691  10.226  17.653  0.00  0.00    +0.000 C 
ATOM     20  C   UNL     1      -0.925  11.244  18.453  0.00  0.00    +0.000 A 
ATOM     21  C   UNL     1      -1.669  12.200  19.166  0.00  0.00    +0.000 A 
ATOM     22  C   UNL     1      -1.038  13.162  19.952  0.00  0.00    +0.000 A 
ATOM     23  C   UNL     1       0.351  13.241  19.981  0.00  0.00    +0.000 A 
ATOM     24  C   UNL     1       1.098  12.268  19.304  0.00  0.00    +0.000 A 
ATOM     25  C   UNL     1       0.485  11.289  18.497  0.00  0.00    +0.000 A 
BRANCH  23  26
ATOM     26  C   UNL     1       1.077  14.296  20.744  0.00  0.00    +0.000 C 
ATOM     27  O   UNL     1       1.427  14.017  21.891  0.00  0.00    +0.000 OA
ATOM     28  N   UNL     1       1.375  15.527  20.159  0.00  0.00    +0.000 N 
ATOM     29  C   UNL     1       1.108  15.947  18.777  0.00  0.00    +0.000 C 
ATOM     30  C   UNL     1       2.247  16.790  18.200  0.00  0.00    +0.000 C 
ATOM     31  O   UNL     1       2.583  17.881  19.062  0.00  0.00    +0.000 OA
ATOM     32  C   UNL     1       2.994  17.391  20.348  0.00  0.00    +0.000 C 
ATOM     33  C   UNL     1       1.865  16.607  21.022  0.00  0.00    +0.000 C 
ENDBRANCH  23  26
ENDBRANCH   1  25
TORSDOF 4
ENDMDL
MODEL 7
REMARK VINA RESULT:      -8.7      3.033      6.392
REMARK  Name = 
REMARK  5 active torsions:
REMARK  status: ('A' for Active; 'I' for Inactive)
REMARK    1  A    between atoms: C_1  and  C_2
REMARK    2  A    between atoms: C_5  and  C_6
REMARK    3  A    between atoms: C_15  and  N_16
REMARK    4  A    between atoms: N_16  and  C_17
REMARK    5  A    between atoms: C_19  and  C_20
REMARK                            x       y       z     vdW  Elec       q    Type
REMARK                         _______ _______ _______ _____ _____    ______ ____
ROOT
ATOM      1  N   UNL     1       0.431  10.764  18.124  0.00  0.00    +0.000 N 
ATOM      2  H   UNL     1       1.110  11.510  17.995  0.00  0.00    +0.000 HD
ENDROOT
BRANCH   1   3
ATOM      3  C   UNL     1       1.088   9.694  18.792  0.00  0.00    +0.000 A 
ATOM      4  C   UNL     1       1.834   8.746  18.076  0.00  0.00    +0.000 A 
ATOM      5  C   UNL     1       2.405   7.635  18.703  0.00  0.00    +0.000 A 
ATOM      6  N   UNL     1       2.266   7.373  20.024  0.00  0.00    +0.000 NA
ATOM      7  C   UNL     1       1.526   8.284  20.680  0.00  0.00    +0.000 A 
ATOM      8  N   UNL     1       1.241   8.214  22.018  0.00  0.00    +0.000 N 
ATOM      9  C   UNL     1       0.448   9.270  22.379  0.00  0.00    +0.000 A 
ATOM     10  C   UNL     1       0.225  10.032  21.247  0.00  0.00    +0.000 A 
ATOM     11  C   UNL     1       0.916   9.419  20.163  0.00  0.00    +0.000 A 
ATOM     12  H   UNL     1       1.571   7.479  22.625  0.00  0.00    +0.000 HD
BRANCH   5  13
ATOM     13  C   UNL     1       3.117   6.618  17.911  0.00  0.00    +0.000 A 
ATOM     14  C   UNL     1       2.771   5.256  17.929  0.00  0.00    +0.000 A 
ATOM     15  C   UNL     1       3.558   4.315  17.270  0.00  0.00    +0.000 A 
ATOM     16  C   UNL     1       4.673   4.760  16.583  0.00  0.00    +0.000 A 
ATOM     17  N   UNL     1       5.027   6.059  16.496  0.00  0.00    +0.000 NA
ATOM     18  C   UNL     1       4.239   6.949  17.151  0.00  0.00    +0.000 A 
ENDBRANCH   5  13
ENDBRANCH   1   3
BRANCH   1  25
ATOM     19  C   UNL     1      -2.059   9.720  16.854  0.00  0.00    +0.000 C 
ATOM     20  C   UNL     1      -2.038  10.795  17.905  0.00  0.00    +0.000 A 
ATOM     21  C   UNL     1      -3.273  11.327  18.313  0.00  0.00    +0.000 A 
ATOM     22  C   UNL     1      -3.344  12.308  19.299  0.00  0.00    +0.000 A 
ATOM     23  C   UNL     1      -2.178  12.838  19.844  0.00  0.00    +0.000 A 
ATOM     24  C   UNL     1      -0.945  12.287  19.470  0.00  0.00    +0.000 A 
ATOM     25  C   UNL     1      -0.846  11.298  18.471  0.00  0.00    +0.000 A 
BRANCH  23  26
ATOM     26  C   UNL     1      -2.192  13.941  20.847  0.00  0.00    +0.000 C 
ATOM     27  O   UNL     1      -1.965  15.078  20.433  0.00  0.00    +0.000 OA
ATOM     28  N   UNL     1      -2.489  13.688  22.187  0.00  0.00    +0.000 N 
ATOM     29  C   UNL     1      -2.875  12.406  22.789  0.00  0.00    +0.000 C 
ATOM     30  C   UNL     1      -3.953  12.573  23.862  0.00  0.00    +0.000 C 
ATOM     31  O   UNL     1      -3.581  13.558  24.831  0.00  0.00    +0.000 OA
ATOM     32  C   UNL     1      -3.377  14.830  24.196  0.00  0.00    +0.000 C 
ATOM     33  C   UNL     1      -2.248  14.753  23.166  0.00  0.00    +0.000 C 
ENDBRANCH  23  26
ENDBRANCH   1  25
TORSDOF 4
ENDMDL
MODEL 8
REMARK VINA RESULT:      -8.7      1.230      1.635
REMARK  Name = 
REMARK  5 active torsions:
REMARK  status: ('A' for Active; 'I' for Inactive)
REMARK    1  A    between atoms: C_1  and  C_2
REMARK    2  A    between atoms: C_5  and  C_6
REMARK    3  A    between atoms: C_15  and  N_16
REMARK    4  A    between atoms: N_16  and  C_17
REMARK    5  A    between atoms: C_19  and  C_20
REMARK                            x       y       z     vdW  Elec       q    Type
REMARK                         _______ _______ _______ _____ _____    ______ ____
ROOT
ATOM      1  N   UNL     1       3.299   4.671  17.567  0.00  0.00    +0.000 N 
ATOM      2  H   UNL     1       2.702   4.763  16.750  0.00  0.00    +0.000 HD
ENDROOT
BRANCH   1   3
ATOM      3  C   UNL     1       4.642   4.875  17.143  0.00  0.00    +0.000 A 
ATOM      4  C   UNL     1       5.013   4.685  15.803  0.00  0.00    +0.000 A 
ATOM      5  C   UNL     1       6.344   4.785  15.388  0.00  0.00    +0.000 A 
ATOM      6  N   UNL     1       7.369   5.043  16.234  0.00  0.00    +0.000 NA
ATOM      7  C   UNL     1       6.988   5.195  17.514  0.00  0.00    +0.000 A 
ATOM      8  N   UNL     1       7.857   5.445  18.543  0.00  0.00    +0.000 N 
ATOM      9  C   UNL     1       7.168   5.519  19.724  0.00  0.00    +0.000 A 
ATOM     10  C   UNL     1       5.830   5.315  19.441  0.00  0.00    +0.000 A 
ATOM     11  C   UNL     1       5.704   5.118  18.036  0.00  0.00    +0.000 A 
ATOM     12  H   UNL     1       8.854   5.547  18.424  0.00  0.00    +0.000 HD
BRANCH   5  13
ATOM     13  C   UNL     1       6.709   4.506  13.989  0.00  0.00    +0.000 A 
ATOM     14  C   UNL     1       7.611   5.302  13.263  0.00  0.00    +0.000 A 
ATOM     15  C   UNL     1       7.821   5.077  11.904  0.00  0.00    +0.000 A 
ATOM     16  C   UNL     1       7.134   4.040  11.299  0.00  0.00    +0.000 A 
ATOM     17  N   UNL     1       6.291   3.218  11.957  0.00  0.00    +0.000 NA
ATOM     18  C   UNL     1       6.108   3.466  13.279  0.00  0.00    +0.000 A 
ENDBRANCH   5  13
ENDBRANCH   1   3
BRANCH   1  25
ATOM     19  C   UNL     1       2.741   3.070  20.022  0.00  0.00    +0.000 C 
ATOM     20  C   UNL     1       2.447   4.539  19.890  0.00  0.00    +0.000 A 
ATOM     21  C   UNL     1       1.884   5.189  21.002  0.00  0.00    +0.000 A 
ATOM     22  C   UNL     1       1.605   6.553  20.972  0.00  0.00    +0.000 A 
ATOM     23  C   UNL     1       1.808   7.284  19.806  0.00  0.00    +0.000 A 
ATOM     24  C   UNL     1       2.404   6.652  18.706  0.00  0.00    +0.000 A 
ATOM     25  C   UNL     1       2.690   5.272  18.708  0.00  0.00    +0.000 A 
BRANCH  23  26
ATOM     26  C   UNL     1       1.457   8.728  19.694  0.00  0.00    +0.000 C 
ATOM     27  O   UNL     1       1.458   9.220  18.565  0.00  0.00    +0.000 OA
ATOM     28  N   UNL     1       1.106   9.471  20.822  0.00  0.00    +0.000 N 
ATOM     29  C   UNL     1       0.966   8.986  22.201  0.00  0.00    +0.000 C 
ATOM     30  C   UNL     1      -0.213   9.639  22.925  0.00  0.00    +0.000 C 
ATOM     31  O   UNL     1      -0.160  11.066  22.836  0.00  0.00    +0.000 OA
ATOM     32  C   UNL     1      -0.193  11.480  21.461  0.00  0.00    +0.000 C 
ATOM     33  C   UNL     1       1.013  10.929  20.695  0.00  0.00    +0.000 C 
ENDBRANCH  23  26
ENDBRANCH   1  25
TORSDOF 4
ENDMDL
MODEL 9
REMARK VINA RESULT:      -8.7      3.176      6.375
REMARK  Name = 
REMARK  5 active torsions:
REMARK  status: ('A' for Active; 'I' for Inactive)
REMARK    1  A    between atoms: C_1  and  C_2
REMARK    2  A    between atoms: C_5  and  C_6
REMARK    3  A    between atoms: C_15  and  N_16
REMARK    4  A    between atoms: N_16  and  C_17
REMARK    5  A    between atoms: C_19  and  C_20
REMARK                            x       y       z     vdW  Elec       q    Type
REMARK                         _______ _______ _______ _____ _____    ______ ____
ROOT
ATOM      1  N   UNL     1       0.713  10.594  17.884  0.00  0.00    +0.000 N 
ATOM      2  H   UNL     1       0.975  10.493  16.907  0.00  0.00    +0.000 HD
ENDROOT
BRANCH   1   3
ATOM      3  C   UNL     1       1.303   9.515  18.600  0.00  0.00    +0.000 A 
ATOM      4  C   UNL     1       2.014   8.507  17.930  0.00  0.00    +0.000 A 
ATOM      5  C   UNL     1       2.516   7.390  18.603  0.00  0.00    +0.000 A 
ATOM      6  N   UNL     1       2.339   7.179  19.929  0.00  0.00    +0.000 NA
ATOM      7  C   UNL     1       1.633   8.148  20.540  0.00  0.00    +0.000 A 
ATOM      8  N   UNL     1       1.319   8.135  21.873  0.00  0.00    +0.000 N 
ATOM      9  C   UNL     1       0.573   9.241  22.184  0.00  0.00    +0.000 A 
ATOM     10  C   UNL     1       0.411   9.976  21.024  0.00  0.00    +0.000 A 
ATOM     11  C   UNL     1       1.091   9.293  19.974  0.00  0.00    +0.000 A 
ATOM     12  H   UNL     1       1.600   7.405  22.510  0.00  0.00    +0.000 HD
BRANCH   5  13
ATOM     13  C   UNL     1       3.191   6.314  17.859  0.00  0.00    +0.000 A 
ATOM     14  C   UNL     1       2.761   4.977  17.894  0.00  0.00    +0.000 A 
ATOM     15  C   UNL     1       3.512   3.974  17.284  0.00  0.00    +0.000 A 
ATOM     16  C   UNL     1       4.675   4.335  16.628  0.00  0.00    +0.000 A 
ATOM     17  N   UNL     1       5.111   5.607  16.526  0.00  0.00    +0.000 NA
ATOM     18  C   UNL     1       4.357   6.559  17.133  0.00  0.00    +0.000 A 
ENDBRANCH   5  13
ENDBRANCH   1   3
BRANCH   1  25
ATOM     19  C   UNL     1      -1.801  12.044  18.574  0.00  0.00    +0.000 C 
ATOM     20  C   UNL     1      -0.430  12.659  18.638  0.00  0.00    +0.000 A 
ATOM     21  C   UNL     1      -0.339  13.997  19.059  0.00  0.00    +0.000 A 
ATOM     22  C   UNL     1       0.895  14.634  19.171  0.00  0.00    +0.000 A 
ATOM     23  C   UNL     1       2.060  13.975  18.789  0.00  0.00    +0.000 A 
ATOM     24  C   UNL     1       1.981  12.630  18.404  0.00  0.00    +0.000 A 
ATOM     25  C   UNL     1       0.745  11.964  18.277  0.00  0.00    +0.000 A 
BRANCH  23  26
ATOM     26  C   UNL     1       3.397  14.632  18.816  0.00  0.00    +0.000 C 
ATOM     27  O   UNL     1       3.785  15.159  17.773  0.00  0.00    +0.000 OA
ATOM     28  N   UNL     1       4.152  14.675  19.989  0.00  0.00    +0.000 N 
ATOM     29  C   UNL     1       3.765  14.180  21.317  0.00  0.00    +0.000 C 
ATOM     30  C   UNL     1       4.242  15.106  22.439  0.00  0.00    +0.000 C 
ATOM     31  O   UNL     1       5.641  15.386  22.330  0.00  0.00    +0.000 OA
ATOM     32  C   UNL     1       5.925  16.020  21.073  0.00  0.00    +0.000 C 
ATOM     33  C   UNL     1       5.550  15.108  19.903  0.00  0.00    +0.000 C 
ENDBRANCH  23  26
ENDBRANCH   1  25
TORSDOF 4
ENDMDL
