MODEL 1
REMARK VINA RESULT:      -8.1      0.000      0.000
REMARK  Name = 
REMARK  17 active torsions:
REMARK  status: ('A' for Active; 'I' for Inactive)
REMARK    1  A    between atoms: C_1  and  C_2
REMARK    2  A    between atoms: C_2  and  C_3
REMARK    3  A    between atoms: C_3  and  CA_4
REMARK    4  A    between atoms: CA_4  and  N_5
REMARK    5  A    between atoms: CA_4  and  C_31
REMARK    6  A    between atoms: C_6  and  C_8
REMARK    7  A    between atoms: C_8  and  C_9
REMARK    8  A    between atoms: C_8  and  C_19
REMARK    9  A    between atoms: C_9  and  O_10
REMARK   10  A    between atoms: O_10  and  C_11
REMARK   11  A    between atoms: C_11  and  C_13
REMARK   12  A    between atoms: C_19  and  C_20
REMARK   13  A    between atoms: C_20  and  C_22
REMARK   14  A    between atoms: C_22  and  N_23
REMARK   15  A    between atoms: C_22  and  C_24
REMARK   16  A    between atoms: C_24  and  C_25
REMARK   17  A    between atoms: C_31  and  OXT_33
REMARK                            x       y       z     vdW  Elec       q    Type
REMARK                         _______ _______ _______ _____ _____    ______ ____
ROOT
ATOM      1  C   UNL     1       4.058   6.673  18.190  0.00  0.00    +0.000 C 
ENDROOT
BRANCH   1   3
ATOM      2  N   UNL     1       2.572   4.782  18.594  0.00  0.00    +0.000 N 
ATOM      3  C   UNL     1       3.822   5.309  18.811  0.00  0.00    +0.000 C 
ATOM      4  O   UNL     1       4.695   4.722  19.443  0.00  0.00    +0.000 OA
ATOM      5  H   UNL     1       1.860   5.348  18.135  0.00  0.00    +0.000 HD
BRANCH   2   6
ATOM      6  CA  UNL     1       2.118   3.573  19.273  0.00  0.00    +0.000 C 
BRANCH   6   7
ATOM      7  C   UNL     1       1.575   2.620  18.202  0.00  0.00    +0.000 C 
ATOM      8  O   UNL     1       2.204   2.262  17.217  0.00  0.00    +0.000 OA
BRANCH   7   9
ATOM      9  OXT UNL     1       0.321   2.170  18.456  0.00  0.00    +0.000 OA
ATOM     10  HXT UNL     1      -0.244   2.099  17.663  0.00  0.00    +0.000 HD
ENDBRANCH   7   9
ENDBRANCH   6   7
BRANCH   6  11
ATOM     11  C   UNL     1       1.034   3.863  20.326  0.00  0.00    +0.000 C 
BRANCH  11  13
ATOM     12  C   UNL     1       2.655   2.416  21.639  0.00  0.00    +0.000 C 
ATOM     13  C   UNL     1       1.338   3.171  21.662  0.00  0.00    +0.000 C 
ENDBRANCH  11  13
ENDBRANCH   6  11
ENDBRANCH   2   6
ENDBRANCH   1   3
BRANCH   1  14
ATOM     14  C   UNL     1       4.798   6.522  16.853  0.00  0.00    +0.000 C 
BRANCH  14  15
ATOM     15  C   UNL     1       6.307   6.602  17.011  0.00  0.00    +0.000 C 
ATOM     16  O   UNL     1       6.892   7.674  17.160  0.00  0.00    +0.000 OA
BRANCH  15  17
ATOM     17  C   UNL     1       7.069   5.276  16.829  0.00  0.00    +0.000 C 
BRANCH  17  18
ATOM     18  N   UNL     1       7.372   4.729  18.168  0.00  0.00    +0.000 NA
ATOM     19  H   UNL     1       8.131   4.047  18.074  0.00  0.00    +0.000 HD
ATOM     20  H   UNL     1       6.572   4.206  18.524  0.00  0.00    +0.000 HD
ENDBRANCH  17  18
BRANCH  17  21
ATOM     21  C   UNL     1       6.242   4.266  16.014  0.00  0.00    +0.000 C 
BRANCH  21  22
ATOM     22  C   UNL     1       6.492   4.254  14.519  0.00  0.00    +0.000 A 
ATOM     23  C   UNL     1       5.744   3.473  13.628  0.00  0.00    +0.000 A 
ATOM     24  C   UNL     1       6.041   3.467  12.262  0.00  0.00    +0.000 A 
ATOM     25  C   UNL     1       7.060   4.274  11.765  0.00  0.00    +0.000 A 
ATOM     26  C   UNL     1       7.769   5.101  12.631  0.00  0.00    +0.000 A 
ATOM     27  C   UNL     1       7.495   5.085  13.998  0.00  0.00    +0.000 A 
ENDBRANCH  21  22
ENDBRANCH  17  21
ENDBRANCH  15  17
ENDBRANCH  14  15
ENDBRANCH   1  14
BRANCH   1  28
ATOM     28  C   UNL     1       2.698   7.346  17.979  0.00  0.00    +0.000 C 
BRANCH  28  29
ATOM     29  O   UNL     1       2.212   7.931  19.203  0.00  0.00    +0.000 OA
BRANCH  29  30
ATOM     30  C   UNL     1       1.445   9.035  19.042  0.00  0.00    +0.000 C 
ATOM     31  O   UNL     1       1.251   9.609  17.985  0.00  0.00    +0.000 OA
BRANCH  30  32
ATOM     32  C   UNL     1       0.818   9.451  20.326  0.00  0.00    +0.000 A 
ATOM     33  C   UNL     1       0.118  10.662  20.348  0.00  0.00    +0.000 A 
ATOM     34  C   UNL     1      -0.487  11.108  21.526  0.00  0.00    +0.000 A 
ATOM     35  C   UNL     1      -0.397  10.341  22.687  0.00  0.00    +0.000 A 
ATOM     36  C   UNL     1       0.293   9.130  22.671  0.00  0.00    +0.000 A 
ATOM     37  C   UNL     1       0.903   8.679  21.496  0.00  0.00    +0.000 A 
ENDBRANCH  30  32
ENDBRANCH  29  30
ENDBRANCH  28  29
ENDBRANCH   1  28
TORSDOF 16
ENDMDL
MODEL 2
REMARK VINA RESULT:      -7.9      1.361      1.967
REMARK  Name = 
REMARK  17 active torsions:
REMARK  status: ('A' for Active; 'I' for Inactive)
REMARK    1  A    between atoms: C_1  and  C_2
REMARK    2  A    between atoms: C_2  and  C_3
REMARK    3  A    between atoms: C_3  and  CA_4
REMARK    4  A    between atoms: CA_4  and  N_5
REMARK    5  A    between atoms: CA_4  and  C_31
REMARK    6  A    between atoms: C_6  and  C_8
REMARK    7  A    between atoms: C_8  and  C_9
REMARK    8  A    between atoms: C_8  and  C_19
REMARK    9  A    between atoms: C_9  and  O_10
REMARK   10  A    between atoms: O_10  and  C_11
REMARK   11  A    between atoms: C_11  and  C_13
REMARK   12  A    between atoms: C_19  and  C_20
REMARK   13  A    between atoms: C_20  and  C_22
REMARK   14  A    between atoms: C_22  and  N_23
REMARK   15  A    between atoms: C_22  and  C_24
REMARK   16  A    between atoms: C_24  and  C_25
REMARK   17  A    between atoms: C_31  and  OXT_33
REMARK                            x       y       z     vdW  Elec       q    Type
REMARK                         _______ _______ _______ _____ _____    ______ ____
ROOT
ATOM      1  C   UNL     1       3.662   6.806  18.164  0.00  0.00    +0.000 C 
ENDROOT
BRANCH   1   3
ATOM      2  N   UNL     1       3.332   4.816  19.535  0.00  0.00    +0.000 N 
ATOM      3  C   UNL     1       2.890   5.531  18.448  0.00  0.00    +0.000 C 
ATOM      4  O   UNL     1       1.934   5.183  17.762  0.00  0.00    +0.000 OA
ATOM      5  H   UNL     1       4.180   5.107  20.017  0.00  0.00    +0.000 HD
BRANCH   2   6
ATOM      6  CA  UNL     1       2.826   3.481  19.834  0.00  0.00    +0.000 C 
BRANCH   6   7
ATOM      7  C   UNL     1       1.795   3.620  20.961  0.00  0.00    +0.000 C 
ATOM      8  O   UNL     1       1.974   3.234  22.108  0.00  0.00    +0.000 OA
BRANCH   7   9
ATOM      9  OXT UNL     1       0.654   4.247  20.584  0.00  0.00    +0.000 OA
ATOM     10  HXT UNL     1       0.536   4.310  19.617  0.00  0.00    +0.000 HD
ENDBRANCH   7   9
ENDBRANCH   6   7
BRANCH   6  11
ATOM     11  C   UNL     1       3.944   2.510  20.255  0.00  0.00    +0.000 C 
BRANCH  11  13
ATOM     12  C   UNL     1       3.401   1.686  17.916  0.00  0.00    +0.000 C 
ATOM     13  C   UNL     1       4.215   1.453  19.176  0.00  0.00    +0.000 C 
ENDBRANCH  11  13
ENDBRANCH   6  11
ENDBRANCH   2   6
ENDBRANCH   1   3
BRANCH   1  14
ATOM     14  C   UNL     1       4.532   6.627  16.913  0.00  0.00    +0.000 C 
BRANCH  14  15
ATOM     15  C   UNL     1       5.987   6.348  17.251  0.00  0.00    +0.000 C 
ATOM     16  O   UNL     1       6.768   7.245  17.564  0.00  0.00    +0.000 OA
BRANCH  15  17
ATOM     17  C   UNL     1       6.457   4.897  17.036  0.00  0.00    +0.000 C 
BRANCH  17  18
ATOM     18  N   UNL     1       6.315   4.171  18.316  0.00  0.00    +0.000 NA
ATOM     19  H   UNL     1       7.172   4.305  18.859  0.00  0.00    +0.000 HD
ATOM     20  H   UNL     1       6.248   3.167  18.146  0.00  0.00    +0.000 HD
ENDBRANCH  17  18
BRANCH  17  21
ATOM     21  C   UNL     1       5.635   4.203  15.934  0.00  0.00    +0.000 C 
BRANCH  21  22
ATOM     22  C   UNL     1       6.219   4.257  14.537  0.00  0.00    +0.000 A 
ATOM     23  C   UNL     1       7.321   5.055  14.201  0.00  0.00    +0.000 A 
ATOM     24  C   UNL     1       7.796   5.099  12.888  0.00  0.00    +0.000 A 
ATOM     25  C   UNL     1       7.203   4.315  11.903  0.00  0.00    +0.000 A 
ATOM     26  C   UNL     1       6.147   3.472  12.236  0.00  0.00    +0.000 A 
ATOM     27  C   UNL     1       5.652   3.449  13.540  0.00  0.00    +0.000 A 
ENDBRANCH  21  22
ENDBRANCH  17  21
ENDBRANCH  15  17
ENDBRANCH  14  15
ENDBRANCH   1  14
BRANCH   1  28
ATOM     28  C   UNL     1       2.654   7.942  17.960  0.00  0.00    +0.000 C 
BRANCH  28  29
ATOM     29  O   UNL     1       1.938   8.226  19.178  0.00  0.00    +0.000 OA
BRANCH  29  30
ATOM     30  C   UNL     1       1.277   9.408  19.188  0.00  0.00    +0.000 C 
ATOM     31  O   UNL     1       1.153  10.153  18.232  0.00  0.00    +0.000 OA
BRANCH  30  32
ATOM     32  C   UNL     1       0.671   9.678  20.520  0.00  0.00    +0.000 A 
ATOM     33  C   UNL     1      -0.291  10.691  20.606  0.00  0.00    +0.000 A 
ATOM     34  C   UNL     1      -0.891  10.993  21.831  0.00  0.00    +0.000 A 
ATOM     35  C   UNL     1      -0.533  10.282  22.975  0.00  0.00    +0.000 A 
ATOM     36  C   UNL     1       0.420   9.268  22.896  0.00  0.00    +0.000 A 
ATOM     37  C   UNL     1       1.026   8.961  21.674  0.00  0.00    +0.000 A 
ENDBRANCH  30  32
ENDBRANCH  29  30
ENDBRANCH  28  29
ENDBRANCH   1  28
TORSDOF 16
ENDMDL
MODEL 3
REMARK VINA RESULT:      -7.3      1.296      2.080
REMARK  Name = 
REMARK  17 active torsions:
REMARK  status: ('A' for Active; 'I' for Inactive)
REMARK    1  A    between atoms: C_1  and  C_2
REMARK    2  A    between atoms: C_2  and  C_3
REMARK    3  A    between atoms: C_3  and  CA_4
REMARK    4  A    between atoms: CA_4  and  N_5
REMARK    5  A    between atoms: CA_4  and  C_31
REMARK    6  A    between atoms: C_6  and  C_8
REMARK    7  A    between atoms: C_8  and  C_9
REMARK    8  A    between atoms: C_8  and  C_19
REMARK    9  A    between atoms: C_9  and  O_10
REMARK   10  A    between atoms: O_10  and  C_11
REMARK   11  A    between atoms: C_11  and  C_13
REMARK   12  A    between atoms: C_19  and  C_20
REMARK   13  A    between atoms: C_20  and  C_22
REMARK   14  A    between atoms: C_22  and  N_23
REMARK   15  A    between atoms: C_22  and  C_24
REMARK   16  A    between atoms: C_24  and  C_25
REMARK   17  A    between atoms: C_31  and  OXT_33
REMARK                            x       y       z     vdW  Elec       q    Type
REMARK                         _______ _______ _______ _____ _____    ______ ____
ROOT
ATOM      1  C   UNL     1       3.947   6.536  18.149  0.00  0.00    +0.000 C 
ENDROOT
BRANCH   1   3
ATOM      2  N   UNL     1       3.105   4.772  19.608  0.00  0.00    +0.000 N 
ATOM      3  C   UNL     1       3.304   5.171  18.308  0.00  0.00    +0.000 C 
ATOM      4  O   UNL     1       2.974   4.490  17.342  0.00  0.00    +0.000 OA
ATOM      5  H   UNL     1       3.473   5.338  20.370  0.00  0.00    +0.000 HD
BRANCH   2   6
ATOM      6  CA  UNL     1       2.673   3.418  19.939  0.00  0.00    +0.000 C 
BRANCH   6   7
ATOM      7  C   UNL     1       1.552   3.534  20.979  0.00  0.00    +0.000 C 
ATOM      8  O   UNL     1       1.592   3.030  22.092  0.00  0.00    +0.000 OA
BRANCH   7   9
ATOM      9  OXT UNL     1       0.498   4.281  20.566  0.00  0.00    +0.000 OA
ATOM     10  HXT UNL     1      -0.097   3.820  19.945  0.00  0.00    +0.000 HD
ENDBRANCH   7   9
ENDBRANCH   6   7
BRANCH   6  11
ATOM     11  C   UNL     1       3.822   2.554  20.491  0.00  0.00    +0.000 C 
BRANCH  11  13
ATOM     12  C   UNL     1       3.676   1.242  18.322  0.00  0.00    +0.000 C 
ATOM     13  C   UNL     1       4.594   1.851  19.367  0.00  0.00    +0.000 C 
ENDBRANCH  11  13
ENDBRANCH   6  11
ENDBRANCH   2   6
ENDBRANCH   1   3
BRANCH   1  14
ATOM     14  C   UNL     1       4.988   6.498  17.021  0.00  0.00    +0.000 C 
BRANCH  14  15
ATOM     15  C   UNL     1       6.386   6.188  17.529  0.00  0.00    +0.000 C 
ATOM     16  O   UNL     1       6.950   6.896  18.362  0.00  0.00    +0.000 OA
BRANCH  15  17
ATOM     17  C   UNL     1       7.106   5.018  16.832  0.00  0.00    +0.000 C 
BRANCH  17  18
ATOM     18  N   UNL     1       7.626   4.108  17.875  0.00  0.00    +0.000 NA
ATOM     19  H   UNL     1       8.462   3.643  17.508  0.00  0.00    +0.000 HD
ATOM     20  H   UNL     1       6.954   3.365  18.061  0.00  0.00    +0.000 HD
ENDBRANCH  17  18
BRANCH  17  21
ATOM     21  C   UNL     1       6.153   4.261  15.889  0.00  0.00    +0.000 C 
BRANCH  21  22
ATOM     22  C   UNL     1       6.513   4.289  14.418  0.00  0.00    +0.000 A 
ATOM     23  C   UNL     1       7.501   5.132  13.891  0.00  0.00    +0.000 A 
ATOM     24  C   UNL     1       7.767   5.148  12.519  0.00  0.00    +0.000 A 
ATOM     25  C   UNL     1       7.079   4.293  11.663  0.00  0.00    +0.000 A 
ATOM     26  C   UNL     1       6.139   3.408  12.182  0.00  0.00    +0.000 A 
ATOM     27  C   UNL     1       5.850   3.412  13.546  0.00  0.00    +0.000 A 
ENDBRANCH  21  22
ENDBRANCH  17  21
ENDBRANCH  15  17
ENDBRANCH  14  15
ENDBRANCH   1  14
BRANCH   1  28
ATOM     28  C   UNL     1       2.845   7.552  17.830  0.00  0.00    +0.000 C 
BRANCH  28  29
ATOM     29  O   UNL     1       2.139   7.944  19.024  0.00  0.00    +0.000 OA
BRANCH  29  30
ATOM     30  C   UNL     1       1.400   9.071  18.904  0.00  0.00    +0.000 C 
ATOM     31  O   UNL     1       1.211   9.683  17.867  0.00  0.00    +0.000 OA
BRANCH  30  32
ATOM     32  C   UNL     1       0.795   9.464  20.206  0.00  0.00    +0.000 A 
ATOM     33  C   UNL     1       1.166   8.740  21.344  0.00  0.00    +0.000 A 
ATOM     34  C   UNL     1       0.627   9.059  22.592  0.00  0.00    +0.000 A 
ATOM     35  C   UNL     1      -0.285  10.107  22.709  0.00  0.00    +0.000 A 
ATOM     36  C   UNL     1      -0.656  10.837  21.580  0.00  0.00    +0.000 A 
ATOM     37  C   UNL     1      -0.121  10.521  20.327  0.00  0.00    +0.000 A 
ENDBRANCH  30  32
ENDBRANCH  29  30
ENDBRANCH  28  29
ENDBRANCH   1  28
TORSDOF 16
ENDMDL
MODEL 4
REMARK VINA RESULT:      -7.3      1.482      2.276
REMARK  Name = 
REMARK  17 active torsions:
REMARK  status: ('A' for Active; 'I' for Inactive)
REMARK    1  A    between atoms: C_1  and  C_2
REMARK    2  A    between atoms: C_2  and  C_3
REMARK    3  A    between atoms: C_3  and  CA_4
REMARK    4  A    between atoms: CA_4  and  N_5
REMARK    5  A    between atoms: CA_4  and  C_31
REMARK    6  A    between atoms: C_6  and  C_8
REMARK    7  A    between atoms: C_8  and  C_9
REMARK    8  A    between atoms: C_8  and  C_19
REMARK    9  A    between atoms: C_9  and  O_10
REMARK   10  A    between atoms: O_10  and  C_11
REMARK   11  A    between atoms: C_11  and  C_13
REMARK   12  A    between atoms: C_19  and  C_20
REMARK   13  A    between atoms: C_20  and  C_22
REMARK   14  A    between atoms: C_22  and  N_23
REMARK   15  A    between atoms: C_22  and  C_24
REMARK   16  A    between atoms: C_24  and  C_25
REMARK   17  A    between atoms: C_31  and  OXT_33
REMARK                            x       y       z     vdW  Elec       q    Type
REMARK                         _______ _______ _______ _____ _____    ______ ____
ROOT
ATOM      1  C   UNL     1       3.017   6.691  19.029  0.00  0.00    +0.000 C 
ENDROOT
BRANCH   1   3
ATOM      2  N   UNL     1       2.447   4.364  19.489  0.00  0.00    +0.000 N 
ATOM      3  C   UNL     1       2.207   5.677  19.816  0.00  0.00    +0.000 C 
ATOM      4  O   UNL     1       1.412   6.014  20.688  0.00  0.00    +0.000 OA
ATOM      5  H   UNL     1       3.055   4.145  18.701  0.00  0.00    +0.000 HD
BRANCH   2   6
ATOM      6  CA  UNL     1       1.625   3.279  20.012  0.00  0.00    +0.000 C 
BRANCH   6   7
ATOM      7  C   UNL     1       2.254   2.819  21.333  0.00  0.00    +0.000 C 
ATOM      8  O   UNL     1       1.633   2.673  22.376  0.00  0.00    +0.000 OA
BRANCH   7   9
ATOM      9  OXT UNL     1       3.581   2.553  21.243  0.00  0.00    +0.000 OA
ATOM     10  HXT UNL     1       3.962   2.155  22.048  0.00  0.00    +0.000 HD
ENDBRANCH   7   9
ENDBRANCH   6   7
BRANCH   6  11
ATOM     11  C   UNL     1       1.523   2.095  19.032  0.00  0.00    +0.000 C 
BRANCH  11  13
ATOM     12  C   UNL     1       3.742   1.560  17.921  0.00  0.00    +0.000 C 
ATOM     13  C   UNL     1       2.420   2.296  17.803  0.00  0.00    +0.000 C 
ENDBRANCH  11  13
ENDBRANCH   6  11
ENDBRANCH   2   6
ENDBRANCH   1   3
BRANCH   1  14
ATOM     14  C   UNL     1       3.661   6.018  17.810  0.00  0.00    +0.000 C 
BRANCH  14  15
ATOM     15  C   UNL     1       5.154   5.796  17.989  0.00  0.00    +0.000 C 
ATOM     16  O   UNL     1       5.647   5.527  19.084  0.00  0.00    +0.000 OA
BRANCH  15  17
ATOM     17  C   UNL     1       6.024   6.070  16.748  0.00  0.00    +0.000 C 
BRANCH  17  18
ATOM     18  N   UNL     1       7.018   7.106  17.101  0.00  0.00    +0.000 NA
ATOM     19  H   UNL     1       7.922   6.648  17.249  0.00  0.00    +0.000 HD
ATOM     20  H   UNL     1       6.776   7.537  17.992  0.00  0.00    +0.000 HD
ENDBRANCH  17  18
BRANCH  17  21
ATOM     21  C   UNL     1       6.732   4.789  16.272  0.00  0.00    +0.000 C 
BRANCH  21  22
ATOM     22  C   UNL     1       6.737   4.550  14.776  0.00  0.00    +0.000 A 
ATOM     23  C   UNL     1       5.836   3.686  14.139  0.00  0.00    +0.000 A 
ATOM     24  C   UNL     1       5.909   3.469  12.761  0.00  0.00    +0.000 A 
ATOM     25  C   UNL     1       6.854   4.145  11.995  0.00  0.00    +0.000 A 
ATOM     26  C   UNL     1       7.714   5.053  12.606  0.00  0.00    +0.000 A 
ATOM     27  C   UNL     1       7.663   5.248  13.986  0.00  0.00    +0.000 A 
ENDBRANCH  21  22
ENDBRANCH  17  21
ENDBRANCH  15  17
ENDBRANCH  14  15
ENDBRANCH   1  14
BRANCH   1  28
ATOM     28  C   UNL     1       2.077   7.818  18.588  0.00  0.00    +0.000 C 
BRANCH  28  29
ATOM     29  O   UNL     1       2.022   8.867  19.574  0.00  0.00    +0.000 OA
BRANCH  29  30
ATOM     30  C   UNL     1       1.021   9.760  19.402  0.00  0.00    +0.000 C 
ATOM     31  O   UNL     1       0.687  10.246  18.335  0.00  0.00    +0.000 OA
BRANCH  30  32
ATOM     32  C   UNL     1       0.330  10.056  20.687  0.00  0.00    +0.000 A 
ATOM     33  C   UNL     1       0.551   9.190  21.762  0.00  0.00    +0.000 A 
ATOM     34  C   UNL     1      -0.074   9.414  22.991  0.00  0.00    +0.000 A 
ATOM     35  C   UNL     1      -0.922  10.509  23.150  0.00  0.00    +0.000 A 
ATOM     36  C   UNL     1      -1.143  11.380  22.085  0.00  0.00    +0.000 A 
ATOM     37  C   UNL     1      -0.522  11.161  20.851  0.00  0.00    +0.000 A 
ENDBRANCH  30  32
ENDBRANCH  29  30
ENDBRANCH  28  29
ENDBRANCH   1  28
TORSDOF 16
ENDMDL
MODEL 5
REMARK VINA RESULT:      -7.2      1.621      8.499
REMARK  Name = 
REMARK  17 active torsions:
REMARK  status: ('A' for Active; 'I' for Inactive)
REMARK    1  A    between atoms: C_1  and  C_2
REMARK    2  A    between atoms: C_2  and  C_3
REMARK    3  A    between atoms: C_3  and  CA_4
REMARK    4  A    between atoms: CA_4  and  N_5
REMARK    5  A    between atoms: CA_4  and  C_31
REMARK    6  A    between atoms: C_6  and  C_8
REMARK    7  A    between atoms: C_8  and  C_9
REMARK    8  A    between atoms: C_8  and  C_19
REMARK    9  A    between atoms: C_9  and  O_10
REMARK   10  A    between atoms: O_10  and  C_11
REMARK   11  A    between atoms: C_11  and  C_13
REMARK   12  A    between atoms: C_19  and  C_20
REMARK   13  A    between atoms: C_20  and  C_22
REMARK   14  A    between atoms: C_22  and  N_23
REMARK   15  A    between atoms: C_22  and  C_24
REMARK   16  A    between atoms: C_24  and  C_25
REMARK   17  A    between atoms: C_31  and  OXT_33
REMARK                            x       y       z     vdW  Elec       q    Type
REMARK                         _______ _______ _______ _____ _____    ______ ____
ROOT
ATOM      1  C   UNL     1       3.763   6.456  17.382  0.00  0.00    +0.000 C 
ENDROOT
BRANCH   1   3
ATOM      2  N   UNL     1       3.206   4.331  18.443  0.00  0.00    +0.000 N 
ATOM      3  C   UNL     1       3.941   5.488  18.537  0.00  0.00    +0.000 C 
ATOM      4  O   UNL     1       4.700   5.723  19.473  0.00  0.00    +0.000 OA
ATOM      5  H   UNL     1       2.530   4.225  17.688  0.00  0.00    +0.000 HD
BRANCH   2   6
ATOM      6  CA  UNL     1       3.116   3.384  19.549  0.00  0.00    +0.000 C 
BRANCH   6   7
ATOM      7  C   UNL     1       4.250   2.366  19.377  0.00  0.00    +0.000 C 
ATOM      8  O   UNL     1       4.991   2.003  20.280  0.00  0.00    +0.000 OA
BRANCH   7   9
ATOM      9  OXT UNL     1       4.350   1.866  18.121  0.00  0.00    +0.000 OA
ATOM     10  HXT UNL     1       5.176   2.108  17.661  0.00  0.00    +0.000 HD
ENDBRANCH   7   9
ENDBRANCH   6   7
BRANCH   6  11
ATOM     11  C   UNL     1       1.757   2.663  19.595  0.00  0.00    +0.000 C 
BRANCH  11  13
ATOM     12  C   UNL     1       1.414   2.576  22.109  0.00  0.00    +0.000 C 
ATOM     13  C   UNL     1       0.908   3.125  20.787  0.00  0.00    +0.000 C 
ENDBRANCH  11  13
ENDBRANCH   6  11
ENDBRANCH   2   6
ENDBRANCH   1   3
BRANCH   1  14
ATOM     14  C   UNL     1       3.583   7.884  17.916  0.00  0.00    +0.000 C 
BRANCH  14  15
ATOM     15  C   UNL     1       2.277   8.062  18.671  0.00  0.00    +0.000 C 
ATOM     16  O   UNL     1       1.633   7.104  19.097  0.00  0.00    +0.000 OA
BRANCH  15  17
ATOM     17  C   UNL     1       1.738   9.503  18.744  0.00  0.00    +0.000 C 
BRANCH  17  18
ATOM     18  N   UNL     1       2.014  10.166  17.452  0.00  0.00    +0.000 NA
ATOM     19  H   UNL     1       1.910   9.473  16.706  0.00  0.00    +0.000 HD
ATOM     20  H   UNL     1       2.986  10.471  17.413  0.00  0.00    +0.000 HD
ENDBRANCH  17  18
BRANCH  17  21
ATOM     21  C   UNL     1       0.228   9.518  19.040  0.00  0.00    +0.000 C 
BRANCH  21  22
ATOM     22  C   UNL     1      -0.170   9.915  20.448  0.00  0.00    +0.000 A 
ATOM     23  C   UNL     1      -0.604  11.205  20.782  0.00  0.00    +0.000 A 
ATOM     24  C   UNL     1      -0.921  11.530  22.103  0.00  0.00    +0.000 A 
ATOM     25  C   UNL     1      -0.850  10.561  23.099  0.00  0.00    +0.000 A 
ATOM     26  C   UNL     1      -0.481   9.260  22.770  0.00  0.00    +0.000 A 
ATOM     27  C   UNL     1      -0.135   8.940  21.457  0.00  0.00    +0.000 A 
ENDBRANCH  21  22
ENDBRANCH  17  21
ENDBRANCH  15  17
ENDBRANCH  14  15
ENDBRANCH   1  14
BRANCH   1  28
ATOM     28  C   UNL     1       5.004   6.368  16.487  0.00  0.00    +0.000 C 
BRANCH  28  29
ATOM     29  O   UNL     1       5.407   4.999  16.290  0.00  0.00    +0.000 OA
BRANCH  29  30
ATOM     30  C   UNL     1       6.702   4.832  15.933  0.00  0.00    +0.000 C 
ATOM     31  O   UNL     1       7.646   4.802  16.703  0.00  0.00    +0.000 OA
BRANCH  30  32
ATOM     32  C   UNL     1       6.839   4.642  14.464  0.00  0.00    +0.000 A 
ATOM     33  C   UNL     1       6.073   3.640  13.860  0.00  0.00    +0.000 A 
ATOM     34  C   UNL     1       6.164   3.411  12.485  0.00  0.00    +0.000 A 
ATOM     35  C   UNL     1       7.021   4.188  11.706  0.00  0.00    +0.000 A 
ATOM     36  C   UNL     1       7.784   5.193  12.300  0.00  0.00    +0.000 A 
ATOM     37  C   UNL     1       7.699   5.426  13.676  0.00  0.00    +0.000 A 
ENDBRANCH  30  32
ENDBRANCH  29  30
ENDBRANCH  28  29
ENDBRANCH   1  28
TORSDOF 16
ENDMDL
MODEL 6
REMARK VINA RESULT:      -7.2      2.673      8.119
REMARK  Name = 
REMARK  17 active torsions:
REMARK  status: ('A' for Active; 'I' for Inactive)
REMARK    1  A    between atoms: C_1  and  C_2
REMARK    2  A    between atoms: C_2  and  C_3
REMARK    3  A    between atoms: C_3  and  CA_4
REMARK    4  A    between atoms: CA_4  and  N_5
REMARK    5  A    between atoms: CA_4  and  C_31
REMARK    6  A    between atoms: C_6  and  C_8
REMARK    7  A    between atoms: C_8  and  C_9
REMARK    8  A    between atoms: C_8  and  C_19
REMARK    9  A    between atoms: C_9  and  O_10
REMARK   10  A    between atoms: O_10  and  C_11
REMARK   11  A    between atoms: C_11  and  C_13
REMARK   12  A    between atoms: C_19  and  C_20
REMARK   13  A    between atoms: C_20  and  C_22
REMARK   14  A    between atoms: C_22  and  N_23
REMARK   15  A    between atoms: C_22  and  C_24
REMARK   16  A    between atoms: C_24  and  C_25
REMARK   17  A    between atoms: C_31  and  OXT_33
REMARK                            x       y       z     vdW  Elec       q    Type
REMARK                         _______ _______ _______ _____ _____    ______ ____
ROOT
ATOM      1  C   UNL     1       2.242   6.782  20.357  0.00  0.00    +0.000 C 
ENDROOT
BRANCH   1   3
ATOM      2  N   UNL     1       4.246   5.844  19.330  0.00  0.00    +0.000 N 
ATOM      3  C   UNL     1       2.970   6.304  19.114  0.00  0.00    +0.000 C 
ATOM      4  O   UNL     1       2.442   6.317  18.006  0.00  0.00    +0.000 OA
ATOM      5  H   UNL     1       4.663   5.934  20.255  0.00  0.00    +0.000 HD
BRANCH   2   6
ATOM      6  CA  UNL     1       5.146   5.526  18.227  0.00  0.00    +0.000 C 
BRANCH   6   7
ATOM      7  C   UNL     1       6.482   5.083  18.835  0.00  0.00    +0.000 C 
ATOM      8  O   UNL     1       6.895   5.448  19.927  0.00  0.00    +0.000 OA
BRANCH   7   9
ATOM      9  OXT UNL     1       7.174   4.211  18.060  0.00  0.00    +0.000 OA
ATOM     10  HXT UNL     1       7.323   3.341  18.476  0.00  0.00    +0.000 HD
ENDBRANCH   7   9
ENDBRANCH   6   7
BRANCH   6  11
ATOM     11  C   UNL     1       5.363   6.722  17.283  0.00  0.00    +0.000 C 
BRANCH  11  13
ATOM     12  C   UNL     1       5.003   4.824  15.635  0.00  0.00    +0.000 C 
ATOM     13  C   UNL     1       5.221   6.317  15.809  0.00  0.00    +0.000 C 
ENDBRANCH  11  13
ENDBRANCH   6  11
ENDBRANCH   2   6
ENDBRANCH   1   3
BRANCH   1  14
ATOM     14  C   UNL     1       1.332   7.968  20.011  0.00  0.00    +0.000 C 
BRANCH  14  15
ATOM     15  C   UNL     1       1.184   8.944  21.166  0.00  0.00    +0.000 C 
ATOM     16  O   UNL     1       1.846   8.840  22.198  0.00  0.00    +0.000 OA
BRANCH  15  17
ATOM     17  C   UNL     1       0.056   9.983  21.022  0.00  0.00    +0.000 C 
BRANCH  17  18
ATOM     18  N   UNL     1       0.103  10.881  22.196  0.00  0.00    +0.000 NA
ATOM     19  H   UNL     1       0.933  11.476  22.113  0.00  0.00    +0.000 HD
ATOM     20  H   UNL     1       0.234  10.339  23.049  0.00  0.00    +0.000 HD
ENDBRANCH  17  18
BRANCH  17  21
ATOM     21  C   UNL     1       0.208  10.793  19.723  0.00  0.00    +0.000 C 
BRANCH  21  22
ATOM     22  C   UNL     1      -0.990  10.792  18.795  0.00  0.00    +0.000 A 
ATOM     23  C   UNL     1      -2.075  11.666  18.950  0.00  0.00    +0.000 A 
ATOM     24  C   UNL     1      -3.174  11.597  18.090  0.00  0.00    +0.000 A 
ATOM     25  C   UNL     1      -3.184  10.685  17.040  0.00  0.00    +0.000 A 
ATOM     26  C   UNL     1      -2.086   9.854  16.837  0.00  0.00    +0.000 A 
ATOM     27  C   UNL     1      -1.001   9.900  17.712  0.00  0.00    +0.000 A 
ENDBRANCH  21  22
ENDBRANCH  17  21
ENDBRANCH  15  17
ENDBRANCH  14  15
ENDBRANCH   1  14
BRANCH   1  28
ATOM     28  C   UNL     1       1.417   5.613  20.909  0.00  0.00    +0.000 C 
BRANCH  28  29
ATOM     29  O   UNL     1       2.241   4.709  21.669  0.00  0.00    +0.000 OA
BRANCH  29  30
ATOM     30  C   UNL     1       1.961   3.397  21.492  0.00  0.00    +0.000 C 
ATOM     31  O   UNL     1       1.316   2.705  22.260  0.00  0.00    +0.000 OA
BRANCH  30  32
ATOM     32  C   UNL     1       2.508   2.894  20.202  0.00  0.00    +0.000 A 
ATOM     33  C   UNL     1       1.674   2.932  19.080  0.00  0.00    +0.000 A 
ATOM     34  C   UNL     1       2.131   2.469  17.844  0.00  0.00    +0.000 A 
ATOM     35  C   UNL     1       3.427   1.968  17.724  0.00  0.00    +0.000 A 
ATOM     36  C   UNL     1       4.266   1.934  18.837  0.00  0.00    +0.000 A 
ATOM     37  C   UNL     1       3.815   2.394  20.078  0.00  0.00    +0.000 A 
ENDBRANCH  30  32
ENDBRANCH  29  30
ENDBRANCH  28  29
ENDBRANCH   1  28
TORSDOF 16
ENDMDL
MODEL 7
REMARK VINA RESULT:      -7.1      1.406      5.048
REMARK  Name = 
REMARK  17 active torsions:
REMARK  status: ('A' for Active; 'I' for Inactive)
REMARK    1  A    between atoms: C_1  and  C_2
REMARK    2  A    between atoms: C_2  and  C_3
REMARK    3  A    between atoms: C_3  and  CA_4
REMARK    4  A    between atoms: CA_4  and  N_5
REMARK    5  A    between atoms: CA_4  and  C_31
REMARK    6  A    between atoms: C_6  and  C_8
REMARK    7  A    between atoms: C_8  and  C_9
REMARK    8  A    between atoms: C_8  and  C_19
REMARK    9  A    between atoms: C_9  and  O_10
REMARK   10  A    between atoms: O_10  and  C_11
REMARK   11  A    between atoms: C_11  and  C_13
REMARK   12  A    between atoms: C_19  and  C_20
REMARK   13  A    between atoms: C_20  and  C_22
REMARK   14  A    between atoms: C_22  and  N_23
REMARK   15  A    between atoms: C_22  and  C_24
REMARK   16  A    between atoms: C_24  and  C_25
REMARK   17  A    between atoms: C_31  and  OXT_33
REMARK                            x       y       z     vdW  Elec       q    Type
REMARK                         _______ _______ _______ _____ _____    ______ ____
ROOT
ATOM      1  C   UNL     1       4.274   5.971  17.841  0.00  0.00    +0.000 C 
ENDROOT
BRANCH   1   3
ATOM      2  N   UNL     1       2.887   7.767  18.738  0.00  0.00    +0.000 N 
ATOM      3  C   UNL     1       2.895   6.554  18.091  0.00  0.00    +0.000 C 
ATOM      4  O   UNL     1       1.872   5.985  17.724  0.00  0.00    +0.000 OA
ATOM      5  H   UNL     1       3.760   8.153  19.093  0.00  0.00    +0.000 HD
BRANCH   2   6
ATOM      6  CA  UNL     1       1.651   8.373  19.220  0.00  0.00    +0.000 C 
BRANCH   6   7
ATOM      7  C   UNL     1       1.563   9.781  18.619  0.00  0.00    +0.000 C 
ATOM      8  O   UNL     1       1.216  10.774  19.242  0.00  0.00    +0.000 OA
BRANCH   7   9
ATOM      9  OXT UNL     1       1.937   9.844  17.317  0.00  0.00    +0.000 OA
ATOM     10  HXT UNL     1       1.212   9.675  16.686  0.00  0.00    +0.000 HD
ENDBRANCH   7   9
ENDBRANCH   6   7
BRANCH   6  11
ATOM     11  C   UNL     1       1.594   8.447  20.756  0.00  0.00    +0.000 C 
BRANCH  11  13
ATOM     12  C   UNL     1      -0.265   9.293  22.264  0.00  0.00    +0.000 C 
ATOM     13  C   UNL     1       0.171   8.219  21.284  0.00  0.00    +0.000 C 
ENDBRANCH  11  13
ENDBRANCH   6  11
ENDBRANCH   2   6
ENDBRANCH   1   3
BRANCH   1  14
ATOM     14  C   UNL     1       5.232   7.072  17.366  0.00  0.00    +0.000 C 
BRANCH  14  15
ATOM     15  C   UNL     1       6.687   6.637  17.410  0.00  0.00    +0.000 C 
ATOM     16  O   UNL     1       7.511   7.185  18.142  0.00  0.00    +0.000 OA
BRANCH  15  17
ATOM     17  C   UNL     1       7.096   5.567  16.381  0.00  0.00    +0.000 C 
BRANCH  17  18
ATOM     18  N   UNL     1       7.596   4.385  17.115  0.00  0.00    +0.000 NA
ATOM     19  H   UNL     1       8.277   4.703  17.811  0.00  0.00    +0.000 HD
ATOM     20  H   UNL     1       8.110   3.771  16.485  0.00  0.00    +0.000 HD
ENDBRANCH  17  18
BRANCH  17  21
ATOM     21  C   UNL     1       5.907   5.175  15.484  0.00  0.00    +0.000 C 
BRANCH  21  22
ATOM     22  C   UNL     1       6.258   4.651  14.106  0.00  0.00    +0.000 A 
ATOM     23  C   UNL     1       7.382   5.084  13.390  0.00  0.00    +0.000 A 
ATOM     24  C   UNL     1       7.639   4.598  12.106  0.00  0.00    +0.000 A 
ATOM     25  C   UNL     1       6.801   3.643  11.538  0.00  0.00    +0.000 A 
ATOM     26  C   UNL     1       5.717   3.159  12.263  0.00  0.00    +0.000 A 
ATOM     27  C   UNL     1       5.441   3.665  13.534  0.00  0.00    +0.000 A 
ENDBRANCH  21  22
ENDBRANCH  17  21
ENDBRANCH  15  17
ENDBRANCH  14  15
ENDBRANCH   1  14
BRANCH   1  28
ATOM     28  C   UNL     1       4.776   5.348  19.148  0.00  0.00    +0.000 C 
BRANCH  28  29
ATOM     29  O   UNL     1       5.195   3.984  18.947  0.00  0.00    +0.000 OA
BRANCH  29  30
ATOM     30  C   UNL     1       4.225   3.148  18.509  0.00  0.00    +0.000 C 
ATOM     31  O   UNL     1       4.232   2.557  17.444  0.00  0.00    +0.000 OA
BRANCH  30  32
ATOM     32  C   UNL     1       3.142   2.997  19.520  0.00  0.00    +0.000 A 
ATOM     33  C   UNL     1       1.819   3.118  19.083  0.00  0.00    +0.000 A 
ATOM     34  C   UNL     1       0.762   2.991  19.987  0.00  0.00    +0.000 A 
ATOM     35  C   UNL     1       1.024   2.739  21.333  0.00  0.00    +0.000 A 
ATOM     36  C   UNL     1       2.340   2.611  21.775  0.00  0.00    +0.000 A 
ATOM     37  C   UNL     1       3.403   2.739  20.876  0.00  0.00    +0.000 A 
ENDBRANCH  30  32
ENDBRANCH  29  30
ENDBRANCH  28  29
ENDBRANCH   1  28
TORSDOF 16
ENDMDL
MODEL 8
REMARK VINA RESULT:      -7.0      2.532      8.061
REMARK  Name = 
REMARK  17 active torsions:
REMARK  status: ('A' for Active; 'I' for Inactive)
REMARK    1  A    between atoms: C_1  and  C_2
REMARK    2  A    between atoms: C_2  and  C_3
REMARK    3  A    between atoms: C_3  and  CA_4
REMARK    4  A    between atoms: CA_4  and  N_5
REMARK    5  A    between atoms: CA_4  and  C_31
REMARK    6  A    between atoms: C_6  and  C_8
REMARK    7  A    between atoms: C_8  and  C_9
REMARK    8  A    between atoms: C_8  and  C_19
REMARK    9  A    between atoms: C_9  and  O_10
REMARK   10  A    between atoms: O_10  and  C_11
REMARK   11  A    between atoms: C_11  and  C_13
REMARK   12  A    between atoms: C_19  and  C_20
REMARK   13  A    between atoms: C_20  and  C_22
REMARK   14  A    between atoms: C_22  and  N_23
REMARK   15  A    between atoms: C_22  and  C_24
REMARK   16  A    between atoms: C_24  and  C_25
REMARK   17  A    between atoms: C_31  and  OXT_33
REMARK                            x       y       z     vdW  Elec       q    Type
REMARK                         _______ _______ _______ _____ _____    ______ ____
ROOT
ATOM      1  C   UNL     1       2.853   6.514  19.702  0.00  0.00    +0.000 C 
ENDROOT
BRANCH   1   3
ATOM      2  N   UNL     1       4.175   5.750  17.800  0.00  0.00    +0.000 N 
ATOM      3  C   UNL     1       4.121   5.876  19.167  0.00  0.00    +0.000 C 
ATOM      4  O   UNL     1       5.032   5.517  19.907  0.00  0.00    +0.000 OA
ATOM      5  H   UNL     1       3.357   5.987  17.241  0.00  0.00    +0.000 HD
BRANCH   2   6
ATOM      6  CA  UNL     1       5.232   4.994  17.137  0.00  0.00    +0.000 C 
BRANCH   6   7
ATOM      7  C   UNL     1       6.463   5.904  17.047  0.00  0.00    +0.000 C 
ATOM      8  O   UNL     1       6.536   6.891  16.329  0.00  0.00    +0.000 OA
BRANCH   7   9
ATOM      9  OXT UNL     1       7.477   5.535  17.867  0.00  0.00    +0.000 OA
ATOM     10  HXT UNL     1       7.311   5.714  18.811  0.00  0.00    +0.000 HD
ENDBRANCH   7   9
ENDBRANCH   6   7
BRANCH   6  11
ATOM     11  C   UNL     1       4.820   4.516  15.733  0.00  0.00    +0.000 C 
BRANCH  11  13
ATOM     12  C   UNL     1       6.052   3.947  13.588  0.00  0.00    +0.000 C 
ATOM     13  C   UNL     1       5.919   3.671  15.075  0.00  0.00    +0.000 C 
ENDBRANCH  11  13
ENDBRANCH   6  11
ENDBRANCH   2   6
ENDBRANCH   1   3
BRANCH   1  14
ATOM     14  C   UNL     1       2.310   7.532  18.690  0.00  0.00    +0.000 C 
BRANCH  14  15
ATOM     15  C   UNL     1       1.610   8.702  19.360  0.00  0.00    +0.000 C 
ATOM     16  O   UNL     1       1.386   8.723  20.570  0.00  0.00    +0.000 OA
BRANCH  15  17
ATOM     17  C   UNL     1       1.070   9.790  18.413  0.00  0.00    +0.000 C 
BRANCH  17  18
ATOM     18  N   UNL     1       2.174  10.223  17.529  0.00  0.00    +0.000 NA
ATOM     19  H   UNL     1       3.054  10.133  18.045  0.00  0.00    +0.000 HD
ATOM     20  H   UNL     1       2.081  11.214  17.309  0.00  0.00    +0.000 HD
ENDBRANCH  17  18
BRANCH  17  21
ATOM     21  C   UNL     1      -0.110   9.264  17.576  0.00  0.00    +0.000 C 
BRANCH  21  22
ATOM     22  C   UNL     1      -1.391  10.068  17.654  0.00  0.00    +0.000 A 
ATOM     23  C   UNL     1      -1.644  11.003  18.667  0.00  0.00    +0.000 A 
ATOM     24  C   UNL     1      -2.859  11.691  18.715  0.00  0.00    +0.000 A 
ATOM     25  C   UNL     1      -3.819  11.484  17.730  0.00  0.00    +0.000 A 
ATOM     26  C   UNL     1      -3.556  10.605  16.684  0.00  0.00    +0.000 A 
ATOM     27  C   UNL     1      -2.356   9.895  16.650  0.00  0.00    +0.000 A 
ENDBRANCH  21  22
ENDBRANCH  17  21
ENDBRANCH  15  17
ENDBRANCH  14  15
ENDBRANCH   1  14
BRANCH   1  28
ATOM     28  C   UNL     1       1.826   5.405  19.954  0.00  0.00    +0.000 C 
BRANCH  28  29
ATOM     29  O   UNL     1       2.011   4.810  21.253  0.00  0.00    +0.000 OA
BRANCH  29  30
ATOM     30  C   UNL     1       1.877   3.464  21.288  0.00  0.00    +0.000 C 
ATOM     31  O   UNL     1       1.277   2.838  22.145  0.00  0.00    +0.000 OA
BRANCH  30  32
ATOM     32  C   UNL     1       2.526   2.823  20.112  0.00  0.00    +0.000 A 
ATOM     33  C   UNL     1       1.772   2.692  18.941  0.00  0.00    +0.000 A 
ATOM     34  C   UNL     1       2.325   2.094  17.807  0.00  0.00    +0.000 A 
ATOM     35  C   UNL     1       3.639   1.627  17.838  0.00  0.00    +0.000 A 
ATOM     36  C   UNL     1       4.399   1.760  18.999  0.00  0.00    +0.000 A 
ATOM     37  C   UNL     1       3.850   2.356  20.138  0.00  0.00    +0.000 A 
ENDBRANCH  30  32
ENDBRANCH  29  30
ENDBRANCH  28  29
ENDBRANCH   1  28
TORSDOF 16
ENDMDL
MODEL 9
REMARK VINA RESULT:      -7.0      1.545      5.203
REMARK  Name = 
REMARK  17 active torsions:
REMARK  status: ('A' for Active; 'I' for Inactive)
REMARK    1  A    between atoms: C_1  and  C_2
REMARK    2  A    between atoms: C_2  and  C_3
REMARK    3  A    between atoms: C_3  and  CA_4
REMARK    4  A    between atoms: CA_4  and  N_5
REMARK    5  A    between atoms: CA_4  and  C_31
REMARK    6  A    between atoms: C_6  and  C_8
REMARK    7  A    between atoms: C_8  and  C_9
REMARK    8  A    between atoms: C_8  and  C_19
REMARK    9  A    between atoms: C_9  and  O_10
REMARK   10  A    between atoms: O_10  and  C_11
REMARK   11  A    between atoms: C_11  and  C_13
REMARK   12  A    between atoms: C_19  and  C_20
REMARK   13  A    between atoms: C_20  and  C_22
REMARK   14  A    between atoms: C_22  and  N_23
REMARK   15  A    between atoms: C_22  and  C_24
REMARK   16  A    between atoms: C_24  and  C_25
REMARK   17  A    between atoms: C_31  and  OXT_33
REMARK                            x       y       z     vdW  Elec       q    Type
REMARK                         _______ _______ _______ _____ _____    ______ ____
ROOT
ATOM      1  C   UNL     1       4.088   5.838  18.275  0.00  0.00    +0.000 C 
ENDROOT
BRANCH   1   3
ATOM      2  N   UNL     1       2.497   7.686  18.346  0.00  0.00    +0.000 N 
ATOM      3  C   UNL     1       2.794   6.426  18.808  0.00  0.00    +0.000 C 
ATOM      4  O   UNL     1       2.067   5.808  19.580  0.00  0.00    +0.000 OA
ATOM      5  H   UNL     1       3.175   8.185  17.773  0.00  0.00    +0.000 HD
BRANCH   2   6
ATOM      6  CA  UNL     1       1.395   8.467  18.898  0.00  0.00    +0.000 C 
BRANCH   6   7
ATOM      7  C   UNL     1       1.344   9.795  18.134  0.00  0.00    +0.000 C 
ATOM      8  O   UNL     1       2.298  10.548  18.000  0.00  0.00    +0.000 OA
BRANCH   7   9
ATOM      9  OXT UNL     1       0.135  10.062  17.581  0.00  0.00    +0.000 OA
ATOM     10  HXT UNL     1      -0.621   9.881  18.172  0.00  0.00    +0.000 HD
ENDBRANCH   7   9
ENDBRANCH   6   7
BRANCH   6  11
ATOM     11  C   UNL     1       1.560   8.728  20.406  0.00  0.00    +0.000 C 
BRANCH  11  13
ATOM     12  C   UNL     1       0.340   9.384  22.534  0.00  0.00    +0.000 C 
ATOM     13  C   UNL     1       0.297   9.351  21.017  0.00  0.00    +0.000 C 
ENDBRANCH  11  13
ENDBRANCH   6  11
ENDBRANCH   2   6
ENDBRANCH   1   3
BRANCH   1  14
ATOM     14  C   UNL     1       5.028   6.962  17.820  0.00  0.00    +0.000 C 
BRANCH  14  15
ATOM     15  C   UNL     1       5.598   6.718  16.432  0.00  0.00    +0.000 C 
ATOM     16  O   UNL     1       4.928   6.882  15.414  0.00  0.00    +0.000 OA
BRANCH  15  17
ATOM     17  C   UNL     1       7.015   6.117  16.388  0.00  0.00    +0.000 C 
BRANCH  17  18
ATOM     18  N   UNL     1       7.599   6.209  17.743  0.00  0.00    +0.000 NA
ATOM     19  H   UNL     1       8.546   5.820  17.712  0.00  0.00    +0.000 HD
ATOM     20  H   UNL     1       7.078   5.619  18.391  0.00  0.00    +0.000 HD
ENDBRANCH  17  18
BRANCH  17  21
ATOM     21  C   UNL     1       6.982   4.651  15.918  0.00  0.00    +0.000 C 
BRANCH  21  22
ATOM     22  C   UNL     1       6.877   4.435  14.422  0.00  0.00    +0.000 A 
ATOM     23  C   UNL     1       5.964   3.543  13.843  0.00  0.00    +0.000 A 
ATOM     24  C   UNL     1       5.935   3.351  12.459  0.00  0.00    +0.000 A 
ATOM     25  C   UNL     1       6.787   4.078  11.634  0.00  0.00    +0.000 A 
ATOM     26  C   UNL     1       7.656   5.012  12.191  0.00  0.00    +0.000 A 
ATOM     27  C   UNL     1       7.708   5.184  13.574  0.00  0.00    +0.000 A 
ENDBRANCH  21  22
ENDBRANCH  17  21
ENDBRANCH  15  17
ENDBRANCH  14  15
ENDBRANCH   1  14
BRANCH   1  28
ATOM     28  C   UNL     1       4.736   5.012  19.392  0.00  0.00    +0.000 C 
BRANCH  28  29
ATOM     29  O   UNL     1       5.034   3.675  18.944  0.00  0.00    +0.000 OA
BRANCH  29  30
ATOM     30  C   UNL     1       4.558   2.689  19.740  0.00  0.00    +0.000 C 
ATOM     31  O   UNL     1       5.242   1.915  20.387  0.00  0.00    +0.000 OA
BRANCH  30  32
ATOM     32  C   UNL     1       3.070   2.684  19.768  0.00  0.00    +0.000 A 
ATOM     33  C   UNL     1       2.439   2.853  21.005  0.00  0.00    +0.000 A 
ATOM     34  C   UNL     1       1.046   2.852  21.094  0.00  0.00    +0.000 A 
ATOM     35  C   UNL     1       0.275   2.684  19.944  0.00  0.00    +0.000 A 
ATOM     36  C   UNL     1       0.896   2.522  18.707  0.00  0.00    +0.000 A 
ATOM     37  C   UNL     1       2.291   2.520  18.611  0.00  0.00    +0.000 A 
ENDBRANCH  30  32
ENDBRANCH  29  30
ENDBRANCH  28  29
ENDBRANCH   1  28
TORSDOF 16
ENDMDL
