MODEL 1
REMARK VINA RESULT:      -6.7      0.000      0.000
REMARK  Name = 
REMARK  11 active torsions:
REMARK  status: ('A' for Active; 'I' for Inactive)
REMARK    1  A    between atoms: C_2  and  C_3
REMARK    2  A    between atoms: C_3  and  O_4
REMARK    3  A    between atoms: C_3  and  C_14
REMARK    4  A    between atoms: O_4  and  C_5
REMARK    5  A    between atoms: C_7  and  C_8
REMARK    6  A    between atoms: C_8  and  N_9
REMARK    7  A    between atoms: C_10  and  O_11
REMARK    8  A    between atoms: C_12  and  O_13
REMARK    9  A    between atoms: C_16  and  N_17
REMARK   10  A    between atoms: C_25  and  O_26
REMARK   11  A    between atoms: C_27  and  O_28
REMARK                            x       y       z     vdW  Elec       q    Type
REMARK                         _______ _______ _______ _____ _____    ______ ____
ROOT
ATOM      1  C   UNL     1       3.673   3.810  20.361  0.00  0.00    +0.000 C 
ATOM      2  O   UNL     1       3.623   5.246  20.585  0.00  0.00    +0.000 OA
ATOM      3  C   UNL     1       2.248   5.694  20.536  0.00  0.00    +0.000 C 
ATOM      4  C   UNL     1       1.415   4.512  20.014  0.00  0.00    +0.000 C 
ATOM      5  C   UNL     1       2.229   3.327  20.510  0.00  0.00    +0.000 C 
ENDROOT
BRANCH   3   6
ATOM      6  N   UNL     1       2.138   6.901  19.719  0.00  0.00    +0.000 N 
ATOM      7  C   UNL     1       2.596   6.930  18.417  0.00  0.00    +0.000 A 
ATOM      8  C   UNL     1       2.508   8.021  17.651  0.00  0.00    +0.000 A 
ATOM      9  C   UNL     1       1.903   9.234  18.217  0.00  0.00    +0.000 A 
ATOM     10  O   UNL     1       1.857  10.276  17.577  0.00  0.00    +0.000 OA
ATOM     11  N   UNL     1       1.410   9.112  19.483  0.00  0.00    +0.000 N 
ATOM     12  C   UNL     1       1.524   8.007  20.294  0.00  0.00    +0.000 A 
ATOM     13  O   UNL     1       1.111   8.053  21.449  0.00  0.00    +0.000 OA
ATOM     14  H   UNL     1       0.996   9.933  19.900  0.00  0.00    +0.000 HD
ENDBRANCH   3   6
BRANCH   4  15
ATOM     15  O   UNL     1       0.083   4.462  20.513  0.00  0.00    +0.000 OA
ATOM     16  H   UNL     1      -0.501   4.717  19.770  0.00  0.00    +0.000 HD
ENDBRANCH   4  15
BRANCH   5  17
ATOM     17  O   UNL     1       1.890   3.095  21.894  0.00  0.00    +0.000 OA
ATOM     18  H   UNL     1       2.590   2.556  22.307  0.00  0.00    +0.000 HD
ENDBRANCH   5  17
BRANCH   1  19
ATOM     19  C   UNL     1       4.299   3.505  18.972  0.00  0.00    +0.000 C 
BRANCH  19  21
ATOM     20  C   UNL     1       3.980   0.911  18.403  0.00  0.00    +0.000 C 
ATOM     21  C   UNL     1       4.132   2.080  18.639  0.00  0.00    +0.000 C 
ENDBRANCH  19  21
BRANCH  19  22
ATOM     22  O   UNL     1       5.697   3.861  19.014  0.00  0.00    +0.000 OA
BRANCH  22  23
ATOM     23  C   UNL     1       6.003   5.141  18.464  0.00  0.00    +0.000 C 
ATOM     24  O   UNL     1       5.362   5.307  17.181  0.00  0.00    +0.000 OA
ATOM     25  C   UNL     1       6.289   5.949  16.272  0.00  0.00    +0.000 C 
ATOM     26  C   UNL     1       7.476   6.405  17.122  0.00  0.00    +0.000 C 
ATOM     27  C   UNL     1       7.501   5.367  18.225  0.00  0.00    +0.000 C 
BRANCH  26  28
ATOM     28  O   UNL     1       7.234   7.688  17.743  0.00  0.00    +0.000 OA
ATOM     29  H   UNL     1       7.202   8.371  17.047  0.00  0.00    +0.000 HD
ENDBRANCH  26  28
BRANCH  27  30
ATOM     30  O   UNL     1       8.187   5.844  19.382  0.00  0.00    +0.000 OA
ATOM     31  H   UNL     1       8.635   5.057  19.762  0.00  0.00    +0.000 HD
ENDBRANCH  27  30
BRANCH  25  32
ATOM     32  C   UNL     1       6.643   4.946  15.160  0.00  0.00    +0.000 C 
BRANCH  32  33
ATOM     33  N   UNL     1       7.776   5.372  14.341  0.00  0.00    +0.000 NA
ATOM     34  H   UNL     1       8.345   4.564  14.084  0.00  0.00    +0.000 HD
ATOM     35  H   UNL     1       8.391   5.964  14.904  0.00  0.00    +0.000 HD
ENDBRANCH  32  33
ENDBRANCH  25  32
ENDBRANCH  22  23
ENDBRANCH  19  22
ENDBRANCH   1  19
TORSDOF 11
ENDMDL
MODEL 2
REMARK VINA RESULT:      -6.5      2.656      6.794
REMARK  Name = 
REMARK  11 active torsions:
REMARK  status: ('A' for Active; 'I' for Inactive)
REMARK    1  A    between atoms: C_2  and  C_3
REMARK    2  A    between atoms: C_3  and  O_4
REMARK    3  A    between atoms: C_3  and  C_14
REMARK    4  A    between atoms: O_4  and  C_5
REMARK    5  A    between atoms: C_7  and  C_8
REMARK    6  A    between atoms: C_8  and  N_9
REMARK    7  A    between atoms: C_10  and  O_11
REMARK    8  A    between atoms: C_12  and  O_13
REMARK    9  A    between atoms: C_16  and  N_17
REMARK   10  A    between atoms: C_25  and  O_26
REMARK   11  A    between atoms: C_27  and  O_28
REMARK                            x       y       z     vdW  Elec       q    Type
REMARK                         _______ _______ _______ _____ _____    ______ ____
ROOT
ATOM      1  C   UNL     1       6.118   5.037  18.787  0.00  0.00    +0.000 C 
ATOM      2  O   UNL     1       6.559   4.160  17.715  0.00  0.00    +0.000 OA
ATOM      3  C   UNL     1       7.193   4.945  16.678  0.00  0.00    +0.000 C 
ATOM      4  C   UNL     1       6.918   6.421  17.011  0.00  0.00    +0.000 C 
ATOM      5  C   UNL     1       6.814   6.374  18.527  0.00  0.00    +0.000 C 
ENDROOT
BRANCH   3   6
ATOM      6  N   UNL     1       6.705   4.535  15.363  0.00  0.00    +0.000 N 
ATOM      7  C   UNL     1       5.572   3.758  15.228  0.00  0.00    +0.000 A 
ATOM      8  C   UNL     1       5.108   3.370  14.038  0.00  0.00    +0.000 A 
ATOM      9  C   UNL     1       5.833   3.783  12.828  0.00  0.00    +0.000 A 
ATOM     10  O   UNL     1       5.483   3.400  11.719  0.00  0.00    +0.000 OA
ATOM     11  N   UNL     1       6.901   4.605  13.032  0.00  0.00    +0.000 N 
ATOM     12  C   UNL     1       7.409   4.986  14.253  0.00  0.00    +0.000 A 
ATOM     13  O   UNL     1       8.432   5.663  14.303  0.00  0.00    +0.000 OA
ATOM     14  H   UNL     1       7.422   4.898  12.219  0.00  0.00    +0.000 HD
ENDBRANCH   3   6
BRANCH   4  15
ATOM     15  O   UNL     1       7.941   7.320  16.596  0.00  0.00    +0.000 OA
ATOM     16  H   UNL     1       7.958   7.287  15.617  0.00  0.00    +0.000 HD
ENDBRANCH   4  15
BRANCH   5  17
ATOM     17  O   UNL     1       8.151   6.388  19.071  0.00  0.00    +0.000 OA
ATOM     18  H   UNL     1       8.109   6.185  20.024  0.00  0.00    +0.000 HD
ENDBRANCH   5  17
BRANCH   1  19
ATOM     19  C   UNL     1       4.567   5.127  18.804  0.00  0.00    +0.000 C 
BRANCH  19  21
ATOM     20  C   UNL     1       3.721   7.300  17.492  0.00  0.00    +0.000 C 
ATOM     21  C   UNL     1       4.117   6.321  18.067  0.00  0.00    +0.000 C 
ENDBRANCH  19  21
BRANCH  19  22
ATOM     22  O   UNL     1       4.128   5.176  20.177  0.00  0.00    +0.000 OA
BRANCH  22  23
ATOM     23  C   UNL     1       3.150   4.197  20.526  0.00  0.00    +0.000 C 
ATOM     24  O   UNL     1       3.592   2.879  20.134  0.00  0.00    +0.000 OA
ATOM     25  C   UNL     1       2.471   2.157  19.569  0.00  0.00    +0.000 C 
ATOM     26  C   UNL     1       1.229   3.006  19.850  0.00  0.00    +0.000 C 
ATOM     27  C   UNL     1       1.792   4.412  19.847  0.00  0.00    +0.000 C 
BRANCH  26  28
ATOM     28  O   UNL     1       0.693   2.758  21.170  0.00  0.00    +0.000 OA
ATOM     29  H   UNL     1       1.176   3.310  21.812  0.00  0.00    +0.000 HD
ENDBRANCH  26  28
BRANCH  27  30
ATOM     30  O   UNL     1       0.949   5.319  20.557  0.00  0.00    +0.000 OA
ATOM     31  H   UNL     1       1.558   5.893  21.069  0.00  0.00    +0.000 HD
ENDBRANCH  27  30
BRANCH  25  32
ATOM     32  C   UNL     1       2.758   1.914  18.077  0.00  0.00    +0.000 C 
BRANCH  32  33
ATOM     33  N   UNL     1       4.181   1.778  17.781  0.00  0.00    +0.000 NA
ATOM     34  H   UNL     1       4.470   2.498  17.115  0.00  0.00    +0.000 HD
ATOM     35  H   UNL     1       4.340   0.890  17.300  0.00  0.00    +0.000 HD
ENDBRANCH  32  33
ENDBRANCH  25  32
ENDBRANCH  22  23
ENDBRANCH  19  22
ENDBRANCH   1  19
TORSDOF 11
ENDMDL
MODEL 3
REMARK VINA RESULT:      -6.4      2.718      6.849
REMARK  Name = 
REMARK  11 active torsions:
REMARK  status: ('A' for Active; 'I' for Inactive)
REMARK    1  A    between atoms: C_2  and  C_3
REMARK    2  A    between atoms: C_3  and  O_4
REMARK    3  A    between atoms: C_3  and  C_14
REMARK    4  A    between atoms: O_4  and  C_5
REMARK    5  A    between atoms: C_7  and  C_8
REMARK    6  A    between atoms: C_8  and  N_9
REMARK    7  A    between atoms: C_10  and  O_11
REMARK    8  A    between atoms: C_12  and  O_13
REMARK    9  A    between atoms: C_16  and  N_17
REMARK   10  A    between atoms: C_25  and  O_26
REMARK   11  A    between atoms: C_27  and  O_28
REMARK                            x       y       z     vdW  Elec       q    Type
REMARK                         _______ _______ _______ _____ _____    ______ ____
ROOT
ATOM      1  C   UNL     1       5.342   5.264  18.521  0.00  0.00    +0.000 C 
ATOM      2  O   UNL     1       5.818   4.266  17.578  0.00  0.00    +0.000 OA
ATOM      3  C   UNL     1       6.711   4.890  16.625  0.00  0.00    +0.000 C 
ATOM      4  C   UNL     1       6.599   6.408  16.842  0.00  0.00    +0.000 C 
ATOM      5  C   UNL     1       6.252   6.477  18.321  0.00  0.00    +0.000 C 
ENDROOT
BRANCH   3   6
ATOM      6  N   UNL     1       6.384   4.461  15.267  0.00  0.00    +0.000 N 
ATOM      7  C   UNL     1       5.253   3.714  15.004  0.00  0.00    +0.000 A 
ATOM      8  C   UNL     1       4.933   3.310  13.772  0.00  0.00    +0.000 A 
ATOM      9  C   UNL     1       5.821   3.669  12.657  0.00  0.00    +0.000 A 
ATOM     10  O   UNL     1       5.605   3.268  11.522  0.00  0.00    +0.000 OA
ATOM     11  N   UNL     1       6.881   4.465  12.981  0.00  0.00    +0.000 N 
ATOM     12  C   UNL     1       7.240   4.861  14.249  0.00  0.00    +0.000 A 
ATOM     13  O   UNL     1       8.269   5.509  14.415  0.00  0.00    +0.000 OA
ATOM     14  H   UNL     1       7.512   4.721  12.235  0.00  0.00    +0.000 HD
ENDBRANCH   3   6
BRANCH   4  15
ATOM     15  O   UNL     1       7.791   7.134  16.562  0.00  0.00    +0.000 OA
ATOM     16  H   UNL     1       8.400   6.507  16.119  0.00  0.00    +0.000 HD
ENDBRANCH   4  15
BRANCH   5  17
ATOM     17  O   UNL     1       7.475   6.351  19.077  0.00  0.00    +0.000 OA
ATOM     18  H   UNL     1       7.611   5.413  19.308  0.00  0.00    +0.000 HD
ENDBRANCH   5  17
BRANCH   1  19
ATOM     19  C   UNL     1       3.836   5.559  18.277  0.00  0.00    +0.000 C 
BRANCH  19  21
ATOM     20  C   UNL     1       3.468   8.104  17.539  0.00  0.00    +0.000 C 
ATOM     21  C   UNL     1       3.649   6.966  17.884  0.00  0.00    +0.000 C 
ENDBRANCH  19  21
BRANCH  19  22
ATOM     22  O   UNL     1       3.111   5.265  19.490  0.00  0.00    +0.000 OA
BRANCH  22  23
ATOM     23  C   UNL     1       2.222   4.153  19.398  0.00  0.00    +0.000 C 
ATOM     24  O   UNL     1       2.735   3.032  20.151  0.00  0.00    +0.000 OA
ATOM     25  C   UNL     1       2.524   1.819  19.388  0.00  0.00    +0.000 C 
ATOM     26  C   UNL     1       1.625   2.203  18.211  0.00  0.00    +0.000 C 
ATOM     27  C   UNL     1       2.014   3.646  17.966  0.00  0.00    +0.000 C 
BRANCH  26  28
ATOM     28  O   UNL     1       0.226   2.189  18.575  0.00  0.00    +0.000 OA
ATOM     29  H   UNL     1      -0.042   3.093  18.824  0.00  0.00    +0.000 HD
ENDBRANCH  26  28
BRANCH  27  30
ATOM     30  O   UNL     1       0.992   4.355  17.265  0.00  0.00    +0.000 OA
ATOM     31  H   UNL     1       0.837   3.841  16.443  0.00  0.00    +0.000 HD
ENDBRANCH  27  30
BRANCH  25  32
ATOM     32  C   UNL     1       3.900   1.258  18.988  0.00  0.00    +0.000 C 
BRANCH  32  33
ATOM     33  N   UNL     1       5.009   1.908  19.681  0.00  0.00    +0.000 NA
ATOM     34  H   UNL     1       4.657   2.663  20.273  0.00  0.00    +0.000 HD
ATOM     35  H   UNL     1       5.611   2.366  18.993  0.00  0.00    +0.000 HD
ENDBRANCH  32  33
ENDBRANCH  25  32
ENDBRANCH  22  23
ENDBRANCH  19  22
ENDBRANCH   1  19
TORSDOF 11
ENDMDL
MODEL 4
REMARK VINA RESULT:      -6.3      7.514     10.541
REMARK  Name = 
REMARK  11 active torsions:
REMARK  status: ('A' for Active; 'I' for Inactive)
REMARK    1  A    between atoms: C_2  and  C_3
REMARK    2  A    between atoms: C_3  and  O_4
REMARK    3  A    between atoms: C_3  and  C_14
REMARK    4  A    between atoms: O_4  and  C_5
REMARK    5  A    between atoms: C_7  and  C_8
REMARK    6  A    between atoms: C_8  and  N_9
REMARK    7  A    between atoms: C_10  and  O_11
REMARK    8  A    between atoms: C_12  and  O_13
REMARK    9  A    between atoms: C_16  and  N_17
REMARK   10  A    between atoms: C_25  and  O_26
REMARK   11  A    between atoms: C_27  and  O_28
REMARK                            x       y       z     vdW  Elec       q    Type
REMARK                         _______ _______ _______ _____ _____    ______ ____
ROOT
ATOM      1  C   UNL     1      -5.145  11.335  17.432  0.00  0.00    +0.000 C 
ATOM      2  O   UNL     1      -5.435  11.038  18.825  0.00  0.00    +0.000 OA
ATOM      3  C   UNL     1      -5.981  12.214  19.466  0.00  0.00    +0.000 C 
ATOM      4  C   UNL     1      -5.799  13.380  18.481  0.00  0.00    +0.000 C 
ATOM      5  C   UNL     1      -5.858  12.657  17.144  0.00  0.00    +0.000 C 
ENDROOT
BRANCH   3   6
ATOM      6  N   UNL     1      -5.339  12.429  20.761  0.00  0.00    +0.000 N 
ATOM      7  C   UNL     1      -4.029  12.857  20.850  0.00  0.00    +0.000 A 
ATOM      8  C   UNL     1      -3.420  13.060  22.022  0.00  0.00    +0.000 A 
ATOM      9  C   UNL     1      -4.172  12.815  23.261  0.00  0.00    +0.000 A 
ATOM     10  O   UNL     1      -3.639  12.925  24.357  0.00  0.00    +0.000 OA
ATOM     11  N   UNL     1      -5.479  12.462  23.097  0.00  0.00    +0.000 N 
ATOM     12  C   UNL     1      -6.109  12.218  21.898  0.00  0.00    +0.000 A 
ATOM     13  O   UNL     1      -7.271  11.822  21.890  0.00  0.00    +0.000 OA
ATOM     14  H   UNL     1      -6.018  12.280  23.931  0.00  0.00    +0.000 HD
ENDBRANCH   3   6
BRANCH   4  15
ATOM     15  O   UNL     1      -6.803  14.385  18.564  0.00  0.00    +0.000 OA
ATOM     16  H   UNL     1      -7.345  14.303  17.752  0.00  0.00    +0.000 HD
ENDBRANCH   4  15
BRANCH   5  17
ATOM     17  O   UNL     1      -7.246  12.447  16.807  0.00  0.00    +0.000 OA
ATOM     18  H   UNL     1      -7.695  13.312  16.758  0.00  0.00    +0.000 HD
ENDBRANCH   5  17
BRANCH   1  19
ATOM     19  C   UNL     1      -3.610  11.383  17.201  0.00  0.00    +0.000 C 
BRANCH  19  21
ATOM     20  C   UNL     1      -2.949  10.229  14.880  0.00  0.00    +0.000 C 
ATOM     21  C   UNL     1      -3.266  10.743  15.920  0.00  0.00    +0.000 C 
ENDBRANCH  19  21
BRANCH  19  22
ATOM     22  O   UNL     1      -2.961  10.710  18.300  0.00  0.00    +0.000 OA
BRANCH  22  23
ATOM     23  C   UNL     1      -1.539  10.817  18.310  0.00  0.00    +0.000 C 
ATOM     24  O   UNL     1      -0.975   9.964  19.330  0.00  0.00    +0.000 OA
ATOM     25  C   UNL     1       0.096  10.675  19.998  0.00  0.00    +0.000 C 
ATOM     26  C   UNL     1       0.343  11.944  19.179  0.00  0.00    +0.000 C 
ATOM     27  C   UNL     1      -1.029  12.233  18.609  0.00  0.00    +0.000 C 
BRANCH  26  28
ATOM     28  O   UNL     1       1.233  11.701  18.065  0.00  0.00    +0.000 OA
ATOM     29  H   UNL     1       1.966  12.342  18.106  0.00  0.00    +0.000 HD
ENDBRANCH  26  28
BRANCH  27  30
ATOM     30  O   UNL     1      -0.954  13.057  17.445  0.00  0.00    +0.000 OA
ATOM     31  H   UNL     1      -0.183  12.720  16.939  0.00  0.00    +0.000 HD
ENDBRANCH  27  30
BRANCH  25  32
ATOM     32  C   UNL     1      -0.329  10.925  21.455  0.00  0.00    +0.000 C 
BRANCH  32  33
ATOM     33  N   UNL     1       0.143  12.203  21.981  0.00  0.00    +0.000 NA
ATOM     34  H   UNL     1       0.045  12.220  22.998  0.00  0.00    +0.000 HD
ATOM     35  H   UNL     1      -0.467  12.950  21.641  0.00  0.00    +0.000 HD
ENDBRANCH  32  33
ENDBRANCH  25  32
ENDBRANCH  22  23
ENDBRANCH  19  22
ENDBRANCH   1  19
TORSDOF 11
ENDMDL
MODEL 5
REMARK VINA RESULT:      -6.3      1.723      2.200
REMARK  Name = 
REMARK  11 active torsions:
REMARK  status: ('A' for Active; 'I' for Inactive)
REMARK    1  A    between atoms: C_2  and  C_3
REMARK    2  A    between atoms: C_3  and  O_4
REMARK    3  A    between atoms: C_3  and  C_14
REMARK    4  A    between atoms: O_4  and  C_5
REMARK    5  A    between atoms: C_7  and  C_8
REMARK    6  A    between atoms: C_8  and  N_9
REMARK    7  A    between atoms: C_10  and  O_11
REMARK    8  A    between atoms: C_12  and  O_13
REMARK    9  A    between atoms: C_16  and  N_17
REMARK   10  A    between atoms: C_25  and  O_26
REMARK   11  A    between atoms: C_27  and  O_28
REMARK                            x       y       z     vdW  Elec       q    Type
REMARK                         _______ _______ _______ _____ _____    ______ ____
ROOT
ATOM      1  C   UNL     1       3.946   4.148  19.399  0.00  0.00    +0.000 C 
ATOM      2  O   UNL     1       3.923   5.540  19.816  0.00  0.00    +0.000 OA
ATOM      3  C   UNL     1       2.586   5.894  20.243  0.00  0.00    +0.000 C 
ATOM      4  C   UNL     1       1.670   4.726  19.845  0.00  0.00    +0.000 C 
ATOM      5  C   UNL     1       2.633   3.551  19.911  0.00  0.00    +0.000 C 
ENDROOT
BRANCH   3   6
ATOM      6  N   UNL     1       2.193   7.178  19.664  0.00  0.00    +0.000 N 
ATOM      7  C   UNL     1       2.462   7.481  18.344  0.00  0.00    +0.000 A 
ATOM      8  C   UNL     1       2.114   8.647  17.793  0.00  0.00    +0.000 A 
ATOM      9  C   UNL     1       1.423   9.643  18.624  0.00  0.00    +0.000 A 
ATOM     10  O   UNL     1       1.140  10.749  18.182  0.00  0.00    +0.000 OA
ATOM     11  N   UNL     1       1.129   9.248  19.896  0.00  0.00    +0.000 N 
ATOM     12  C   UNL     1       1.510   8.065  20.486  0.00  0.00    +0.000 A 
ATOM     13  O   UNL     1       1.255   7.865  21.670  0.00  0.00    +0.000 OA
ATOM     14  H   UNL     1       0.661   9.916  20.492  0.00  0.00    +0.000 HD
ENDBRANCH   3   6
BRANCH   4  15
ATOM     15  O   UNL     1       0.558   4.526  20.710  0.00  0.00    +0.000 OA
ATOM     16  H   UNL     1       0.529   3.567  20.907  0.00  0.00    +0.000 HD
ENDBRANCH   4  15
BRANCH   5  17
ATOM     17  O   UNL     1       2.743   3.136  21.290  0.00  0.00    +0.000 OA
ATOM     18  H   UNL     1       1.984   3.491  21.790  0.00  0.00    +0.000 HD
ENDBRANCH   5  17
BRANCH   1  19
ATOM     19  C   UNL     1       4.124   4.051  17.859  0.00  0.00    +0.000 C 
BRANCH  19  21
ATOM     20  C   UNL     1       2.245   2.484  16.778  0.00  0.00    +0.000 C 
ATOM     21  C   UNL     1       3.075   3.196  17.277  0.00  0.00    +0.000 C 
ENDBRANCH  19  21
BRANCH  19  22
ATOM     22  O   UNL     1       5.434   3.513  17.584  0.00  0.00    +0.000 OA
BRANCH  22  23
ATOM     23  C   UNL     1       6.422   4.489  17.254  0.00  0.00    +0.000 C 
ATOM     24  O   UNL     1       7.530   4.419  18.178  0.00  0.00    +0.000 OA
ATOM     25  C   UNL     1       7.941   5.765  18.521  0.00  0.00    +0.000 C 
ATOM     26  C   UNL     1       7.188   6.697  17.570  0.00  0.00    +0.000 C 
ATOM     27  C   UNL     1       5.907   5.932  17.314  0.00  0.00    +0.000 C 
BRANCH  26  28
ATOM     28  O   UNL     1       7.869   6.838  16.302  0.00  0.00    +0.000 OA
ATOM     29  H   UNL     1       8.749   6.426  16.372  0.00  0.00    +0.000 HD
ENDBRANCH  26  28
BRANCH  27  30
ATOM     30  O   UNL     1       5.276   6.351  16.103  0.00  0.00    +0.000 OA
ATOM     31  H   UNL     1       4.470   6.836  16.385  0.00  0.00    +0.000 HD
ENDBRANCH  27  30
BRANCH  25  32
ATOM     32  C   UNL     1       7.643   5.993  20.013  0.00  0.00    +0.000 C 
BRANCH  32  33
ATOM     33  N   UNL     1       8.424   5.129  20.894  0.00  0.00    +0.000 NA
ATOM     34  H   UNL     1       7.832   4.767  21.644  0.00  0.00    +0.000 HD
ATOM     35  H   UNL     1       9.139   5.688  21.364  0.00  0.00    +0.000 HD
ENDBRANCH  32  33
ENDBRANCH  25  32
ENDBRANCH  22  23
ENDBRANCH  19  22
ENDBRANCH   1  19
TORSDOF 11
ENDMDL
MODEL 6
REMARK VINA RESULT:      -6.2      2.509      6.240
REMARK  Name = 
REMARK  11 active torsions:
REMARK  status: ('A' for Active; 'I' for Inactive)
REMARK    1  A    between atoms: C_2  and  C_3
REMARK    2  A    between atoms: C_3  and  O_4
REMARK    3  A    between atoms: C_3  and  C_14
REMARK    4  A    between atoms: O_4  and  C_5
REMARK    5  A    between atoms: C_7  and  C_8
REMARK    6  A    between atoms: C_8  and  N_9
REMARK    7  A    between atoms: C_10  and  O_11
REMARK    8  A    between atoms: C_12  and  O_13
REMARK    9  A    between atoms: C_16  and  N_17
REMARK   10  A    between atoms: C_25  and  O_26
REMARK   11  A    between atoms: C_27  and  O_28
REMARK                            x       y       z     vdW  Elec       q    Type
REMARK                         _______ _______ _______ _____ _____    ______ ____
ROOT
ATOM      1  C   UNL     1       4.649   5.350  16.604  0.00  0.00    +0.000 C 
ATOM      2  O   UNL     1       5.507   6.497  16.354  0.00  0.00    +0.000 OA
ATOM      3  C   UNL     1       6.880   6.144  16.642  0.00  0.00    +0.000 C 
ATOM      4  C   UNL     1       6.848   4.774  17.339  0.00  0.00    +0.000 C 
ATOM      5  C   UNL     1       5.597   4.157  16.734  0.00  0.00    +0.000 C 
ENDROOT
BRANCH   3   6
ATOM      6  N   UNL     1       7.518   7.194  17.432  0.00  0.00    +0.000 N 
ATOM      7  C   UNL     1       7.529   8.507  17.004  0.00  0.00    +0.000 A 
ATOM      8  C   UNL     1       8.106   9.485  17.708  0.00  0.00    +0.000 A 
ATOM      9  C   UNL     1       8.757   9.148  18.982  0.00  0.00    +0.000 A 
ATOM     10  O   UNL     1       9.354   9.998  19.631  0.00  0.00    +0.000 OA
ATOM     11  N   UNL     1       8.647   7.847  19.374  0.00  0.00    +0.000 N 
ATOM     12  C   UNL     1       8.085   6.825  18.645  0.00  0.00    +0.000 A 
ATOM     13  O   UNL     1       8.126   5.676  19.076  0.00  0.00    +0.000 OA
ATOM     14  H   UNL     1       9.092   7.587  20.243  0.00  0.00    +0.000 HD
ENDBRANCH   3   6
BRANCH   4  15
ATOM     15  O   UNL     1       7.990   3.960  17.093  0.00  0.00    +0.000 OA
ATOM     16  H   UNL     1       8.568   4.050  17.879  0.00  0.00    +0.000 HD
ENDBRANCH   4  15
BRANCH   5  17
ATOM     17  O   UNL     1       5.942   3.612  15.443  0.00  0.00    +0.000 OA
ATOM     18  H   UNL     1       5.427   4.074  14.755  0.00  0.00    +0.000 HD
ENDBRANCH   5  17
BRANCH   1  19
ATOM     19  C   UNL     1       3.772   5.600  17.862  0.00  0.00    +0.000 C 
BRANCH  19  21
ATOM     20  C   UNL     1       2.898   8.127  17.896  0.00  0.00    +0.000 C 
ATOM     21  C   UNL     1       3.308   6.997  17.892  0.00  0.00    +0.000 C 
ENDBRANCH  19  21
BRANCH  19  22
ATOM     22  O   UNL     1       4.558   5.295  19.033  0.00  0.00    +0.000 OA
BRANCH  22  23
ATOM     23  C   UNL     1       3.916   4.439  19.977  0.00  0.00    +0.000 C 
ATOM     24  O   UNL     1       3.948   3.069  19.520  0.00  0.00    +0.000 OA
ATOM     25  C   UNL     1       2.665   2.454  19.791  0.00  0.00    +0.000 C 
ATOM     26  C   UNL     1       1.894   3.441  20.670  0.00  0.00    +0.000 C 
ATOM     27  C   UNL     1       2.439   4.777  20.211  0.00  0.00    +0.000 C 
BRANCH  26  28
ATOM     28  O   UNL     1       2.232   3.295  22.069  0.00  0.00    +0.000 OA
ATOM     29  H   UNL     1       3.138   3.629  22.208  0.00  0.00    +0.000 HD
ENDBRANCH  26  28
BRANCH  27  30
ATOM     30  O   UNL     1       2.247   5.792  21.196  0.00  0.00    +0.000 OA
ATOM     31  H   UNL     1       2.916   6.481  20.994  0.00  0.00    +0.000 HD
ENDBRANCH  27  30
BRANCH  25  32
ATOM     32  C   UNL     1       1.991   2.134  18.445  0.00  0.00    +0.000 C 
BRANCH  32  33
ATOM     33  N   UNL     1       0.536   2.054  18.535  0.00  0.00    +0.000 NA
ATOM     34  H   UNL     1       0.111   2.827  18.019  0.00  0.00    +0.000 HD
ATOM     35  H   UNL     1       0.253   2.193  19.507  0.00  0.00    +0.000 HD
ENDBRANCH  32  33
ENDBRANCH  25  32
ENDBRANCH  22  23
ENDBRANCH  19  22
ENDBRANCH   1  19
TORSDOF 11
ENDMDL
MODEL 7
REMARK VINA RESULT:      -6.2      2.778      4.549
REMARK  Name = 
REMARK  11 active torsions:
REMARK  status: ('A' for Active; 'I' for Inactive)
REMARK    1  A    between atoms: C_2  and  C_3
REMARK    2  A    between atoms: C_3  and  O_4
REMARK    3  A    between atoms: C_3  and  C_14
REMARK    4  A    between atoms: O_4  and  C_5
REMARK    5  A    between atoms: C_7  and  C_8
REMARK    6  A    between atoms: C_8  and  N_9
REMARK    7  A    between atoms: C_10  and  O_11
REMARK    8  A    between atoms: C_12  and  O_13
REMARK    9  A    between atoms: C_16  and  N_17
REMARK   10  A    between atoms: C_25  and  O_26
REMARK   11  A    between atoms: C_27  and  O_28
REMARK                            x       y       z     vdW  Elec       q    Type
REMARK                         _______ _______ _______ _____ _____    ______ ____
ROOT
ATOM      1  C   UNL     1       1.971   8.230  20.282  0.00  0.00    +0.000 C 
ATOM      2  O   UNL     1       1.549   9.392  19.518  0.00  0.00    +0.000 OA
ATOM      3  C   UNL     1       0.409  10.006  20.164  0.00  0.00    +0.000 C 
ATOM      4  C   UNL     1      -0.054   9.035  21.261  0.00  0.00    +0.000 C 
ATOM      5  C   UNL     1       1.252   8.347  21.627  0.00  0.00    +0.000 C 
ENDROOT
BRANCH   3   6
ATOM      6  N   UNL     1      -0.623  10.321  19.178  0.00  0.00    +0.000 N 
ATOM      7  C   UNL     1      -0.711   9.629  17.987  0.00  0.00    +0.000 A 
ATOM      8  C   UNL     1      -1.645   9.898  17.070  0.00  0.00    +0.000 A 
ATOM      9  C   UNL     1      -2.610  10.974  17.340  0.00  0.00    +0.000 A 
ATOM     10  O   UNL     1      -3.442  11.300  16.504  0.00  0.00    +0.000 OA
ATOM     11  N   UNL     1      -2.505  11.566  18.563  0.00  0.00    +0.000 N 
ATOM     12  C   UNL     1      -1.530  11.322  19.502  0.00  0.00    +0.000 A 
ATOM     13  O   UNL     1      -1.498  11.986  20.534  0.00  0.00    +0.000 OA
ATOM     14  H   UNL     1      -3.151  12.314  18.772  0.00  0.00    +0.000 HD
ENDBRANCH   3   6
BRANCH   4  15
ATOM     15  O   UNL     1      -0.637   9.663  22.398  0.00  0.00    +0.000 OA
ATOM     16  H   UNL     1      -1.419   9.125  22.641  0.00  0.00    +0.000 HD
ENDBRANCH   4  15
BRANCH   5  17
ATOM     17  O   UNL     1       1.972   9.204  22.539  0.00  0.00    +0.000 OA
ATOM     18  H   UNL     1       2.917   9.200  22.299  0.00  0.00    +0.000 HD
ENDBRANCH   5  17
BRANCH   1  19
ATOM     19  C   UNL     1       1.643   6.926  19.503  0.00  0.00    +0.000 C 
BRANCH  19  21
ATOM     20  C   UNL     1       1.802   4.788  21.103  0.00  0.00    +0.000 C 
ATOM     21  C   UNL     1       1.745   5.759  20.396  0.00  0.00    +0.000 C 
ENDBRANCH  19  21
BRANCH  19  22
ATOM     22  O   UNL     1       2.564   6.810  18.399  0.00  0.00    +0.000 OA
BRANCH  22  23
ATOM     23  C   UNL     1       3.438   5.684  18.467  0.00  0.00    +0.000 C 
ATOM     24  O   UNL     1       4.816   6.107  18.367  0.00  0.00    +0.000 OA
ATOM     25  C   UNL     1       5.529   5.183  17.511  0.00  0.00    +0.000 C 
ATOM     26  C   UNL     1       4.582   4.006  17.266  0.00  0.00    +0.000 C 
ATOM     27  C   UNL     1       3.221   4.667  17.341  0.00  0.00    +0.000 C 
BRANCH  26  28
ATOM     28  O   UNL     1       4.648   3.031  18.332  0.00  0.00    +0.000 OA
ATOM     29  H   UNL     1       4.420   3.470  19.172  0.00  0.00    +0.000 HD
ENDBRANCH  26  28
BRANCH  27  30
ATOM     30  O   UNL     1       2.192   3.721  17.632  0.00  0.00    +0.000 OA
ATOM     31  H   UNL     1       2.501   2.874  17.245  0.00  0.00    +0.000 HD
ENDBRANCH  27  30
BRANCH  25  32
ATOM     32  C   UNL     1       5.956   5.937  16.239  0.00  0.00    +0.000 C 
BRANCH  32  33
ATOM     33  N   UNL     1       7.389   6.213  16.188  0.00  0.00    +0.000 NA
ATOM     34  H   UNL     1       7.822   5.976  17.083  0.00  0.00    +0.000 HD
ATOM     35  H   UNL     1       7.532   7.219  16.079  0.00  0.00    +0.000 HD
ENDBRANCH  32  33
ENDBRANCH  25  32
ENDBRANCH  22  23
ENDBRANCH  19  22
ENDBRANCH   1  19
TORSDOF 11
ENDMDL
MODEL 8
REMARK VINA RESULT:      -6.1      7.899     12.503
REMARK  Name = 
REMARK  11 active torsions:
REMARK  status: ('A' for Active; 'I' for Inactive)
REMARK    1  A    between atoms: C_2  and  C_3
REMARK    2  A    between atoms: C_3  and  O_4
REMARK    3  A    between atoms: C_3  and  C_14
REMARK    4  A    between atoms: O_4  and  C_5
REMARK    5  A    between atoms: C_7  and  C_8
REMARK    6  A    between atoms: C_8  and  N_9
REMARK    7  A    between atoms: C_10  and  O_11
REMARK    8  A    between atoms: C_12  and  O_13
REMARK    9  A    between atoms: C_16  and  N_17
REMARK   10  A    between atoms: C_25  and  O_26
REMARK   11  A    between atoms: C_27  and  O_28
REMARK                            x       y       z     vdW  Elec       q    Type
REMARK                         _______ _______ _______ _____ _____    ______ ____
ROOT
ATOM      1  C   UNL     1      -4.667  13.133  23.650  0.00  0.00    +0.000 C 
ATOM      2  O   UNL     1      -3.759  12.028  23.393  0.00  0.00    +0.000 OA
ATOM      3  C   UNL     1      -2.408  12.532  23.269  0.00  0.00    +0.000 C 
ATOM      4  C   UNL     1      -2.512  14.064  23.207  0.00  0.00    +0.000 C 
ATOM      5  C   UNL     1      -3.770  14.315  24.022  0.00  0.00    +0.000 C 
ENDROOT
BRANCH   3   6
ATOM      6  N   UNL     1      -1.749  11.936  22.109  0.00  0.00    +0.000 N 
ATOM      7  C   UNL     1      -2.082  12.314  20.823  0.00  0.00    +0.000 A 
ATOM      8  C   UNL     1      -1.496  11.784  19.747  0.00  0.00    +0.000 A 
ATOM      9  C   UNL     1      -0.461  10.758  19.939  0.00  0.00    +0.000 A 
ATOM     10  O   UNL     1       0.060  10.198  18.984  0.00  0.00    +0.000 OA
ATOM     11  N   UNL     1      -0.135  10.485  21.235  0.00  0.00    +0.000 N 
ATOM     12  C   UNL     1      -0.753  10.999  22.352  0.00  0.00    +0.000 A 
ATOM     13  O   UNL     1      -0.421  10.606  23.466  0.00  0.00    +0.000 OA
ATOM     14  H   UNL     1       0.568   9.779  21.397  0.00  0.00    +0.000 HD
ENDBRANCH   3   6
BRANCH   4  15
ATOM     15  O   UNL     1      -1.397  14.755  23.762  0.00  0.00    +0.000 OA
ATOM     16  H   UNL     1      -1.662  15.694  23.835  0.00  0.00    +0.000 HD
ENDBRANCH   4  15
BRANCH   5  17
ATOM     17  O   UNL     1      -3.414  14.288  25.421  0.00  0.00    +0.000 OA
ATOM     18  H   UNL     1      -4.218  14.132  25.951  0.00  0.00    +0.000 HD
ENDBRANCH   5  17
BRANCH   1  19
ATOM     19  C   UNL     1      -5.565  13.390  22.408  0.00  0.00    +0.000 C 
BRANCH  19  21
ATOM     20  C   UNL     1      -7.509  15.129  23.000  0.00  0.00    +0.000 C 
ATOM     21  C   UNL     1      -6.645  14.332  22.746  0.00  0.00    +0.000 C 
ENDBRANCH  19  21
BRANCH  19  22
ATOM     22  O   UNL     1      -6.106  12.127  21.968  0.00  0.00    +0.000 OA
BRANCH  22  23
ATOM     23  C   UNL     1      -6.055  11.915  20.558  0.00  0.00    +0.000 C 
ATOM     24  O   UNL     1      -5.437  13.042  19.899  0.00  0.00    +0.000 OA
ATOM     25  C   UNL     1      -6.174  13.340  18.689  0.00  0.00    +0.000 C 
ATOM     26  C   UNL     1      -7.153  12.182  18.487  0.00  0.00    +0.000 C 
ATOM     27  C   UNL     1      -7.434  11.745  19.909  0.00  0.00    +0.000 C 
BRANCH  26  28
ATOM     28  O   UNL     1      -6.535  11.066  17.806  0.00  0.00    +0.000 OA
ATOM     29  H   UNL     1      -5.912  10.632  18.419  0.00  0.00    +0.000 HD
ENDBRANCH  26  28
BRANCH  27  30
ATOM     30  O   UNL     1      -7.916  10.402  19.963  0.00  0.00    +0.000 OA
ATOM     31  H   UNL     1      -7.634  10.060  20.839  0.00  0.00    +0.000 HD
ENDBRANCH  27  30
BRANCH  25  32
ATOM     32  C   UNL     1      -6.836  14.719  18.857  0.00  0.00    +0.000 C 
BRANCH  32  33
ATOM     33  N   UNL     1      -5.884  15.779  19.175  0.00  0.00    +0.000 NA
ATOM     34  H   UNL     1      -6.357  16.685  19.176  0.00  0.00    +0.000 HD
ATOM     35  H   UNL     1      -5.189  15.840  18.428  0.00  0.00    +0.000 HD
ENDBRANCH  32  33
ENDBRANCH  25  32
ENDBRANCH  22  23
ENDBRANCH  19  22
ENDBRANCH   1  19
TORSDOF 11
ENDMDL
MODEL 9
REMARK VINA RESULT:      -6.1      2.201      6.215
REMARK  Name = 
REMARK  11 active torsions:
REMARK  status: ('A' for Active; 'I' for Inactive)
REMARK    1  A    between atoms: C_2  and  C_3
REMARK    2  A    between atoms: C_3  and  O_4
REMARK    3  A    between atoms: C_3  and  C_14
REMARK    4  A    between atoms: O_4  and  C_5
REMARK    5  A    between atoms: C_7  and  C_8
REMARK    6  A    between atoms: C_8  and  N_9
REMARK    7  A    between atoms: C_10  and  O_11
REMARK    8  A    between atoms: C_12  and  O_13
REMARK    9  A    between atoms: C_16  and  N_17
REMARK   10  A    between atoms: C_25  and  O_26
REMARK   11  A    between atoms: C_27  and  O_28
REMARK                            x       y       z     vdW  Elec       q    Type
REMARK                         _______ _______ _______ _____ _____    ______ ____
ROOT
ATOM      1  C   UNL     1       2.141   5.007  18.759  0.00  0.00    +0.000 C 
ATOM      2  O   UNL     1       3.013   5.863  17.971  0.00  0.00    +0.000 OA
ATOM      3  C   UNL     1       4.133   5.089  17.481  0.00  0.00    +0.000 C 
ATOM      4  C   UNL     1       4.083   3.732  18.200  0.00  0.00    +0.000 C 
ATOM      5  C   UNL     1       2.591   3.578  18.450  0.00  0.00    +0.000 C 
ENDROOT
BRANCH   3   6
ATOM      6  N   UNL     1       5.382   5.820  17.685  0.00  0.00    +0.000 N 
ATOM      7  C   UNL     1       6.193   5.564  18.772  0.00  0.00    +0.000 A 
ATOM      8  C   UNL     1       7.338   6.220  18.980  0.00  0.00    +0.000 A 
ATOM      9  C   UNL     1       7.746   7.253  18.018  0.00  0.00    +0.000 A 
ATOM     10  O   UNL     1       8.754   7.924  18.200  0.00  0.00    +0.000 OA
ATOM     11  N   UNL     1       6.933   7.404  16.935  0.00  0.00    +0.000 N 
ATOM     12  C   UNL     1       5.735   6.760  16.724  0.00  0.00    +0.000 A 
ATOM     13  O   UNL     1       5.053   7.048  15.745  0.00  0.00    +0.000 OA
ATOM     14  H   UNL     1       7.185   8.112  16.261  0.00  0.00    +0.000 HD
ENDBRANCH   3   6
BRANCH   4  15
ATOM     15  O   UNL     1       4.589   2.641  17.439  0.00  0.00    +0.000 OA
ATOM     16  H   UNL     1       5.305   3.003  16.878  0.00  0.00    +0.000 HD
ENDBRANCH   4  15
BRANCH   5  17
ATOM     17  O   UNL     1       1.980   3.081  17.240  0.00  0.00    +0.000 OA
ATOM     18  H   UNL     1       1.700   2.157  17.382  0.00  0.00    +0.000 HD
ENDBRANCH   5  17
BRANCH   1  19
ATOM     19  C   UNL     1       2.231   5.385  20.263  0.00  0.00    +0.000 C 
BRANCH  19  21
ATOM     20  C   UNL     1       1.951   3.218  21.805  0.00  0.00    +0.000 C 
ATOM     21  C   UNL     1       2.059   4.187  21.101  0.00  0.00    +0.000 C 
ENDBRANCH  19  21
BRANCH  19  22
ATOM     22  O   UNL     1       1.210   6.363  20.549  0.00  0.00    +0.000 OA
BRANCH  22  23
ATOM     23  C   UNL     1       1.622   7.720  20.392  0.00  0.00    +0.000 C 
ATOM     24  O   UNL     1       1.467   8.443  21.633  0.00  0.00    +0.000 OA
ATOM     25  C   UNL     1       0.928   9.756  21.347  0.00  0.00    +0.000 C 
ATOM     26  C   UNL     1       0.979   9.919  19.827  0.00  0.00    +0.000 C 
ATOM     27  C   UNL     1       0.812   8.493  19.344  0.00  0.00    +0.000 C 
BRANCH  26  28
ATOM     28  O   UNL     1       2.274  10.378  19.377  0.00  0.00    +0.000 OA
ATOM     29  H   UNL     1       2.921  10.241  20.093  0.00  0.00    +0.000 HD
ENDBRANCH  26  28
BRANCH  27  30
ATOM     30  O   UNL     1       1.309   8.324  18.017  0.00  0.00    +0.000 OA
ATOM     31  H   UNL     1       1.061   7.410  17.761  0.00  0.00    +0.000 HD
ENDBRANCH  27  30
BRANCH  25  32
ATOM     32  C   UNL     1      -0.483   9.840  21.955  0.00  0.00    +0.000 C 
BRANCH  32  33
ATOM     33  N   UNL     1      -0.532   9.423  23.354  0.00  0.00    +0.000 NA
ATOM     34  H   UNL     1      -0.158   8.476  23.449  0.00  0.00    +0.000 HD
ATOM     35  H   UNL     1      -1.509   9.356  23.648  0.00  0.00    +0.000 HD
ENDBRANCH  32  33
ENDBRANCH  25  32
ENDBRANCH  22  23
ENDBRANCH  19  22
ENDBRANCH   1  19
TORSDOF 11
ENDMDL
