MODEL 1
REMARK VINA RESULT:      -7.1      0.000      0.000
REMARK  Name = 
REMARK  9 active torsions:
REMARK  status: ('A' for Active; 'I' for Inactive)
REMARK    1  A    between atoms: C_1  and  S_2
REMARK    2  A    between atoms: S_2  and  C_3
REMARK    3  A    between atoms: C_3  and  N_11
REMARK    4  A    between atoms: N_4  and  C_5
REMARK    5  A    between atoms: C_12  and  S_13
REMARK    6  A    between atoms: S_13  and  C_14
REMARK    7  A    between atoms: C_14  and  C_15
REMARK    8  A    between atoms: N_21  and  C_22
REMARK    9  A    between atoms: N_21  and  C_23
REMARK                            x       y       z     vdW  Elec       q    Type
REMARK                         _______ _______ _______ _____ _____    ______ ____
ROOT
ATOM      1  N   UNL     1       4.963   3.849  17.984  0.00  0.00    +0.000 NA
ATOM      2  C   UNL     1       3.813   4.108  18.526  0.00  0.00    +0.000 C 
ATOM      3  N   UNL     1       3.534   3.499  19.760  0.00  0.00    +0.000 N 
ATOM      4  C   UNL     1       4.342   2.381  20.247  0.00  0.00    +0.000 C 
ATOM      5  C   UNL     1       2.653   4.044  20.792  0.00  0.00    +0.000 C 
ENDROOT
BRANCH   1   6
ATOM      6  C   UNL     1       5.525   4.307  16.833  0.00  0.00    +0.000 C 
ATOM      7  N   UNL     1       5.340   3.730  15.690  0.00  0.00    +0.000 NA
BRANCH   7   8
ATOM      8  C   UNL     1       5.981   4.112  14.494  0.00  0.00    +0.000 A 
ATOM      9  C   UNL     1       7.118   4.930  14.470  0.00  0.00    +0.000 A 
ATOM     10  C   UNL     1       7.829   5.168  13.293  0.00  0.00    +0.000 A 
ATOM     11  C   UNL     1       7.420   4.565  12.110  0.00  0.00    +0.000 A 
ATOM     12  C   UNL     1       6.304   3.731  12.110  0.00  0.00    +0.000 A 
ATOM     13  C   UNL     1       5.592   3.505  13.296  0.00  0.00    +0.000 A 
ENDBRANCH   7   8
BRANCH   6  15
ATOM     14  C   UNL     1       7.049   5.619  18.712  0.00  0.00    +0.000 C 
ATOM     15  S   UNL     1       6.416   5.833  17.039  0.00  0.00    +0.000 S 
ENDBRANCH   6  15
ENDBRANCH   1   6
BRANCH   2  16
ATOM     16  S   UNL     1       2.543   5.179  17.943  0.00  0.00    +0.000 S 
BRANCH  16  17
ATOM     17  C   UNL     1       3.094   6.882  18.051  0.00  0.00    +0.000 C 
BRANCH  17  18
ATOM     18  C   UNL     1       2.246   7.928  18.725  0.00  0.00    +0.000 A 
ATOM     19  C   UNL     1       1.709   9.032  18.054  0.00  0.00    +0.000 A 
ATOM     20  C   UNL     1       0.909   9.956  18.736  0.00  0.00    +0.000 A 
ATOM     21  C   UNL     1       0.622   9.780  20.090  0.00  0.00    +0.000 A 
ATOM     22  C   UNL     1       1.093   8.655  20.754  0.00  0.00    +0.000 A 
ATOM     23  C   UNL     1       1.875   7.727  20.066  0.00  0.00    +0.000 A 
ENDBRANCH  17  18
ENDBRANCH  16  17
ENDBRANCH   2  16
TORSDOF 6
ENDMDL
MODEL 2
REMARK VINA RESULT:      -7.1      0.086      1.007
REMARK  Name = 
REMARK  9 active torsions:
REMARK  status: ('A' for Active; 'I' for Inactive)
REMARK    1  A    between atoms: C_1  and  S_2
REMARK    2  A    between atoms: S_2  and  C_3
REMARK    3  A    between atoms: C_3  and  N_11
REMARK    4  A    between atoms: N_4  and  C_5
REMARK    5  A    between atoms: C_12  and  S_13
REMARK    6  A    between atoms: S_13  and  C_14
REMARK    7  A    between atoms: C_14  and  C_15
REMARK    8  A    between atoms: N_21  and  C_22
REMARK    9  A    between atoms: N_21  and  C_23
REMARK                            x       y       z     vdW  Elec       q    Type
REMARK                         _______ _______ _______ _____ _____    ______ ____
ROOT
ATOM      1  N   UNL     1       4.965   3.861  18.023  0.00  0.00    +0.000 NA
ATOM      2  C   UNL     1       3.801   4.098  18.545  0.00  0.00    +0.000 C 
ATOM      3  N   UNL     1       3.520   3.497  19.783  0.00  0.00    +0.000 N 
ATOM      4  C   UNL     1       4.348   2.405  20.295  0.00  0.00    +0.000 C 
ATOM      5  C   UNL     1       2.611   4.032  20.796  0.00  0.00    +0.000 C 
ENDROOT
BRANCH   1   6
ATOM      6  C   UNL     1       5.532   4.319  16.873  0.00  0.00    +0.000 C 
ATOM      7  N   UNL     1       5.328   3.759  15.725  0.00  0.00    +0.000 NA
BRANCH   7   8
ATOM      8  C   UNL     1       5.972   4.140  14.531  0.00  0.00    +0.000 A 
ATOM      9  C   UNL     1       7.125   4.936  14.509  0.00  0.00    +0.000 A 
ATOM     10  C   UNL     1       7.835   5.171  13.332  0.00  0.00    +0.000 A 
ATOM     11  C   UNL     1       7.411   4.587  12.145  0.00  0.00    +0.000 A 
ATOM     12  C   UNL     1       6.279   3.775  12.142  0.00  0.00    +0.000 A 
ATOM     13  C   UNL     1       5.568   3.551  13.329  0.00  0.00    +0.000 A 
ENDBRANCH   7   8
BRANCH   6  15
ATOM     14  C   UNL     1       7.221   5.506  18.693  0.00  0.00    +0.000 C 
ATOM     15  S   UNL     1       6.458   5.822  17.092  0.00  0.00    +0.000 S 
ENDBRANCH   6  15
ENDBRANCH   1   6
BRANCH   2  16
ATOM     16  S   UNL     1       2.514   5.130  17.931  0.00  0.00    +0.000 S 
BRANCH  16  17
ATOM     17  C   UNL     1       3.025   6.847  18.018  0.00  0.00    +0.000 C 
BRANCH  17  18
ATOM     18  C   UNL     1       2.202   7.862  18.766  0.00  0.00    +0.000 A 
ATOM     19  C   UNL     1       1.878   7.741  20.122  0.00  0.00    +0.000 A 
ATOM     20  C   UNL     1       1.128   8.734  20.763  0.00  0.00    +0.000 A 
ATOM     21  C   UNL     1       0.708   9.865  20.064  0.00  0.00    +0.000 A 
ATOM     22  C   UNL     1       1.077  10.032  18.735  0.00  0.00    +0.000 A 
ATOM     23  C   UNL     1       1.840   9.050  18.105  0.00  0.00    +0.000 A 
ENDBRANCH  17  18
ENDBRANCH  16  17
ENDBRANCH   2  16
TORSDOF 6
ENDMDL
MODEL 3
REMARK VINA RESULT:      -6.8      0.215      1.022
REMARK  Name = 
REMARK  9 active torsions:
REMARK  status: ('A' for Active; 'I' for Inactive)
REMARK    1  A    between atoms: C_1  and  S_2
REMARK    2  A    between atoms: S_2  and  C_3
REMARK    3  A    between atoms: C_3  and  N_11
REMARK    4  A    between atoms: N_4  and  C_5
REMARK    5  A    between atoms: C_12  and  S_13
REMARK    6  A    between atoms: S_13  and  C_14
REMARK    7  A    between atoms: C_14  and  C_15
REMARK    8  A    between atoms: N_21  and  C_22
REMARK    9  A    between atoms: N_21  and  C_23
REMARK                            x       y       z     vdW  Elec       q    Type
REMARK                         _______ _______ _______ _____ _____    ______ ____
ROOT
ATOM      1  N   UNL     1       4.978   3.847  18.030  0.00  0.00    +0.000 NA
ATOM      2  C   UNL     1       3.811   4.149  18.511  0.00  0.00    +0.000 C 
ATOM      3  N   UNL     1       3.468   3.594  19.755  0.00  0.00    +0.000 N 
ATOM      4  C   UNL     1       4.231   2.480  20.318  0.00  0.00    +0.000 C 
ATOM      5  C   UNL     1       2.556   4.195  20.727  0.00  0.00    +0.000 C 
ENDROOT
BRANCH   1   6
ATOM      6  C   UNL     1       5.598   4.250  16.887  0.00  0.00    +0.000 C 
ATOM      7  N   UNL     1       5.493   3.601  15.773  0.00  0.00    +0.000 NA
BRANCH   7   8
ATOM      8  C   UNL     1       6.195   3.927  14.595  0.00  0.00    +0.000 A 
ATOM      9  C   UNL     1       5.790   3.495  13.325  0.00  0.00    +0.000 A 
ATOM     10  C   UNL     1       6.406   3.955  12.161  0.00  0.00    +0.000 A 
ATOM     11  C   UNL     1       7.434   4.885  12.248  0.00  0.00    +0.000 A 
ATOM     12  C   UNL     1       7.843   5.346  13.498  0.00  0.00    +0.000 A 
ATOM     13  C   UNL     1       7.224   4.871  14.662  0.00  0.00    +0.000 A 
ENDBRANCH   7   8
BRANCH   6  15
ATOM     14  C   UNL     1       7.549   5.436  18.422  0.00  0.00    +0.000 C 
ATOM     15  S   UNL     1       6.441   5.807  17.051  0.00  0.00    +0.000 S 
ENDBRANCH   6  15
ENDBRANCH   1   6
BRANCH   2  16
ATOM     16  S   UNL     1       2.589   5.221  17.834  0.00  0.00    +0.000 S 
BRANCH  16  17
ATOM     17  C   UNL     1       3.132   6.924  17.986  0.00  0.00    +0.000 C 
BRANCH  17  18
ATOM     18  C   UNL     1       2.253   7.960  18.637  0.00  0.00    +0.000 A 
ATOM     19  C   UNL     1       1.666   9.020  17.937  0.00  0.00    +0.000 A 
ATOM     20  C   UNL     1       0.841   9.936  18.600  0.00  0.00    +0.000 A 
ATOM     21  C   UNL     1       0.578   9.795  19.962  0.00  0.00    +0.000 A 
ATOM     22  C   UNL     1       1.099   8.711  20.657  0.00  0.00    +0.000 A 
ATOM     23  C   UNL     1       1.906   7.790  19.989  0.00  0.00    +0.000 A 
ENDBRANCH  17  18
ENDBRANCH  16  17
ENDBRANCH   2  16
TORSDOF 6
ENDMDL
MODEL 4
REMARK VINA RESULT:      -6.8      0.228      1.432
REMARK  Name = 
REMARK  9 active torsions:
REMARK  status: ('A' for Active; 'I' for Inactive)
REMARK    1  A    between atoms: C_1  and  S_2
REMARK    2  A    between atoms: S_2  and  C_3
REMARK    3  A    between atoms: C_3  and  N_11
REMARK    4  A    between atoms: N_4  and  C_5
REMARK    5  A    between atoms: C_12  and  S_13
REMARK    6  A    between atoms: S_13  and  C_14
REMARK    7  A    between atoms: C_14  and  C_15
REMARK    8  A    between atoms: N_21  and  C_22
REMARK    9  A    between atoms: N_21  and  C_23
REMARK                            x       y       z     vdW  Elec       q    Type
REMARK                         _______ _______ _______ _____ _____    ______ ____
ROOT
ATOM      1  N   UNL     1       4.957   3.828  18.050  0.00  0.00    +0.000 NA
ATOM      2  C   UNL     1       3.784   4.124  18.520  0.00  0.00    +0.000 C 
ATOM      3  N   UNL     1       3.432   3.569  19.760  0.00  0.00    +0.000 N 
ATOM      4  C   UNL     1       4.195   2.459  20.332  0.00  0.00    +0.000 C 
ATOM      5  C   UNL     1       2.507   4.166  20.723  0.00  0.00    +0.000 C 
ENDROOT
BRANCH   1   6
ATOM      6  C   UNL     1       5.586   4.233  16.913  0.00  0.00    +0.000 C 
ATOM      7  N   UNL     1       5.496   3.582  15.799  0.00  0.00    +0.000 NA
BRANCH   7   8
ATOM      8  C   UNL     1       6.209   3.910  14.628  0.00  0.00    +0.000 A 
ATOM      9  C   UNL     1       5.866   3.411  13.364  0.00  0.00    +0.000 A 
ATOM     10  C   UNL     1       6.482   3.869  12.200  0.00  0.00    +0.000 A 
ATOM     11  C   UNL     1       7.448   4.864  12.279  0.00  0.00    +0.000 A 
ATOM     12  C   UNL     1       7.794   5.392  13.521  0.00  0.00    +0.000 A 
ATOM     13  C   UNL     1       7.175   4.919  14.686  0.00  0.00    +0.000 A 
ENDBRANCH   7   8
BRANCH   6  15
ATOM     14  C   UNL     1       7.486   5.446  18.490  0.00  0.00    +0.000 C 
ATOM     15  S   UNL     1       6.418   5.796  17.083  0.00  0.00    +0.000 S 
ENDBRANCH   6  15
ENDBRANCH   1   6
BRANCH   2  16
ATOM     16  S   UNL     1       2.564   5.190  17.830  0.00  0.00    +0.000 S 
BRANCH  16  17
ATOM     17  C   UNL     1       3.098   6.896  17.982  0.00  0.00    +0.000 C 
BRANCH  17  18
ATOM     18  C   UNL     1       2.254   7.908  18.711  0.00  0.00    +0.000 A 
ATOM     19  C   UNL     1       1.867   7.766  20.048  0.00  0.00    +0.000 A 
ATOM     20  C   UNL     1       1.100   8.757  20.672  0.00  0.00    +0.000 A 
ATOM     21  C   UNL     1       0.728   9.907  19.977  0.00  0.00    +0.000 A 
ATOM     22  C   UNL     1       1.160  10.094  18.670  0.00  0.00    +0.000 A 
ATOM     23  C   UNL     1       1.939   9.113  18.057  0.00  0.00    +0.000 A 
ENDBRANCH  17  18
ENDBRANCH  16  17
ENDBRANCH   2  16
TORSDOF 6
ENDMDL
MODEL 5
REMARK VINA RESULT:      -6.5      2.755      7.935
REMARK  Name = 
REMARK  9 active torsions:
REMARK  status: ('A' for Active; 'I' for Inactive)
REMARK    1  A    between atoms: C_1  and  S_2
REMARK    2  A    between atoms: S_2  and  C_3
REMARK    3  A    between atoms: C_3  and  N_11
REMARK    4  A    between atoms: N_4  and  C_5
REMARK    5  A    between atoms: C_12  and  S_13
REMARK    6  A    between atoms: S_13  and  C_14
REMARK    7  A    between atoms: C_14  and  C_15
REMARK    8  A    between atoms: N_21  and  C_22
REMARK    9  A    between atoms: N_21  and  C_23
REMARK                            x       y       z     vdW  Elec       q    Type
REMARK                         _______ _______ _______ _____ _____    ______ ____
ROOT
ATOM      1  N   UNL     1       1.662   7.407  20.312  0.00  0.00    +0.000 NA
ATOM      2  C   UNL     1       2.313   6.730  19.416  0.00  0.00    +0.000 C 
ATOM      3  N   UNL     1       2.531   5.367  19.674  0.00  0.00    +0.000 N 
ATOM      4  C   UNL     1       2.333   4.815  21.015  0.00  0.00    +0.000 C 
ATOM      5  C   UNL     1       2.684   4.327  18.658  0.00  0.00    +0.000 C 
ENDROOT
BRANCH   1   6
ATOM      6  C   UNL     1       1.273   8.711  20.330  0.00  0.00    +0.000 C 
ATOM      7  N   UNL     1       0.883   9.335  19.266  0.00  0.00    +0.000 NA
BRANCH   7   8
ATOM      8  C   UNL     1       0.567  10.708  19.223  0.00  0.00    +0.000 A 
ATOM      9  C   UNL     1       1.524  11.700  18.970  0.00  0.00    +0.000 A 
ATOM     10  C   UNL     1       1.166  13.035  18.776  0.00  0.00    +0.000 A 
ATOM     11  C   UNL     1      -0.174  13.399  18.808  0.00  0.00    +0.000 A 
ATOM     12  C   UNL     1      -1.147  12.429  19.039  0.00  0.00    +0.000 A 
ATOM     13  C   UNL     1      -0.777  11.092  19.241  0.00  0.00    +0.000 A 
ENDBRANCH   7   8
BRANCH   6  15
ATOM     14  C   UNL     1      -0.479   9.077  22.420  0.00  0.00    +0.000 C 
ATOM     15  S   UNL     1       1.230   9.413  21.963  0.00  0.00    +0.000 S 
ENDBRANCH   6  15
ENDBRANCH   1   6
BRANCH   2  16
ATOM     16  S   UNL     1       2.934   7.281  17.863  0.00  0.00    +0.000 S 
BRANCH  16  17
ATOM     17  C   UNL     1       4.727   7.210  17.872  0.00  0.00    +0.000 C 
BRANCH  17  18
ATOM     18  C   UNL     1       5.465   6.211  17.018  0.00  0.00    +0.000 A 
ATOM     19  C   UNL     1       5.225   6.043  15.651  0.00  0.00    +0.000 A 
ATOM     20  C   UNL     1       5.964   5.112  14.911  0.00  0.00    +0.000 A 
ATOM     21  C   UNL     1       6.960   4.352  15.523  0.00  0.00    +0.000 A 
ATOM     22  C   UNL     1       7.255   4.554  16.866  0.00  0.00    +0.000 A 
ATOM     23  C   UNL     1       6.530   5.495  17.595  0.00  0.00    +0.000 A 
ENDBRANCH  17  18
ENDBRANCH  16  17
ENDBRANCH   2  16
TORSDOF 6
ENDMDL
MODEL 6
REMARK VINA RESULT:      -6.5      1.781      3.656
REMARK  Name = 
REMARK  9 active torsions:
REMARK  status: ('A' for Active; 'I' for Inactive)
REMARK    1  A    between atoms: C_1  and  S_2
REMARK    2  A    between atoms: S_2  and  C_3
REMARK    3  A    between atoms: C_3  and  N_11
REMARK    4  A    between atoms: N_4  and  C_5
REMARK    5  A    between atoms: C_12  and  S_13
REMARK    6  A    between atoms: S_13  and  C_14
REMARK    7  A    between atoms: C_14  and  C_15
REMARK    8  A    between atoms: N_21  and  C_22
REMARK    9  A    between atoms: N_21  and  C_23
REMARK                            x       y       z     vdW  Elec       q    Type
REMARK                         _______ _______ _______ _____ _____    ______ ____
ROOT
ATOM      1  N   UNL     1       4.613   3.632  17.942  0.00  0.00    +0.000 NA
ATOM      2  C   UNL     1       3.342   3.548  18.190  0.00  0.00    +0.000 C 
ATOM      3  N   UNL     1       2.840   2.286  18.546  0.00  0.00    +0.000 N 
ATOM      4  C   UNL     1       3.629   1.073  18.326  0.00  0.00    +0.000 C 
ATOM      5  C   UNL     1       1.673   2.047  19.394  0.00  0.00    +0.000 C 
ENDROOT
BRANCH   1   6
ATOM      6  C   UNL     1       5.385   4.704  17.614  0.00  0.00    +0.000 C 
ATOM      7  N   UNL     1       6.129   5.315  18.478  0.00  0.00    +0.000 NA
BRANCH   7   8
ATOM      8  C   UNL     1       6.864   6.486  18.204  0.00  0.00    +0.000 A 
ATOM      9  C   UNL     1       6.368   7.526  17.406  0.00  0.00    +0.000 A 
ATOM     10  C   UNL     1       7.043   8.740  17.275  0.00  0.00    +0.000 A 
ATOM     11  C   UNL     1       8.229   8.945  17.968  0.00  0.00    +0.000 A 
ATOM     12  C   UNL     1       8.735   7.935  18.784  0.00  0.00    +0.000 A 
ATOM     13  C   UNL     1       8.054   6.715  18.902  0.00  0.00    +0.000 A 
ENDBRANCH   7   8
BRANCH   6  15
ATOM     14  C   UNL     1       6.934   4.366  15.366  0.00  0.00    +0.000 C 
ATOM     15  S   UNL     1       5.364   5.086  15.877  0.00  0.00    +0.000 S 
ENDBRANCH   6  15
ENDBRANCH   1   6
BRANCH   2  16
ATOM     16  S   UNL     1       2.139   4.833  18.192  0.00  0.00    +0.000 S 
BRANCH  16  17
ATOM     17  C   UNL     1       2.613   6.100  19.370  0.00  0.00    +0.000 C 
BRANCH  17  18
ATOM     18  C   UNL     1       2.081   7.505  19.251  0.00  0.00    +0.000 A 
ATOM     19  C   UNL     1       1.507   8.203  20.319  0.00  0.00    +0.000 A 
ATOM     20  C   UNL     1       1.053   9.515  20.145  0.00  0.00    +0.000 A 
ATOM     21  C   UNL     1       1.182  10.152  18.910  0.00  0.00    +0.000 A 
ATOM     22  C   UNL     1       1.809   9.495  17.858  0.00  0.00    +0.000 A 
ATOM     23  C   UNL     1       2.277   8.194  18.041  0.00  0.00    +0.000 A 
ENDBRANCH  17  18
ENDBRANCH  16  17
ENDBRANCH   2  16
TORSDOF 6
ENDMDL
MODEL 7
REMARK VINA RESULT:      -6.4      3.164      7.478
REMARK  Name = 
REMARK  9 active torsions:
REMARK  status: ('A' for Active; 'I' for Inactive)
REMARK    1  A    between atoms: C_1  and  S_2
REMARK    2  A    between atoms: S_2  and  C_3
REMARK    3  A    between atoms: C_3  and  N_11
REMARK    4  A    between atoms: N_4  and  C_5
REMARK    5  A    between atoms: C_12  and  S_13
REMARK    6  A    between atoms: S_13  and  C_14
REMARK    7  A    between atoms: C_14  and  C_15
REMARK    8  A    between atoms: N_21  and  C_22
REMARK    9  A    between atoms: N_21  and  C_23
REMARK                            x       y       z     vdW  Elec       q    Type
REMARK                         _______ _______ _______ _____ _____    ______ ____
ROOT
ATOM      1  N   UNL     1       1.729   7.075  20.449  0.00  0.00    +0.000 NA
ATOM      2  C   UNL     1       2.240   6.276  19.563  0.00  0.00    +0.000 C 
ATOM      3  N   UNL     1       2.389   4.928  19.925  0.00  0.00    +0.000 N 
ATOM      4  C   UNL     1       2.292   4.510  21.324  0.00  0.00    +0.000 C 
ATOM      5  C   UNL     1       2.368   3.796  19.001  0.00  0.00    +0.000 C 
ENDROOT
BRANCH   1   6
ATOM      6  C   UNL     1       1.433   8.402  20.382  0.00  0.00    +0.000 C 
ATOM      7  N   UNL     1       1.157   8.997  19.267  0.00  0.00    +0.000 NA
BRANCH   7   8
ATOM      8  C   UNL     1       0.942  10.385  19.140  0.00  0.00    +0.000 A 
ATOM      9  C   UNL     1       1.956  11.280  18.772  0.00  0.00    +0.000 A 
ATOM     10  C   UNL     1       1.689  12.622  18.500  0.00  0.00    +0.000 A 
ATOM     11  C   UNL     1       0.384  13.091  18.569  0.00  0.00    +0.000 A 
ATOM     12  C   UNL     1      -0.646  12.218  18.914  0.00  0.00    +0.000 A 
ATOM     13  C   UNL     1      -0.367  10.873  19.194  0.00  0.00    +0.000 A 
ENDBRANCH   7   8
BRANCH   6  15
ATOM     14  C   UNL     1      -0.412   8.954  22.347  0.00  0.00    +0.000 C 
ATOM     15  S   UNL     1       1.335   9.186  21.975  0.00  0.00    +0.000 S 
ENDBRANCH   6  15
ENDBRANCH   1   6
BRANCH   2  16
ATOM     16  S   UNL     1       2.736   6.642  17.913  0.00  0.00    +0.000 S 
BRANCH  16  17
ATOM     17  C   UNL     1       4.132   5.610  17.462  0.00  0.00    +0.000 C 
BRANCH  17  18
ATOM     18  C   UNL     1       5.537   6.002  17.836  0.00  0.00    +0.000 A 
ATOM     19  C   UNL     1       6.245   7.027  17.200  0.00  0.00    +0.000 A 
ATOM     20  C   UNL     1       7.541   7.356  17.613  0.00  0.00    +0.000 A 
ATOM     21  C   UNL     1       8.139   6.679  18.675  0.00  0.00    +0.000 A 
ATOM     22  C   UNL     1       7.425   5.703  19.360  0.00  0.00    +0.000 A 
ATOM     23  C   UNL     1       6.127   5.391  18.957  0.00  0.00    +0.000 A 
ENDBRANCH  17  18
ENDBRANCH  16  17
ENDBRANCH   2  16
TORSDOF 6
ENDMDL
MODEL 8
REMARK VINA RESULT:      -6.3      3.178      7.617
REMARK  Name = 
REMARK  9 active torsions:
REMARK  status: ('A' for Active; 'I' for Inactive)
REMARK    1  A    between atoms: C_1  and  S_2
REMARK    2  A    between atoms: S_2  and  C_3
REMARK    3  A    between atoms: C_3  and  N_11
REMARK    4  A    between atoms: N_4  and  C_5
REMARK    5  A    between atoms: C_12  and  S_13
REMARK    6  A    between atoms: S_13  and  C_14
REMARK    7  A    between atoms: C_14  and  C_15
REMARK    8  A    between atoms: N_21  and  C_22
REMARK    9  A    between atoms: N_21  and  C_23
REMARK                            x       y       z     vdW  Elec       q    Type
REMARK                         _______ _______ _______ _____ _____    ______ ____
ROOT
ATOM      1  N   UNL     1       1.696   7.224  20.378  0.00  0.00    +0.000 NA
ATOM      2  C   UNL     1       2.231   6.443  19.491  0.00  0.00    +0.000 C 
ATOM      3  N   UNL     1       2.406   5.095  19.846  0.00  0.00    +0.000 N 
ATOM      4  C   UNL     1       2.304   4.665  21.241  0.00  0.00    +0.000 C 
ATOM      5  C   UNL     1       2.417   3.969  18.913  0.00  0.00    +0.000 C 
ENDROOT
BRANCH   1   6
ATOM      6  C   UNL     1       1.372   8.545  20.317  0.00  0.00    +0.000 C 
ATOM      7  N   UNL     1       1.062   9.135  19.208  0.00  0.00    +0.000 NA
BRANCH   7   8
ATOM      8  C   UNL     1       0.818  10.518  19.086  0.00  0.00    +0.000 A 
ATOM      9  C   UNL     1       1.823  11.442  18.769  0.00  0.00    +0.000 A 
ATOM     10  C   UNL     1       1.534  12.780  18.499  0.00  0.00    +0.000 A 
ATOM     11  C   UNL     1       0.216  13.215  18.519  0.00  0.00    +0.000 A 
ATOM     12  C   UNL     1      -0.805  12.313  18.812  0.00  0.00    +0.000 A 
ATOM     13  C   UNL     1      -0.504  10.973  19.091  0.00  0.00    +0.000 A 
ENDBRANCH   7   8
BRANCH   6  15
ATOM     14  C   UNL     1      -0.429   9.015  22.343  0.00  0.00    +0.000 C 
ATOM     15  S   UNL     1       1.292   9.327  21.912  0.00  0.00    +0.000 S 
ENDBRANCH   6  15
ENDBRANCH   1   6
BRANCH   2  16
ATOM     16  S   UNL     1       2.736   6.830  17.849  0.00  0.00    +0.000 S 
BRANCH  16  17
ATOM     17  C   UNL     1       4.125   5.795  17.385  0.00  0.00    +0.000 C 
BRANCH  17  18
ATOM     18  C   UNL     1       5.514   6.095  17.885  0.00  0.00    +0.000 A 
ATOM     19  C   UNL     1       6.126   5.390  18.926  0.00  0.00    +0.000 A 
ATOM     20  C   UNL     1       7.430   5.706  19.326  0.00  0.00    +0.000 A 
ATOM     21  C   UNL     1       8.143   6.716  18.681  0.00  0.00    +0.000 A 
ATOM     22  C   UNL     1       7.574   7.381  17.602  0.00  0.00    +0.000 A 
ATOM     23  C   UNL     1       6.282   7.051  17.195  0.00  0.00    +0.000 A 
ENDBRANCH  17  18
ENDBRANCH  16  17
ENDBRANCH   2  16
TORSDOF 6
ENDMDL
MODEL 9
REMARK VINA RESULT:      -6.2      8.605     11.315
REMARK  Name = 
REMARK  9 active torsions:
REMARK  status: ('A' for Active; 'I' for Inactive)
REMARK    1  A    between atoms: C_1  and  S_2
REMARK    2  A    between atoms: S_2  and  C_3
REMARK    3  A    between atoms: C_3  and  N_11
REMARK    4  A    between atoms: N_4  and  C_5
REMARK    5  A    between atoms: C_12  and  S_13
REMARK    6  A    between atoms: S_13  and  C_14
REMARK    7  A    between atoms: C_14  and  C_15
REMARK    8  A    between atoms: N_21  and  C_22
REMARK    9  A    between atoms: N_21  and  C_23
REMARK                            x       y       z     vdW  Elec       q    Type
REMARK                         _______ _______ _______ _____ _____    ______ ____
ROOT
ATOM      1  N   UNL     1      -4.090  13.891  21.059  0.00  0.00    +0.000 NA
ATOM      2  C   UNL     1      -3.687  13.803  22.289  0.00  0.00    +0.000 C 
ATOM      3  N   UNL     1      -3.815  14.950  23.089  0.00  0.00    +0.000 N 
ATOM      4  C   UNL     1      -4.071  16.260  22.490  0.00  0.00    +0.000 C 
ATOM      5  C   UNL     1      -3.993  14.954  24.540  0.00  0.00    +0.000 C 
ENDROOT
BRANCH   1   6
ATOM      6  C   UNL     1      -4.128  12.958  20.069  0.00  0.00    +0.000 C 
ATOM      7  N   UNL     1      -3.060  12.408  19.590  0.00  0.00    +0.000 NA
BRANCH   7   8
ATOM      8  C   UNL     1      -3.048  11.514  18.500  0.00  0.00    +0.000 A 
ATOM      9  C   UNL     1      -3.937  11.619  17.421  0.00  0.00    +0.000 A 
ATOM     10  C   UNL     1      -3.808  10.824  16.282  0.00  0.00    +0.000 A 
ATOM     11  C   UNL     1      -2.761   9.917  16.192  0.00  0.00    +0.000 A 
ATOM     12  C   UNL     1      -1.851   9.806  17.242  0.00  0.00    +0.000 A 
ATOM     13  C   UNL     1      -1.994  10.603  18.386  0.00  0.00    +0.000 A 
ENDBRANCH   7   8
BRANCH   6  15
ATOM     14  C   UNL     1      -6.453  12.033  21.213  0.00  0.00    +0.000 C 
ATOM     15  S   UNL     1      -5.779  12.486  19.605  0.00  0.00    +0.000 S 
ENDBRANCH   6  15
ENDBRANCH   1   6
BRANCH   2  16
ATOM     16  S   UNL     1      -3.035  12.401  23.132  0.00  0.00    +0.000 S 
BRANCH  16  17
ATOM     17  C   UNL     1      -1.252  12.356  22.935  0.00  0.00    +0.000 C 
BRANCH  17  18
ATOM     18  C   UNL     1      -0.574  11.173  22.296  0.00  0.00    +0.000 A 
ATOM     19  C   UNL     1       0.273  11.278  21.188  0.00  0.00    +0.000 A 
ATOM     20  C   UNL     1       0.889  10.139  20.657  0.00  0.00    +0.000 A 
ATOM     21  C   UNL     1       0.682   8.887  21.236  0.00  0.00    +0.000 A 
ATOM     22  C   UNL     1      -0.103   8.775  22.376  0.00  0.00    +0.000 A 
ATOM     23  C   UNL     1      -0.701   9.915  22.913  0.00  0.00    +0.000 A 
ENDBRANCH  17  18
ENDBRANCH  16  17
ENDBRANCH   2  16
TORSDOF 6
ENDMDL
