MODEL 1
REMARK VINA RESULT:      -7.4      0.000      0.000
REMARK  Name = 
REMARK  3 active torsions:
REMARK  status: ('A' for Active; 'I' for Inactive)
REMARK    1  A    between atoms: C_1  and  C_2
REMARK    2  A    between atoms: C_4  and  C_5
REMARK    3  A    between atoms: C_6  and  C_7
REMARK                            x       y       z     vdW  Elec       q    Type
REMARK                         _______ _______ _______ _____ _____    ______ ____
ROOT
ATOM      1  C   UNL     1       8.026   8.145  18.019  0.00  0.00    +0.000 C 
ATOM      2  C   UNL     1       8.589   9.156  18.350  0.00  0.00    +0.000 C 
ENDROOT
BRANCH   2   3
ATOM      3  C   UNL     1       9.274  10.351  18.746  0.00  0.00    +0.000 A 
ATOM      4  C   UNL     1       9.361  10.687  20.096  0.00  0.00    +0.000 A 
ATOM      5  C   UNL     1      10.030  11.846  20.475  0.00  0.00    +0.000 A 
ATOM      6  F   UNL     1      10.112  12.164  21.774  0.00  0.00    +0.000 F 
ATOM      7  C   UNL     1      10.617  12.683  19.533  0.00  0.00    +0.000 A 
ATOM      8  C   UNL     1      10.527  12.345  18.185  0.00  0.00    +0.000 A 
ATOM      9 BR   UNL     1      11.319  13.471  16.889  0.00  0.00    +0.000 Br
ATOM     10  C   UNL     1       9.859  11.184  17.785  0.00  0.00    +0.000 A 
ENDBRANCH   2   3
BRANCH   1  14
ATOM     11  C   UNL     1       6.762   4.571  14.896  0.00  0.00    +0.000 C 
ATOM     12  C   UNL     1       6.895   5.337  16.168  0.00  0.00    +0.000 A 
ATOM     13  N   UNL     1       7.510   6.498  16.301  0.00  0.00    +0.000 NA
ATOM     14  C   UNL     1       7.433   6.908  17.618  0.00  0.00    +0.000 A 
ATOM     15  C   UNL     1       6.765   6.062  18.473  0.00  0.00    +0.000 A 
ATOM     16  S   UNL     1       6.203   4.694  17.610  0.00  0.00    +0.000 S 
ENDBRANCH   1  14
TORSDOF 2
ENDMDL
MODEL 2
REMARK VINA RESULT:      -6.9      1.720      1.920
REMARK  Name = 
REMARK  3 active torsions:
REMARK  status: ('A' for Active; 'I' for Inactive)
REMARK    1  A    between atoms: C_1  and  C_2
REMARK    2  A    between atoms: C_4  and  C_5
REMARK    3  A    between atoms: C_6  and  C_7
REMARK                            x       y       z     vdW  Elec       q    Type
REMARK                         _______ _______ _______ _____ _____    ______ ____
ROOT
ATOM      1  C   UNL     1       7.867   8.080  17.765  0.00  0.00    +0.000 C 
ATOM      2  C   UNL     1       8.332   9.176  17.952  0.00  0.00    +0.000 C 
ENDROOT
BRANCH   2   3
ATOM      3  C   UNL     1       8.887  10.480  18.157  0.00  0.00    +0.000 A 
ATOM      4  C   UNL     1       8.189  11.608  17.728  0.00  0.00    +0.000 A 
ATOM      5  C   UNL     1       8.732  12.873  17.933  0.00  0.00    +0.000 A 
ATOM      6  F   UNL     1       8.056  13.953  17.520  0.00  0.00    +0.000 F 
ATOM      7  C   UNL     1       9.962  13.039  18.557  0.00  0.00    +0.000 A 
ATOM      8  C   UNL     1      10.657  11.910  18.982  0.00  0.00    +0.000 A 
ATOM      9 BR   UNL     1      12.333  12.117  19.834  0.00  0.00    +0.000 Br
ATOM     10  C   UNL     1      10.129  10.631  18.786  0.00  0.00    +0.000 A 
ENDBRANCH   2   3
BRANCH   1  14
ATOM     11  C   UNL     1       6.625   4.284  14.908  0.00  0.00    +0.000 C 
ATOM     12  C   UNL     1       6.784   5.125  16.128  0.00  0.00    +0.000 A 
ATOM     13  N   UNL     1       7.347   6.319  16.167  0.00  0.00    +0.000 NA
ATOM     14  C   UNL     1       7.316   6.797  17.462  0.00  0.00    +0.000 A 
ATOM     15  C   UNL     1       6.735   5.970  18.395  0.00  0.00    +0.000 A 
ATOM     16  S   UNL     1       6.199   4.531  17.636  0.00  0.00    +0.000 S 
ENDBRANCH   1  14
TORSDOF 2
ENDMDL
MODEL 3
REMARK VINA RESULT:      -6.8      1.861      2.210
REMARK  Name = 
REMARK  3 active torsions:
REMARK  status: ('A' for Active; 'I' for Inactive)
REMARK    1  A    between atoms: C_1  and  C_2
REMARK    2  A    between atoms: C_4  and  C_5
REMARK    3  A    between atoms: C_6  and  C_7
REMARK                            x       y       z     vdW  Elec       q    Type
REMARK                         _______ _______ _______ _____ _____    ______ ____
ROOT
ATOM      1  C   UNL     1       8.198   8.135  18.083  0.00  0.00    +0.000 C 
ATOM      2  C   UNL     1       8.668   9.196  18.403  0.00  0.00    +0.000 C 
ENDROOT
BRANCH   2   3
ATOM      3  C   UNL     1       9.212  10.466  18.783  0.00  0.00    +0.000 A 
ATOM      4  C   UNL     1       9.926  11.222  17.854  0.00  0.00    +0.000 A 
ATOM      5  C   UNL     1      10.449  12.456  18.227  0.00  0.00    +0.000 A 
ATOM      6  F   UNL     1      11.133  13.178  17.330  0.00  0.00    +0.000 F 
ATOM      7  C   UNL     1      10.277  12.955  19.513  0.00  0.00    +0.000 A 
ATOM      8  C   UNL     1       9.565  12.197  20.438  0.00  0.00    +0.000 A 
ATOM      9 BR   UNL     1       9.320  12.860  22.192  0.00  0.00    +0.000 Br
ATOM     10  C   UNL     1       9.031  10.955  20.082  0.00  0.00    +0.000 A 
ENDBRANCH   2   3
BRANCH   1  14
ATOM     11  C   UNL     1       6.497   4.713  14.998  0.00  0.00    +0.000 C 
ATOM     12  C   UNL     1       6.822   5.410  16.275  0.00  0.00    +0.000 A 
ATOM     13  N   UNL     1       7.434   6.575  16.376  0.00  0.00    +0.000 NA
ATOM     14  C   UNL     1       7.564   6.910  17.710  0.00  0.00    +0.000 A 
ATOM     15  C   UNL     1       7.053   6.003  18.609  0.00  0.00    +0.000 A 
ATOM     16  S   UNL     1       6.378   4.673  17.768  0.00  0.00    +0.000 S 
ENDBRANCH   1  14
TORSDOF 2
ENDMDL
MODEL 4
REMARK VINA RESULT:      -6.7      1.270      1.281
REMARK  Name = 
REMARK  3 active torsions:
REMARK  status: ('A' for Active; 'I' for Inactive)
REMARK    1  A    between atoms: C_1  and  C_2
REMARK    2  A    between atoms: C_4  and  C_5
REMARK    3  A    between atoms: C_6  and  C_7
REMARK                            x       y       z     vdW  Elec       q    Type
REMARK                         _______ _______ _______ _____ _____    ______ ____
ROOT
ATOM      1  C   UNL     1       8.097   8.227  17.895  0.00  0.00    +0.000 C 
ATOM      2  C   UNL     1       8.522   9.317  18.184  0.00  0.00    +0.000 C 
ENDROOT
BRANCH   2   3
ATOM      3  C   UNL     1       9.012  10.616  18.536  0.00  0.00    +0.000 A 
ATOM      4  C   UNL     1      10.129  10.736  19.363  0.00  0.00    +0.000 A 
ATOM      5  C   UNL     1      10.602  12.000  19.699  0.00  0.00    +0.000 A 
ATOM      6  F   UNL     1      11.676  12.110  20.493  0.00  0.00    +0.000 F 
ATOM      7  C   UNL     1       9.984  13.153  19.229  0.00  0.00    +0.000 A 
ATOM      8  C   UNL     1       8.870  13.029  18.405  0.00  0.00    +0.000 A 
ATOM      9 BR   UNL     1       8.016  14.586  17.755  0.00  0.00    +0.000 Br
ATOM     10  C   UNL     1       8.378  11.768  18.055  0.00  0.00    +0.000 A 
ENDBRANCH   2   3
BRANCH   1  14
ATOM     11  C   UNL     1       6.599   4.502  15.068  0.00  0.00    +0.000 C 
ATOM     12  C   UNL     1       6.883   5.305  16.291  0.00  0.00    +0.000 A 
ATOM     13  N   UNL     1       7.426   6.508  16.306  0.00  0.00    +0.000 NA
ATOM     14  C   UNL     1       7.536   6.944  17.613  0.00  0.00    +0.000 A 
ATOM     15  C   UNL     1       7.080   6.074  18.577  0.00  0.00    +0.000 A 
ATOM     16  S   UNL     1       6.485   4.651  17.835  0.00  0.00    +0.000 S 
ENDBRANCH   1  14
TORSDOF 2
ENDMDL
MODEL 5
REMARK VINA RESULT:      -6.4      4.548      7.415
REMARK  Name = 
REMARK  3 active torsions:
REMARK  status: ('A' for Active; 'I' for Inactive)
REMARK    1  A    between atoms: C_1  and  C_2
REMARK    2  A    between atoms: C_4  and  C_5
REMARK    3  A    between atoms: C_6  and  C_7
REMARK                            x       y       z     vdW  Elec       q    Type
REMARK                         _______ _______ _______ _____ _____    ______ ____
ROOT
ATOM      1  C   UNL     1       8.222   8.843  18.050  0.00  0.00    +0.000 C 
ATOM      2  C   UNL     1       7.695   7.787  17.812  0.00  0.00    +0.000 C 
ENDROOT
BRANCH   2   3
ATOM      3  C   UNL     1       7.056   6.533  17.542  0.00  0.00    +0.000 A 
ATOM      4  C   UNL     1       6.501   5.797  18.588  0.00  0.00    +0.000 A 
ATOM      5  C   UNL     1       5.879   4.582  18.319  0.00  0.00    +0.000 A 
ATOM      6  F   UNL     1       5.346   3.879  19.327  0.00  0.00    +0.000 F 
ATOM      7  C   UNL     1       5.800   4.081  17.025  0.00  0.00    +0.000 A 
ATOM      8  C   UNL     1       6.356   4.818  15.984  0.00  0.00    +0.000 A 
ATOM      9 BR   UNL     1       6.257   4.153  14.217  0.00  0.00    +0.000 Br
ATOM     10  C   UNL     1       6.985   6.042  16.233  0.00  0.00    +0.000 A 
ENDBRANCH   2   3
BRANCH   1  14
ATOM     11  C   UNL     1      10.970  12.012  20.605  0.00  0.00    +0.000 C 
ATOM     12  C   UNL     1      10.036  11.487  19.569  0.00  0.00    +0.000 A 
ATOM     13  N   UNL     1       9.649  10.231  19.453  0.00  0.00    +0.000 NA
ATOM     14  C   UNL     1       8.784  10.114  18.383  0.00  0.00    +0.000 A 
ATOM     15  C   UNL     1       8.520  11.276  17.694  0.00  0.00    +0.000 A 
ATOM     16  S   UNL     1       9.381  12.575  18.404  0.00  0.00    +0.000 S 
ENDBRANCH   1  14
TORSDOF 2
ENDMDL
MODEL 6
REMARK VINA RESULT:      -6.4      6.474      7.908
REMARK  Name = 
REMARK  3 active torsions:
REMARK  status: ('A' for Active; 'I' for Inactive)
REMARK    1  A    between atoms: C_1  and  C_2
REMARK    2  A    between atoms: C_4  and  C_5
REMARK    3  A    between atoms: C_6  and  C_7
REMARK                            x       y       z     vdW  Elec       q    Type
REMARK                         _______ _______ _______ _____ _____    ______ ____
ROOT
ATOM      1  C   UNL     1       3.198   7.413  18.005  0.00  0.00    +0.000 C 
ATOM      2  C   UNL     1       4.076   6.709  17.576  0.00  0.00    +0.000 C 
ENDROOT
BRANCH   2   3
ATOM      3  C   UNL     1       5.132   5.885  17.066  0.00  0.00    +0.000 A 
ATOM      4  C   UNL     1       6.211   5.554  17.884  0.00  0.00    +0.000 A 
ATOM      5  C   UNL     1       7.231   4.751  17.384  0.00  0.00    +0.000 A 
ATOM      6  F   UNL     1       8.266   4.434  18.175  0.00  0.00    +0.000 F 
ATOM      7  C   UNL     1       7.200   4.269  16.081  0.00  0.00    +0.000 A 
ATOM      8  C   UNL     1       6.121   4.603  15.267  0.00  0.00    +0.000 A 
ATOM      9 BR   UNL     1       6.062   3.957  13.491  0.00  0.00    +0.000 Br
ATOM     10  C   UNL     1       5.086   5.409  15.750  0.00  0.00    +0.000 A 
ENDBRANCH   2   3
BRANCH   1  14
ATOM     11  C   UNL     1       0.183   9.264  21.411  0.00  0.00    +0.000 C 
ATOM     12  C   UNL     1       0.883   9.089  20.106  0.00  0.00    +0.000 A 
ATOM     13  N   UNL     1       1.786   8.164  19.841  0.00  0.00    +0.000 NA
ATOM     14  C   UNL     1       2.215   8.304  18.536  0.00  0.00    +0.000 A 
ATOM     15  C   UNL     1       1.640   9.329  17.821  0.00  0.00    +0.000 A 
ATOM     16  S   UNL     1       0.513  10.159  18.807  0.00  0.00    +0.000 S 
ENDBRANCH   1  14
TORSDOF 2
ENDMDL
MODEL 7
REMARK VINA RESULT:      -6.3      4.469      7.275
REMARK  Name = 
REMARK  3 active torsions:
REMARK  status: ('A' for Active; 'I' for Inactive)
REMARK    1  A    between atoms: C_1  and  C_2
REMARK    2  A    between atoms: C_4  and  C_5
REMARK    3  A    between atoms: C_6  and  C_7
REMARK                            x       y       z     vdW  Elec       q    Type
REMARK                         _______ _______ _______ _____ _____    ______ ____
ROOT
ATOM      1  C   UNL     1       8.373   8.877  18.207  0.00  0.00    +0.000 C 
ATOM      2  C   UNL     1       7.811   7.845  17.943  0.00  0.00    +0.000 C 
ENDROOT
BRANCH   2   3
ATOM      3  C   UNL     1       7.150   6.610  17.644  0.00  0.00    +0.000 A 
ATOM      4  C   UNL     1       6.570   5.866  18.670  0.00  0.00    +0.000 A 
ATOM      5  C   UNL     1       5.926   4.669  18.372  0.00  0.00    +0.000 A 
ATOM      6  F   UNL     1       5.369   3.958  19.362  0.00  0.00    +0.000 F 
ATOM      7  C   UNL     1       5.848   4.195  17.069  0.00  0.00    +0.000 A 
ATOM      8  C   UNL     1       6.429   4.940  16.047  0.00  0.00    +0.000 A 
ATOM      9 BR   UNL     1       6.332   4.311  14.266  0.00  0.00    +0.000 Br
ATOM     10  C   UNL     1       7.080   6.145  16.325  0.00  0.00    +0.000 A 
ENDBRANCH   2   3
BRANCH   1  14
ATOM     11  C   UNL     1      10.680  13.159  17.526  0.00  0.00    +0.000 C 
ATOM     12  C   UNL     1      10.083  11.986  18.225  0.00  0.00    +0.000 A 
ATOM     13  N   UNL     1       9.482  10.969  17.636  0.00  0.00    +0.000 NA
ATOM     14  C   UNL     1       9.056  10.071  18.596  0.00  0.00    +0.000 A 
ATOM     15  C   UNL     1       9.333  10.409  19.900  0.00  0.00    +0.000 A 
ATOM     16  S   UNL     1      10.162  11.907  19.945  0.00  0.00    +0.000 S 
ENDBRANCH   1  14
TORSDOF 2
ENDMDL
MODEL 8
REMARK VINA RESULT:      -6.3      2.048      2.393
REMARK  Name = 
REMARK  3 active torsions:
REMARK  status: ('A' for Active; 'I' for Inactive)
REMARK    1  A    between atoms: C_1  and  C_2
REMARK    2  A    between atoms: C_4  and  C_5
REMARK    3  A    between atoms: C_6  and  C_7
REMARK                            x       y       z     vdW  Elec       q    Type
REMARK                         _______ _______ _______ _____ _____    ______ ____
ROOT
ATOM      1  C   UNL     1       8.576   8.832  18.533  0.00  0.00    +0.000 C 
ATOM      2  C   UNL     1       9.113   9.885  18.762  0.00  0.00    +0.000 C 
ENDROOT
BRANCH   2   3
ATOM      3  C   UNL     1       9.768  11.131  19.030  0.00  0.00    +0.000 A 
ATOM      4  C   UNL     1      10.754  11.598  18.161  0.00  0.00    +0.000 A 
ATOM      5  C   UNL     1      11.384  12.810  18.425  0.00  0.00    +0.000 A 
ATOM      6  F   UNL     1      12.330  13.255  17.587  0.00  0.00    +0.000 F 
ATOM      7  C   UNL     1      11.053  13.570  19.540  0.00  0.00    +0.000 A 
ATOM      8  C   UNL     1      10.069  13.100  20.405  0.00  0.00    +0.000 A 
ATOM      9 BR   UNL     1       9.605  14.120  21.928  0.00  0.00    +0.000 Br
ATOM     10  C   UNL     1       9.424  11.884  20.159  0.00  0.00    +0.000 A 
ENDBRANCH   2   3
BRANCH   1  14
ATOM     11  C   UNL     1       6.153   5.537  15.814  0.00  0.00    +0.000 C 
ATOM     12  C   UNL     1       6.912   6.125  16.954  0.00  0.00    +0.000 A 
ATOM     13  N   UNL     1       7.350   7.369  17.021  0.00  0.00    +0.000 NA
ATOM     14  C   UNL     1       8.007   7.559  18.221  0.00  0.00    +0.000 A 
ATOM     15  C   UNL     1       8.064   6.466  19.055  0.00  0.00    +0.000 A 
ATOM     16  S   UNL     1       7.266   5.139  18.322  0.00  0.00    +0.000 S 
ENDBRANCH   1  14
TORSDOF 2
ENDMDL
MODEL 9
REMARK VINA RESULT:      -6.3      4.935      7.735
REMARK  Name = 
REMARK  3 active torsions:
REMARK  status: ('A' for Active; 'I' for Inactive)
REMARK    1  A    between atoms: C_1  and  C_2
REMARK    2  A    between atoms: C_4  and  C_5
REMARK    3  A    between atoms: C_6  and  C_7
REMARK                            x       y       z     vdW  Elec       q    Type
REMARK                         _______ _______ _______ _____ _____    ______ ____
ROOT
ATOM      1  C   UNL     1       7.875   8.613  17.838  0.00  0.00    +0.000 C 
ATOM      2  C   UNL     1       7.239   7.657  17.477  0.00  0.00    +0.000 C 
ENDROOT
BRANCH   2   3
ATOM      3  C   UNL     1       6.469   6.524  17.056  0.00  0.00    +0.000 A 
ATOM      4  C   UNL     1       6.986   5.647  16.103  0.00  0.00    +0.000 A 
ATOM      5  C   UNL     1       6.234   4.547  15.701  0.00  0.00    +0.000 A 
ATOM      6  F   UNL     1       6.736   3.708  14.786  0.00  0.00    +0.000 F 
ATOM      7  C   UNL     1       4.973   4.301  16.231  0.00  0.00    +0.000 A 
ATOM      8  C   UNL     1       4.460   5.178  17.181  0.00  0.00    +0.000 A 
ATOM      9 BR   UNL     1       2.746   4.859  17.913  0.00  0.00    +0.000 Br
ATOM     10  C   UNL     1       5.199   6.289  17.598  0.00  0.00    +0.000 A 
ENDBRANCH   2   3
BRANCH   1  14
ATOM     11  C   UNL     1       9.278  13.319  17.753  0.00  0.00    +0.000 C 
ATOM     12  C   UNL     1       9.152  11.903  18.202  0.00  0.00    +0.000 A 
ATOM     13  N   UNL     1       8.438  10.970  17.599  0.00  0.00    +0.000 NA
ATOM     14  C   UNL     1       8.558   9.782  18.294  0.00  0.00    +0.000 A 
ATOM     15  C   UNL     1       9.357   9.819  19.414  0.00  0.00    +0.000 A 
ATOM     16  S   UNL     1       9.993  11.396  19.618  0.00  0.00    +0.000 S 
ENDBRANCH   1  14
TORSDOF 2
ENDMDL
