MODEL 1
REMARK VINA RESULT:      -8.3      0.000      0.000
REMARK  Name = 
REMARK  10 active torsions:
REMARK  status: ('A' for Active; 'I' for Inactive)
REMARK    1  A    between atoms: C_1  and  C_2
REMARK    2  A    between atoms: C_4  and  C_5
REMARK    3  A    between atoms: C_8  and  C_9
REMARK    4  A    between atoms: C_10  and  S_11
REMARK    5  A    between atoms: S_11  and  N_14
REMARK    6  A    between atoms: N_14  and  C_15
REMARK    7  A    between atoms: C_15  and  C_16
REMARK    8  A    between atoms: C_16  and  C_17
REMARK    9  A    between atoms: C_17  and  N_18
REMARK   10  A    between atoms: N_21  and  C_22
REMARK                            x       y       z     vdW  Elec       q    Type
REMARK                         _______ _______ _______ _____ _____    ______ ____
ROOT
ATOM      1  N   UNL     1       6.824   7.596  17.190  0.00  0.00    +0.000 NA
ATOM      2  H   UNL     1       5.984   8.056  17.537  0.00  0.00    +0.000 HD
ENDROOT
BRANCH   1   3
ATOM      3  S   UNL     1       6.464   5.997  16.768  0.00  0.00    +0.000 S 
ATOM      4  O   UNL     1       7.332   5.136  17.542  0.00  0.00    +0.000 OA
ATOM      5  O   UNL     1       6.442   5.950  15.324  0.00  0.00    +0.000 OA
BRANCH   3  11
ATOM      6  C   UNL     1       2.771   7.016  18.080  0.00  0.00    +0.000 A 
ATOM      7  C   UNL     1       2.092   5.794  18.090  0.00  0.00    +0.000 A 
ATOM      8  C   UNL     1       2.734   4.607  17.734  0.00  0.00    +0.000 A 
ATOM      9  C   UNL     1       4.085   4.595  17.358  0.00  0.00    +0.000 A 
ATOM     10  C   UNL     1       4.701   3.266  17.027  0.00  0.00    +0.000 C 
ATOM     11  C   UNL     1       4.766   5.824  17.307  0.00  0.00    +0.000 A 
ATOM     12  C   UNL     1       4.105   7.023  17.654  0.00  0.00    +0.000 A 
BRANCH   6  16
ATOM     13  C   UNL     1       0.416  11.462  18.780  0.00  0.00    +0.000 C 
ATOM     14  C   UNL     1       1.044  10.129  18.911  0.00  0.00    +0.000 A 
ATOM     15  C   UNL     1       1.676   9.373  17.903  0.00  0.00    +0.000 A 
ATOM     16  C   UNL     1       2.089   8.223  18.531  0.00  0.00    +0.000 A 
ATOM     17  O   UNL     1       1.721   8.289  19.843  0.00  0.00    +0.000 OA
ATOM     18  N   UNL     1       1.060   9.485  20.084  0.00  0.00    +0.000 NA
ENDBRANCH   6  16
ENDBRANCH   3  11
ENDBRANCH   1   3
BRANCH   1  19
ATOM     19  C   UNL     1       8.025   7.834  18.008  0.00  0.00    +0.000 C 
BRANCH  19  20
ATOM     20  C   UNL     1       8.462   9.299  17.885  0.00  0.00    +0.000 C 
BRANCH  20  21
ATOM     21  C   UNL     1       8.880   9.956  19.216  0.00  0.00    +0.000 C 
BRANCH  21  22
ATOM     22  N   UNL     1      10.089  10.784  19.093  0.00  0.00    +0.000 NA
ATOM     23  C   UNL     1      10.067  11.659  17.895  0.00  0.00    +0.000 C 
ATOM     24  C   UNL     1       9.053  12.820  17.963  0.00  0.00    +0.000 C 
ATOM     25  N   UNL     1       9.260  13.645  19.160  0.00  0.00    +0.000 N 
ATOM     26  C   UNL     1       9.388  12.896  20.427  0.00  0.00    +0.000 C 
ATOM     27  C   UNL     1      10.305  11.649  20.283  0.00  0.00    +0.000 C 
BRANCH  25  28
ATOM     28  C   UNL     1       9.820  14.916  19.063  0.00  0.00    +0.000 A 
ATOM     29  C   UNL     1      11.212  15.071  19.204  0.00  0.00    +0.000 A 
ATOM     30  C   UNL     1      11.827  16.328  19.158  0.00  0.00    +0.000 A 
ATOM     31  C   UNL     1      11.065  17.475  18.965  0.00  0.00    +0.000 A 
ATOM     32  C   UNL     1       9.685  17.359  18.827  0.00  0.00    +0.000 A 
ATOM     33  C   UNL     1       9.080  16.101  18.881  0.00  0.00    +0.000 A 
ATOM     34  F   UNL     1       7.748  16.060  18.719  0.00  0.00    +0.000 F 
ENDBRANCH  25  28
ENDBRANCH  21  22
ENDBRANCH  20  21
ENDBRANCH  19  20
ENDBRANCH   1  19
TORSDOF 8
ENDMDL
MODEL 2
REMARK VINA RESULT:      -7.9      4.040      9.827
REMARK  Name = 
REMARK  10 active torsions:
REMARK  status: ('A' for Active; 'I' for Inactive)
REMARK    1  A    between atoms: C_1  and  C_2
REMARK    2  A    between atoms: C_4  and  C_5
REMARK    3  A    between atoms: C_8  and  C_9
REMARK    4  A    between atoms: C_10  and  S_11
REMARK    5  A    between atoms: S_11  and  N_14
REMARK    6  A    between atoms: N_14  and  C_15
REMARK    7  A    between atoms: C_15  and  C_16
REMARK    8  A    between atoms: C_16  and  C_17
REMARK    9  A    between atoms: C_17  and  N_18
REMARK   10  A    between atoms: N_21  and  C_22
REMARK                            x       y       z     vdW  Elec       q    Type
REMARK                         _______ _______ _______ _____ _____    ______ ____
ROOT
ATOM      1  N   UNL     1       9.159  10.922  17.964  0.00  0.00    +0.000 NA
ATOM      2  H   UNL     1       9.129  10.808  16.952  0.00  0.00    +0.000 HD
ENDROOT
BRANCH   1   3
ATOM      3  S   UNL     1      10.562  11.760  18.400  0.00  0.00    +0.000 S 
ATOM      4  O   UNL     1      11.386  11.877  17.215  0.00  0.00    +0.000 OA
ATOM      5  O   UNL     1      11.055  11.135  19.606  0.00  0.00    +0.000 OA
BRANCH   3  11
ATOM      6  C   UNL     1       7.911  14.728  19.146  0.00  0.00    +0.000 A 
ATOM      7  C   UNL     1       8.716  15.747  19.664  0.00  0.00    +0.000 A 
ATOM      8  C   UNL     1      10.098  15.590  19.777  0.00  0.00    +0.000 A 
ATOM      9  C   UNL     1      10.732  14.407  19.369  0.00  0.00    +0.000 A 
ATOM     10  C   UNL     1      12.227  14.342  19.494  0.00  0.00    +0.000 C 
ATOM     11  C   UNL     1       9.927  13.362  18.883  0.00  0.00    +0.000 A 
ATOM     12  C   UNL     1       8.527  13.523  18.786  0.00  0.00    +0.000 A 
BRANCH   6  16
ATOM     13  C   UNL     1       3.101  15.403  17.661  0.00  0.00    +0.000 C 
ATOM     14  C   UNL     1       4.369  15.244  18.406  0.00  0.00    +0.000 A 
ATOM     15  C   UNL     1       5.658  15.038  17.875  0.00  0.00    +0.000 A 
ATOM     16  C   UNL     1       6.482  14.957  18.972  0.00  0.00    +0.000 A 
ATOM     17  O   UNL     1       5.724  15.105  20.096  0.00  0.00    +0.000 OA
ATOM     18  N   UNL     1       4.393  15.282  19.743  0.00  0.00    +0.000 NA
ENDBRANCH   6  16
ENDBRANCH   3  11
ENDBRANCH   1   3
BRANCH   1  19
ATOM     19  C   UNL     1       8.827   9.702  18.720  0.00  0.00    +0.000 C 
BRANCH  19  20
ATOM     20  C   UNL     1       8.090   8.708  17.814  0.00  0.00    +0.000 C 
BRANCH  20  21
ATOM     21  C   UNL     1       8.051   7.262  18.348  0.00  0.00    +0.000 C 
BRANCH  21  22
ATOM     22  N   UNL     1       7.308   6.345  17.471  0.00  0.00    +0.000 NA
ATOM     23  C   UNL     1       7.066   5.022  18.099  0.00  0.00    +0.000 C 
ATOM     24  C   UNL     1       6.048   5.035  19.259  0.00  0.00    +0.000 C 
ATOM     25  N   UNL     1       4.765   5.615  18.841  0.00  0.00    +0.000 N 
ATOM     26  C   UNL     1       4.859   6.902  18.122  0.00  0.00    +0.000 C 
ATOM     27  C   UNL     1       5.992   6.899  17.057  0.00  0.00    +0.000 C 
BRANCH  25  28
ATOM     28  C   UNL     1       3.647   4.809  18.646  0.00  0.00    +0.000 A 
ATOM     29  C   UNL     1       3.563   4.010  17.491  0.00  0.00    +0.000 A 
ATOM     30  C   UNL     1       2.445   3.211  17.220  0.00  0.00    +0.000 A 
ATOM     31  C   UNL     1       1.372   3.184  18.105  0.00  0.00    +0.000 A 
ATOM     32  C   UNL     1       1.419   3.965  19.255  0.00  0.00    +0.000 A 
ATOM     33  C   UNL     1       2.536   4.764  19.512  0.00  0.00    +0.000 A 
ATOM     34  F   UNL     1       2.525   5.475  20.651  0.00  0.00    +0.000 F 
ENDBRANCH  25  28
ENDBRANCH  21  22
ENDBRANCH  20  21
ENDBRANCH  19  20
ENDBRANCH   1  19
TORSDOF 8
ENDMDL
MODEL 3
REMARK VINA RESULT:      -7.9      2.937      3.421
REMARK  Name = 
REMARK  10 active torsions:
REMARK  status: ('A' for Active; 'I' for Inactive)
REMARK    1  A    between atoms: C_1  and  C_2
REMARK    2  A    between atoms: C_4  and  C_5
REMARK    3  A    between atoms: C_8  and  C_9
REMARK    4  A    between atoms: C_10  and  S_11
REMARK    5  A    between atoms: S_11  and  N_14
REMARK    6  A    between atoms: N_14  and  C_15
REMARK    7  A    between atoms: C_15  and  C_16
REMARK    8  A    between atoms: C_16  and  C_17
REMARK    9  A    between atoms: C_17  and  N_18
REMARK   10  A    between atoms: N_21  and  C_22
REMARK                            x       y       z     vdW  Elec       q    Type
REMARK                         _______ _______ _______ _____ _____    ______ ____
ROOT
ATOM      1  N   UNL     1       7.676   6.795  17.059  0.00  0.00    +0.000 NA
ATOM      2  H   UNL     1       7.244   6.664  16.146  0.00  0.00    +0.000 HD
ENDROOT
BRANCH   1   3
ATOM      3  S   UNL     1       7.520   5.378  17.970  0.00  0.00    +0.000 S 
ATOM      4  O   UNL     1       7.515   5.757  19.367  0.00  0.00    +0.000 OA
ATOM      5  O   UNL     1       8.487   4.443  17.443  0.00  0.00    +0.000 OA
BRANCH   3  11
ATOM      6  C   UNL     1       3.695   4.085  18.265  0.00  0.00    +0.000 A 
ATOM      7  C   UNL     1       3.318   3.909  16.930  0.00  0.00    +0.000 A 
ATOM      8  C   UNL     1       4.217   4.142  15.888  0.00  0.00    +0.000 A 
ATOM      9  C   UNL     1       5.533   4.554  16.141  0.00  0.00    +0.000 A 
ATOM     10  C   UNL     1       6.439   4.745  14.959  0.00  0.00    +0.000 C 
ATOM     11  C   UNL     1       5.910   4.772  17.478  0.00  0.00    +0.000 A 
ATOM     12  C   UNL     1       4.989   4.549  18.526  0.00  0.00    +0.000 A 
BRANCH   6  16
ATOM     13  C   UNL     1       1.074   2.421  22.285  0.00  0.00    +0.000 C 
ATOM     14  C   UNL     1       1.558   3.096  21.061  0.00  0.00    +0.000 A 
ATOM     15  C   UNL     1       2.790   2.905  20.404  0.00  0.00    +0.000 A 
ATOM     16  C   UNL     1       2.752   3.759  19.328  0.00  0.00    +0.000 A 
ATOM     17  O   UNL     1       1.561   4.425  19.344  0.00  0.00    +0.000 OA
ATOM     18  N   UNL     1       0.810   4.013  20.436  0.00  0.00    +0.000 NA
ENDBRANCH   6  16
ENDBRANCH   3  11
ENDBRANCH   1   3
BRANCH   1  19
ATOM     19  C   UNL     1       7.335   8.071  17.712  0.00  0.00    +0.000 C 
BRANCH  19  20
ATOM     20  C   UNL     1       8.595   8.705  18.314  0.00  0.00    +0.000 C 
BRANCH  20  21
ATOM     21  C   UNL     1       8.754  10.211  18.025  0.00  0.00    +0.000 C 
BRANCH  21  22
ATOM     22  N   UNL     1       9.913  10.808  18.706  0.00  0.00    +0.000 NA
ATOM     23  C   UNL     1      10.727  11.665  17.808  0.00  0.00    +0.000 C 
ATOM     24  C   UNL     1      10.052  12.989  17.394  0.00  0.00    +0.000 C 
ATOM     25  N   UNL     1       9.640  13.771  18.566  0.00  0.00    +0.000 N 
ATOM     26  C   UNL     1       8.889  13.020  19.593  0.00  0.00    +0.000 C 
ATOM     27  C   UNL     1       9.518  11.629  19.881  0.00  0.00    +0.000 C 
BRANCH  25  28
ATOM     28  C   UNL     1      10.333  14.921  18.937  0.00  0.00    +0.000 A 
ATOM     29  C   UNL     1       9.840  16.180  18.549  0.00  0.00    +0.000 A 
ATOM     30  C   UNL     1      10.515  17.369  18.856  0.00  0.00    +0.000 A 
ATOM     31  C   UNL     1      11.709  17.332  19.568  0.00  0.00    +0.000 A 
ATOM     32  C   UNL     1      12.228  16.103  19.963  0.00  0.00    +0.000 A 
ATOM     33  C   UNL     1      11.551  14.924  19.646  0.00  0.00    +0.000 A 
ATOM     34  F   UNL     1      12.096  13.775  20.077  0.00  0.00    +0.000 F 
ENDBRANCH  25  28
ENDBRANCH  21  22
ENDBRANCH  20  21
ENDBRANCH  19  20
ENDBRANCH   1  19
TORSDOF 8
ENDMDL
MODEL 4
REMARK VINA RESULT:      -7.8      4.218     10.125
REMARK  Name = 
REMARK  10 active torsions:
REMARK  status: ('A' for Active; 'I' for Inactive)
REMARK    1  A    between atoms: C_1  and  C_2
REMARK    2  A    between atoms: C_4  and  C_5
REMARK    3  A    between atoms: C_8  and  C_9
REMARK    4  A    between atoms: C_10  and  S_11
REMARK    5  A    between atoms: S_11  and  N_14
REMARK    6  A    between atoms: N_14  and  C_15
REMARK    7  A    between atoms: C_15  and  C_16
REMARK    8  A    between atoms: C_16  and  C_17
REMARK    9  A    between atoms: C_17  and  N_18
REMARK   10  A    between atoms: N_21  and  C_22
REMARK                            x       y       z     vdW  Elec       q    Type
REMARK                         _______ _______ _______ _____ _____    ______ ____
ROOT
ATOM      1  N   UNL     1       8.781  11.043  18.443  0.00  0.00    +0.000 NA
ATOM      2  H   UNL     1       8.142  11.180  17.663  0.00  0.00    +0.000 HD
ENDROOT
BRANCH   1   3
ATOM      3  S   UNL     1      10.136  12.038  18.249  0.00  0.00    +0.000 S 
ATOM      4  O   UNL     1       9.924  12.836  17.060  0.00  0.00    +0.000 OA
ATOM      5  O   UNL     1      11.294  11.187  18.392  0.00  0.00    +0.000 OA
BRANCH   3  11
ATOM      6  C   UNL     1       9.123  13.321  21.953  0.00  0.00    +0.000 A 
ATOM      7  C   UNL     1       9.907  14.467  22.115  0.00  0.00    +0.000 A 
ATOM      8  C   UNL     1      10.748  14.917  21.097  0.00  0.00    +0.000 A 
ATOM      9  C   UNL     1      10.835  14.242  19.871  0.00  0.00    +0.000 A 
ATOM     10  C   UNL     1      11.739  14.820  18.822  0.00  0.00    +0.000 C 
ATOM     11  C   UNL     1      10.079  13.066  19.713  0.00  0.00    +0.000 A 
ATOM     12  C   UNL     1       9.241  12.609  20.754  0.00  0.00    +0.000 A 
BRANCH   6  16
ATOM     13  C   UNL     1       5.851  11.159  25.182  0.00  0.00    +0.000 C 
ATOM     14  C   UNL     1       6.794  12.046  24.466  0.00  0.00    +0.000 A 
ATOM     15  C   UNL     1       7.439  11.803  23.237  0.00  0.00    +0.000 A 
ATOM     16  C   UNL     1       8.200  12.925  23.010  0.00  0.00    +0.000 A 
ATOM     17  O   UNL     1       8.019  13.789  24.050  0.00  0.00    +0.000 OA
ATOM     18  N   UNL     1       7.139  13.238  24.969  0.00  0.00    +0.000 NA
ENDBRANCH   6  16
ENDBRANCH   3  11
ENDBRANCH   1   3
BRANCH   1  19
ATOM     19  C   UNL     1       9.013   9.632  18.796  0.00  0.00    +0.000 C 
BRANCH  19  20
ATOM     20  C   UNL     1       8.158   8.722  17.906  0.00  0.00    +0.000 C 
BRANCH  20  21
ATOM     21  C   UNL     1       8.066   7.260  18.387  0.00  0.00    +0.000 C 
BRANCH  21  22
ATOM     22  N   UNL     1       7.314   6.397  17.463  0.00  0.00    +0.000 NA
ATOM     23  C   UNL     1       7.131   5.020  17.985  0.00  0.00    +0.000 C 
ATOM     24  C   UNL     1       6.159   4.906  19.179  0.00  0.00    +0.000 C 
ATOM     25  N   UNL     1       4.846   5.481  18.858  0.00  0.00    +0.000 N 
ATOM     26  C   UNL     1       4.878   6.826  18.248  0.00  0.00    +0.000 C 
ATOM     27  C   UNL     1       5.969   6.944  17.146  0.00  0.00    +0.000 C 
BRANCH  25  28
ATOM     28  C   UNL     1       3.743   4.661  18.637  0.00  0.00    +0.000 A 
ATOM     29  C   UNL     1       3.823   3.639  17.673  0.00  0.00    +0.000 A 
ATOM     30  C   UNL     1       2.733   2.810  17.376  0.00  0.00    +0.000 A 
ATOM     31  C   UNL     1       1.524   2.977  18.044  0.00  0.00    +0.000 A 
ATOM     32  C   UNL     1       1.408   3.981  19.000  0.00  0.00    +0.000 A 
ATOM     33  C   UNL     1       2.499   4.807  19.282  0.00  0.00    +0.000 A 
ATOM     34  F   UNL     1       2.324   5.740  20.231  0.00  0.00    +0.000 F 
ENDBRANCH  25  28
ENDBRANCH  21  22
ENDBRANCH  20  21
ENDBRANCH  19  20
ENDBRANCH   1  19
TORSDOF 8
ENDMDL
MODEL 5
REMARK VINA RESULT:      -7.8      3.035      3.427
REMARK  Name = 
REMARK  10 active torsions:
REMARK  status: ('A' for Active; 'I' for Inactive)
REMARK    1  A    between atoms: C_1  and  C_2
REMARK    2  A    between atoms: C_4  and  C_5
REMARK    3  A    between atoms: C_8  and  C_9
REMARK    4  A    between atoms: C_10  and  S_11
REMARK    5  A    between atoms: S_11  and  N_14
REMARK    6  A    between atoms: N_14  and  C_15
REMARK    7  A    between atoms: C_15  and  C_16
REMARK    8  A    between atoms: C_16  and  C_17
REMARK    9  A    between atoms: C_17  and  N_18
REMARK   10  A    between atoms: N_21  and  C_22
REMARK                            x       y       z     vdW  Elec       q    Type
REMARK                         _______ _______ _______ _____ _____    ______ ____
ROOT
ATOM      1  N   UNL     1       7.710   6.547  17.080  0.00  0.00    +0.000 NA
ATOM      2  H   UNL     1       7.332   6.409  16.144  0.00  0.00    +0.000 HD
ENDROOT
BRANCH   1   3
ATOM      3  S   UNL     1       7.505   5.134  17.989  0.00  0.00    +0.000 S 
ATOM      4  O   UNL     1       7.476   5.515  19.385  0.00  0.00    +0.000 OA
ATOM      5  O   UNL     1       8.466   4.180  17.484  0.00  0.00    +0.000 OA
BRANCH   3  11
ATOM      6  C   UNL     1       3.677   3.834  18.205  0.00  0.00    +0.000 A 
ATOM      7  C   UNL     1       3.302   3.733  16.862  0.00  0.00    +0.000 A 
ATOM      8  C   UNL     1       4.203   4.021  15.836  0.00  0.00    +0.000 A 
ATOM      9  C   UNL     1       5.520   4.417  16.113  0.00  0.00    +0.000 A 
ATOM     10  C   UNL     1       6.429   4.671  14.946  0.00  0.00    +0.000 C 
ATOM     11  C   UNL     1       5.895   4.559  17.461  0.00  0.00    +0.000 A 
ATOM     12  C   UNL     1       4.972   4.280  18.493  0.00  0.00    +0.000 A 
BRANCH   6  16
ATOM     13  C   UNL     1       1.121   2.384  22.348  0.00  0.00    +0.000 C 
ATOM     14  C   UNL     1       1.552   2.849  21.011  0.00  0.00    +0.000 A 
ATOM     15  C   UNL     1       2.870   2.998  20.536  0.00  0.00    +0.000 A 
ATOM     16  C   UNL     1       2.732   3.452  19.247  0.00  0.00    +0.000 A 
ATOM     17  O   UNL     1       1.402   3.569  18.969  0.00  0.00    +0.000 OA
ATOM     18  N   UNL     1       0.657   3.194  20.078  0.00  0.00    +0.000 NA
ENDBRANCH   6  16
ENDBRANCH   3  11
ENDBRANCH   1   3
BRANCH   1  19
ATOM     19  C   UNL     1       7.327   7.825  17.705  0.00  0.00    +0.000 C 
BRANCH  19  20
ATOM     20  C   UNL     1       8.551   8.472  18.366  0.00  0.00    +0.000 C 
BRANCH  20  21
ATOM     21  C   UNL     1       8.599  10.009  18.257  0.00  0.00    +0.000 C 
BRANCH  21  22
ATOM     22  N   UNL     1       9.855  10.582  18.762  0.00  0.00    +0.000 NA
ATOM     23  C   UNL     1      10.469  11.544  17.813  0.00  0.00    +0.000 C 
ATOM     24  C   UNL     1       9.705  12.876  17.659  0.00  0.00    +0.000 C 
ATOM     25  N   UNL     1       9.509  13.535  18.956  0.00  0.00    +0.000 N 
ATOM     26  C   UNL     1       8.979  12.670  20.029  0.00  0.00    +0.000 C 
ATOM     27  C   UNL     1       9.676  11.281  20.062  0.00  0.00    +0.000 C 
BRANCH  25  28
ATOM     28  C   UNL     1      10.239  14.670  19.297  0.00  0.00    +0.000 A 
ATOM     29  C   UNL     1      10.583  14.893  20.644  0.00  0.00    +0.000 A 
ATOM     30  C   UNL     1      11.280  16.037  21.053  0.00  0.00    +0.000 A 
ATOM     31  C   UNL     1      11.659  16.997  20.122  0.00  0.00    +0.000 A 
ATOM     32  C   UNL     1      11.332  16.812  18.782  0.00  0.00    +0.000 A 
ATOM     33  C   UNL     1      10.630  15.671  18.385  0.00  0.00    +0.000 A 
ATOM     34  F   UNL     1      10.366  15.545  17.075  0.00  0.00    +0.000 F 
ENDBRANCH  25  28
ENDBRANCH  21  22
ENDBRANCH  20  21
ENDBRANCH  19  20
ENDBRANCH   1  19
TORSDOF 8
ENDMDL
MODEL 6
REMARK VINA RESULT:      -7.8      1.412      1.708
REMARK  Name = 
REMARK  10 active torsions:
REMARK  status: ('A' for Active; 'I' for Inactive)
REMARK    1  A    between atoms: C_1  and  C_2
REMARK    2  A    between atoms: C_4  and  C_5
REMARK    3  A    between atoms: C_8  and  C_9
REMARK    4  A    between atoms: C_10  and  S_11
REMARK    5  A    between atoms: S_11  and  N_14
REMARK    6  A    between atoms: N_14  and  C_15
REMARK    7  A    between atoms: C_15  and  C_16
REMARK    8  A    between atoms: C_16  and  C_17
REMARK    9  A    between atoms: C_17  and  N_18
REMARK   10  A    between atoms: N_21  and  C_22
REMARK                            x       y       z     vdW  Elec       q    Type
REMARK                         _______ _______ _______ _____ _____    ______ ____
ROOT
ATOM      1  N   UNL     1       7.005   7.415  18.012  0.00  0.00    +0.000 NA
ATOM      2  H   UNL     1       6.565   7.376  18.929  0.00  0.00    +0.000 HD
ENDROOT
BRANCH   1   3
ATOM      3  S   UNL     1       6.777   5.944  17.207  0.00  0.00    +0.000 S 
ATOM      4  O   UNL     1       7.616   4.959  17.855  0.00  0.00    +0.000 OA
ATOM      5  O   UNL     1       6.893   6.227  15.795  0.00  0.00    +0.000 OA
BRANCH   3  11
ATOM      6  C   UNL     1       2.970   6.443  18.493  0.00  0.00    +0.000 A 
ATOM      7  C   UNL     1       2.325   5.296  18.020  0.00  0.00    +0.000 A 
ATOM      8  C   UNL     1       3.023   4.309  17.323  0.00  0.00    +0.000 A 
ATOM      9  C   UNL     1       4.399   4.427  17.076  0.00  0.00    +0.000 A 
ATOM     10  C   UNL     1       5.072   3.300  16.350  0.00  0.00    +0.000 C 
ATOM     11  C   UNL     1       5.048   5.595  17.513  0.00  0.00    +0.000 A 
ATOM     12  C   UNL     1       4.331   6.596  18.205  0.00  0.00    +0.000 A 
BRANCH   6  16
ATOM     13  C   UNL     1       0.481   9.240  21.925  0.00  0.00    +0.000 C 
ATOM     14  C   UNL     1       1.146   8.694  20.722  0.00  0.00    +0.000 A 
ATOM     15  C   UNL     1       1.767   7.437  20.579  0.00  0.00    +0.000 A 
ATOM     16  C   UNL     1       2.223   7.415  19.283  0.00  0.00    +0.000 A 
ATOM     17  O   UNL     1       1.893   8.596  18.687  0.00  0.00    +0.000 OA
ATOM     18  N   UNL     1       1.219   9.404  19.590  0.00  0.00    +0.000 NA
ENDBRANCH   6  16
ENDBRANCH   3  11
ENDBRANCH   1   3
BRANCH   1  19
ATOM     19  C   UNL     1       8.360   7.991  18.016  0.00  0.00    +0.000 C 
BRANCH  19  20
ATOM     20  C   UNL     1       8.280   9.521  18.076  0.00  0.00    +0.000 C 
BRANCH  20  21
ATOM     21  C   UNL     1       8.880  10.144  19.353  0.00  0.00    +0.000 C 
BRANCH  21  22
ATOM     22  N   UNL     1      10.138  10.864  19.106  0.00  0.00    +0.000 NA
ATOM     23  C   UNL     1      10.185  11.493  17.762  0.00  0.00    +0.000 C 
ATOM     24  C   UNL     1       9.241  12.700  17.582  0.00  0.00    +0.000 C 
ATOM     25  N   UNL     1       9.480  13.726  18.605  0.00  0.00    +0.000 N 
ATOM     26  C   UNL     1       9.544  13.228  19.994  0.00  0.00    +0.000 C 
ATOM     27  C   UNL     1      10.388  11.928  20.114  0.00  0.00    +0.000 C 
BRANCH  25  28
ATOM     28  C   UNL     1      10.116  14.922  18.282  0.00  0.00    +0.000 A 
ATOM     29  C   UNL     1       9.344  16.077  18.056  0.00  0.00    +0.000 A 
ATOM     30  C   UNL     1       9.924  17.297  17.687  0.00  0.00    +0.000 A 
ATOM     31  C   UNL     1      11.303  17.400  17.535  0.00  0.00    +0.000 A 
ATOM     32  C   UNL     1      12.096  16.277  17.745  0.00  0.00    +0.000 A 
ATOM     33  C   UNL     1      11.507  15.062  18.106  0.00  0.00    +0.000 A 
ATOM     34  F   UNL     1      12.333  14.025  18.314  0.00  0.00    +0.000 F 
ENDBRANCH  25  28
ENDBRANCH  21  22
ENDBRANCH  20  21
ENDBRANCH  19  20
ENDBRANCH   1  19
TORSDOF 8
ENDMDL
MODEL 7
REMARK VINA RESULT:      -7.8      4.480     10.360
REMARK  Name = 
REMARK  10 active torsions:
REMARK  status: ('A' for Active; 'I' for Inactive)
REMARK    1  A    between atoms: C_1  and  C_2
REMARK    2  A    between atoms: C_4  and  C_5
REMARK    3  A    between atoms: C_8  and  C_9
REMARK    4  A    between atoms: C_10  and  S_11
REMARK    5  A    between atoms: S_11  and  N_14
REMARK    6  A    between atoms: N_14  and  C_15
REMARK    7  A    between atoms: C_15  and  C_16
REMARK    8  A    between atoms: C_16  and  C_17
REMARK    9  A    between atoms: C_17  and  N_18
REMARK   10  A    between atoms: N_21  and  C_22
REMARK                            x       y       z     vdW  Elec       q    Type
REMARK                         _______ _______ _______ _____ _____    ______ ____
ROOT
ATOM      1  N   UNL     1       8.728   9.936  18.719  0.00  0.00    +0.000 NA
ATOM      2  H   UNL     1       8.278  10.085  19.621  0.00  0.00    +0.000 HD
ENDROOT
BRANCH   1   3
ATOM      3  S   UNL     1       9.296  11.411  18.117  0.00  0.00    +0.000 S 
ATOM      4  O   UNL     1       8.256  11.970  17.280  0.00  0.00    +0.000 OA
ATOM      5  O   UNL     1      10.625  11.161  17.607  0.00  0.00    +0.000 OA
BRANCH   3  11
ATOM      6  C   UNL     1       8.903  12.596  21.968  0.00  0.00    +0.000 A 
ATOM      7  C   UNL     1       9.746  13.709  22.043  0.00  0.00    +0.000 A 
ATOM      8  C   UNL     1      10.440  14.167  20.923  0.00  0.00    +0.000 A 
ATOM      9  C   UNL     1      10.315  13.532  19.678  0.00  0.00    +0.000 A 
ATOM     10  C   UNL     1      11.072  14.117  18.521  0.00  0.00    +0.000 C 
ATOM     11  C   UNL     1       9.500  12.388  19.602  0.00  0.00    +0.000 A 
ATOM     12  C   UNL     1       8.812  11.922  20.745  0.00  0.00    +0.000 A 
BRANCH   6  16
ATOM     13  C   UNL     1       5.566  11.025  25.460  0.00  0.00    +0.000 C 
ATOM     14  C   UNL     1       6.748  11.507  24.712  0.00  0.00    +0.000 A 
ATOM     15  C   UNL     1       6.842  11.771  23.331  0.00  0.00    +0.000 A 
ATOM     16  C   UNL     1       8.136  12.194  23.141  0.00  0.00    +0.000 A 
ATOM     17  O   UNL     1       8.778  12.180  24.344  0.00  0.00    +0.000 OA
ATOM     18  N   UNL     1       7.909  11.745  25.334  0.00  0.00    +0.000 NA
ENDBRANCH   6  16
ENDBRANCH   3  11
ENDBRANCH   1   3
BRANCH   1  19
ATOM     19  C   UNL     1       7.970   9.068  17.802  0.00  0.00    +0.000 C 
BRANCH  19  20
ATOM     20  C   UNL     1       8.053   7.610  18.272  0.00  0.00    +0.000 C 
BRANCH  20  21
ATOM     21  C   UNL     1       7.398   6.592  17.317  0.00  0.00    +0.000 C 
BRANCH  21  22
ATOM     22  N   UNL     1       5.936   6.731  17.243  0.00  0.00    +0.000 NA
ATOM     23  C   UNL     1       5.306   5.709  16.370  0.00  0.00    +0.000 C 
ATOM     24  C   UNL     1       5.328   4.274  16.937  0.00  0.00    +0.000 C 
ATOM     25  N   UNL     1       4.716   4.214  18.271  0.00  0.00    +0.000 N 
ATOM     26  C   UNL     1       5.189   5.236  19.228  0.00  0.00    +0.000 C 
ATOM     27  C   UNL     1       5.291   6.646  18.580  0.00  0.00    +0.000 C 
BRANCH  25  28
ATOM     28  C   UNL     1       3.462   3.640  18.456  0.00  0.00    +0.000 A 
ATOM     29  C   UNL     1       2.425   4.409  19.017  0.00  0.00    +0.000 A 
ATOM     30  C   UNL     1       1.155   3.874  19.266  0.00  0.00    +0.000 A 
ATOM     31  C   UNL     1       0.881   2.546  18.955  0.00  0.00    +0.000 A 
ATOM     32  C   UNL     1       1.883   1.756  18.403  0.00  0.00    +0.000 A 
ATOM     33  C   UNL     1       3.149   2.297  18.166  0.00  0.00    +0.000 A 
ATOM     34  F   UNL     1       4.063   1.485  17.611  0.00  0.00    +0.000 F 
ENDBRANCH  25  28
ENDBRANCH  21  22
ENDBRANCH  20  21
ENDBRANCH  19  20
ENDBRANCH   1  19
TORSDOF 8
ENDMDL
MODEL 8
REMARK VINA RESULT:      -7.8      4.194     10.098
REMARK  Name = 
REMARK  10 active torsions:
REMARK  status: ('A' for Active; 'I' for Inactive)
REMARK    1  A    between atoms: C_1  and  C_2
REMARK    2  A    between atoms: C_4  and  C_5
REMARK    3  A    between atoms: C_8  and  C_9
REMARK    4  A    between atoms: C_10  and  S_11
REMARK    5  A    between atoms: S_11  and  N_14
REMARK    6  A    between atoms: N_14  and  C_15
REMARK    7  A    between atoms: C_15  and  C_16
REMARK    8  A    between atoms: C_16  and  C_17
REMARK    9  A    between atoms: C_17  and  N_18
REMARK   10  A    between atoms: N_21  and  C_22
REMARK                            x       y       z     vdW  Elec       q    Type
REMARK                         _______ _______ _______ _____ _____    ______ ____
ROOT
ATOM      1  N   UNL     1       8.886  10.939  18.249  0.00  0.00    +0.000 NA
ATOM      2  H   UNL     1       8.416  11.070  17.356  0.00  0.00    +0.000 HD
ENDROOT
BRANCH   1   3
ATOM      3  S   UNL     1      10.212  11.985  18.354  0.00  0.00    +0.000 S 
ATOM      4  O   UNL     1      10.280  12.728  17.113  0.00  0.00    +0.000 OA
ATOM      5  O   UNL     1      11.325  11.191  18.822  0.00  0.00    +0.000 OA
BRANCH   3  11
ATOM      6  C   UNL     1       8.644  13.191  21.886  0.00  0.00    +0.000 A 
ATOM      7  C   UNL     1       9.017  14.537  21.954  0.00  0.00    +0.000 A 
ATOM      8  C   UNL     1       9.729  15.142  20.917  0.00  0.00    +0.000 A 
ATOM      9  C   UNL     1      10.091  14.427  19.767  0.00  0.00    +0.000 A 
ATOM     10  C   UNL     1      10.824  15.171  18.689  0.00  0.00    +0.000 C 
ATOM     11  C   UNL     1       9.754  13.063  19.707  0.00  0.00    +0.000 A 
ATOM     12  C   UNL     1       9.047  12.453  20.767  0.00  0.00    +0.000 A 
BRANCH   6  16
ATOM     13  C   UNL     1       6.586  11.236  26.098  0.00  0.00    +0.000 C 
ATOM     14  C   UNL     1       6.867  11.775  24.749  0.00  0.00    +0.000 A 
ATOM     15  C   UNL     1       8.105  12.214  24.240  0.00  0.00    +0.000 A 
ATOM     16  C   UNL     1       7.836  12.614  22.953  0.00  0.00    +0.000 A 
ATOM     17  O   UNL     1       6.507  12.426  22.710  0.00  0.00    +0.000 OA
ATOM     18  N   UNL     1       5.894  11.902  23.840  0.00  0.00    +0.000 NA
ENDBRANCH   6  16
ENDBRANCH   3  11
ENDBRANCH   1   3
BRANCH   1  19
ATOM     19  C   UNL     1       9.095   9.529  18.622  0.00  0.00    +0.000 C 
BRANCH  19  20
ATOM     20  C   UNL     1       8.154   8.628  17.813  0.00  0.00    +0.000 C 
BRANCH  20  21
ATOM     21  C   UNL     1       7.866   7.259  18.459  0.00  0.00    +0.000 C 
BRANCH  21  22
ATOM     22  N   UNL     1       7.168   6.331  17.556  0.00  0.00    +0.000 NA
ATOM     23  C   UNL     1       6.919   5.005  18.176  0.00  0.00    +0.000 C 
ATOM     24  C   UNL     1       5.859   5.006  19.297  0.00  0.00    +0.000 C 
ATOM     25  N   UNL     1       4.585   5.569  18.832  0.00  0.00    +0.000 N 
ATOM     26  C   UNL     1       4.690   6.858  18.116  0.00  0.00    +0.000 C 
ATOM     27  C   UNL     1       5.861   6.868  17.093  0.00  0.00    +0.000 C 
BRANCH  25  28
ATOM     28  C   UNL     1       3.486   4.749  18.596  0.00  0.00    +0.000 A 
ATOM     29  C   UNL     1       2.429   4.726  19.525  0.00  0.00    +0.000 A 
ATOM     30  C   UNL     1       1.317   3.889  19.364  0.00  0.00    +0.000 A 
ATOM     31  C   UNL     1       1.226   3.049  18.259  0.00  0.00    +0.000 A 
ATOM     32  C   UNL     1       2.256   3.043  17.323  0.00  0.00    +0.000 A 
ATOM     33  C   UNL     1       3.364   3.875  17.497  0.00  0.00    +0.000 A 
ATOM     34  F   UNL     1       4.309   3.835  16.545  0.00  0.00    +0.000 F 
ENDBRANCH  25  28
ENDBRANCH  21  22
ENDBRANCH  20  21
ENDBRANCH  19  20
ENDBRANCH   1  19
TORSDOF 8
ENDMDL
MODEL 9
REMARK VINA RESULT:      -7.7      1.537      1.742
REMARK  Name = 
REMARK  10 active torsions:
REMARK  status: ('A' for Active; 'I' for Inactive)
REMARK    1  A    between atoms: C_1  and  C_2
REMARK    2  A    between atoms: C_4  and  C_5
REMARK    3  A    between atoms: C_8  and  C_9
REMARK    4  A    between atoms: C_10  and  S_11
REMARK    5  A    between atoms: S_11  and  N_14
REMARK    6  A    between atoms: N_14  and  C_15
REMARK    7  A    between atoms: C_15  and  C_16
REMARK    8  A    between atoms: C_16  and  C_17
REMARK    9  A    between atoms: C_17  and  N_18
REMARK   10  A    between atoms: N_21  and  C_22
REMARK                            x       y       z     vdW  Elec       q    Type
REMARK                         _______ _______ _______ _____ _____    ______ ____
ROOT
ATOM      1  N   UNL     1       6.785   7.524  17.731  0.00  0.00    +0.000 NA
ATOM      2  H   UNL     1       6.127   7.653  18.498  0.00  0.00    +0.000 HD
ENDROOT
BRANCH   1   3
ATOM      3  S   UNL     1       6.588   5.981  17.066  0.00  0.00    +0.000 S 
ATOM      4  O   UNL     1       7.496   5.090  17.757  0.00  0.00    +0.000 OA
ATOM      5  O   UNL     1       6.634   6.144  15.631  0.00  0.00    +0.000 OA
BRANCH   3  11
ATOM      6  C   UNL     1       2.866   6.378  18.608  0.00  0.00    +0.000 A 
ATOM      7  C   UNL     1       2.213   5.226  18.157  0.00  0.00    +0.000 A 
ATOM      8  C   UNL     1       2.883   4.266  17.398  0.00  0.00    +0.000 A 
ATOM      9  C   UNL     1       4.237   4.417  17.063  0.00  0.00    +0.000 A 
ATOM     10  C   UNL     1       4.884   3.316  16.273  0.00  0.00    +0.000 C 
ATOM     11  C   UNL     1       4.891   5.591  17.478  0.00  0.00    +0.000 A 
ATOM     12  C   UNL     1       4.201   6.564  18.234  0.00  0.00    +0.000 A 
BRANCH   6  16
ATOM     13  C   UNL     1       0.581   9.079  22.253  0.00  0.00    +0.000 C 
ATOM     14  C   UNL     1       1.158   8.557  20.994  0.00  0.00    +0.000 A 
ATOM     15  C   UNL     1       1.814   7.326  20.794  0.00  0.00    +0.000 A 
ATOM     16  C   UNL     1       2.154   7.320  19.463  0.00  0.00    +0.000 A 
ATOM     17  O   UNL     1       1.725   8.486  18.900  0.00  0.00    +0.000 OA
ATOM     18  N   UNL     1       1.102   9.268  19.862  0.00  0.00    +0.000 NA
ENDBRANCH   6  16
ENDBRANCH   3  11
ENDBRANCH   1   3
BRANCH   1  19
ATOM     19  C   UNL     1       8.156   7.972  18.029  0.00  0.00    +0.000 C 
BRANCH  19  20
ATOM     20  C   UNL     1       8.245   9.499  17.916  0.00  0.00    +0.000 C 
BRANCH  20  21
ATOM     21  C   UNL     1       9.099  10.173  19.008  0.00  0.00    +0.000 C 
BRANCH  21  22
ATOM     22  N   UNL     1      10.039  11.168  18.471  0.00  0.00    +0.000 NA
ATOM     23  C   UNL     1       9.373  12.439  18.088  0.00  0.00    +0.000 C 
ATOM     24  C   UNL     1       8.865  13.283  19.275  0.00  0.00    +0.000 C 
ATOM     25  N   UNL     1       9.944  13.572  20.229  0.00  0.00    +0.000 N 
ATOM     26  C   UNL     1      10.752  12.405  20.637  0.00  0.00    +0.000 C 
ATOM     27  C   UNL     1      11.125  11.497  19.431  0.00  0.00    +0.000 C 
BRANCH  25  28
ATOM     28  C   UNL     1      10.497  14.846  20.318  0.00  0.00    +0.000 A 
ATOM     29  C   UNL     1      10.978  15.473  19.154  0.00  0.00    +0.000 A 
ATOM     30  C   UNL     1      11.583  16.736  19.187  0.00  0.00    +0.000 A 
ATOM     31  C   UNL     1      11.722  17.415  20.393  0.00  0.00    +0.000 A 
ATOM     32  C   UNL     1      11.262  16.822  21.564  0.00  0.00    +0.000 A 
ATOM     33  C   UNL     1      10.667  15.559  21.521  0.00  0.00    +0.000 A 
ATOM     34  F   UNL     1      10.225  15.056  22.685  0.00  0.00    +0.000 F 
ENDBRANCH  25  28
ENDBRANCH  21  22
ENDBRANCH  20  21
ENDBRANCH  19  20
ENDBRANCH   1  19
TORSDOF 8
ENDMDL
