MODEL 1
REMARK VINA RESULT:      -7.7      0.000      0.000
REMARK  Name = 
REMARK  8 active torsions:
REMARK  status: ('A' for Active; 'I' for Inactive)
REMARK    1  A    between atoms: C_1  and  C_2
REMARK    2  A    between atoms: C_5  and  S_6
REMARK    3  A    between atoms: S_6  and  N_9
REMARK    4  A    between atoms: C_13  and  C_15
REMARK    5  A    between atoms: C_15  and  S_16
REMARK    6  A    between atoms: S_16  and  C_17
REMARK    7  A    between atoms: C_20  and  C_21
REMARK    8  A    between atoms: C_22  and  O_23
REMARK                            x       y       z     vdW  Elec       q    Type
REMARK                         _______ _______ _______ _____ _____    ______ ____
ROOT
ATOM      1  N   UNL     1       1.149   9.394  19.505  0.00  0.00    +0.000 NA
ATOM      2  C   UNL     1       1.705   8.367  20.405  0.00  0.00    +0.000 C 
ATOM      3  C   UNL     1       1.798   7.099  19.571  0.00  0.00    +0.000 C 
ATOM      4  N   UNL     1       2.803   7.295  18.522  0.00  0.00    +0.000 N 
ATOM      5  C   UNL     1       3.854   6.394  18.483  0.00  0.00    +0.000 C 
ATOM      6  O   UNL     1       3.972   5.540  19.370  0.00  0.00    +0.000 OA
ATOM      7  C   UNL     1       2.533   8.452  17.630  0.00  0.00    +0.000 C 
ATOM      8  C   UNL     1       2.099   9.744  18.410  0.00  0.00    +0.000 C 
ENDROOT
BRANCH   1   9
ATOM      9  S   UNL     1       0.077  10.506  20.153  0.00  0.00    +0.000 S 
ATOM     10  O   UNL     1       0.728  11.805  20.169  0.00  0.00    +0.000 OA
ATOM     11  O   UNL     1      -0.475   9.939  21.360  0.00  0.00    +0.000 OA
BRANCH   9  16
ATOM     12  C   UNL     1      -4.281  11.117  15.964  0.00  0.00    +0.000 C 
ATOM     13  C   UNL     1      -3.223  10.916  17.010  0.00  0.00    +0.000 A 
ATOM     14  C   UNL     1      -3.254  11.665  18.193  0.00  0.00    +0.000 A 
ATOM     15  C   UNL     1      -2.262  11.506  19.158  0.00  0.00    +0.000 A 
ATOM     16  C   UNL     1      -1.231  10.589  18.948  0.00  0.00    +0.000 A 
ATOM     17  C   UNL     1      -1.172   9.845  17.765  0.00  0.00    +0.000 A 
ATOM     18  C   UNL     1      -2.175  10.006  16.799  0.00  0.00    +0.000 A 
ENDBRANCH   9  16
ENDBRANCH   1   9
BRANCH   5  19
ATOM     19  C   UNL     1       4.896   6.497  17.375  0.00  0.00    +0.000 C 
BRANCH  19  20
ATOM     20  S   UNL     1       6.253   5.287  17.619  0.00  0.00    +0.000 S 
BRANCH  20  21
ATOM     21  C   UNL     1       6.486   4.814  15.924  0.00  0.00    +0.000 A 
ATOM     22  N   UNL     1       5.682   3.866  15.395  0.00  0.00    +0.000 NA
ATOM     23  N   UNL     1       5.817   3.532  14.077  0.00  0.00    +0.000 NA
ATOM     24  C   UNL     1       6.753   4.162  13.341  0.00  0.00    +0.000 A 
ATOM     25  C   UNL     1       6.854   3.800  11.898  0.00  0.00    +0.000 C 
ATOM     26  C   UNL     1       7.562   5.105  13.952  0.00  0.00    +0.000 A 
ATOM     27  N   UNL     1       7.458   5.435  15.243  0.00  0.00    +0.000 NA
BRANCH  26  28
ATOM     28  O   UNL     1       8.541   5.799  13.306  0.00  0.00    +0.000 OA
ATOM     29  H   UNL     1       8.651   6.669  13.719  0.00  0.00    +0.000 HD
ENDBRANCH  26  28
ENDBRANCH  20  21
ENDBRANCH  19  20
ENDBRANCH   5  19
TORSDOF 6
ENDMDL
MODEL 2
REMARK VINA RESULT:      -7.7      2.552      9.598
REMARK  Name = 
REMARK  8 active torsions:
REMARK  status: ('A' for Active; 'I' for Inactive)
REMARK    1  A    between atoms: C_1  and  C_2
REMARK    2  A    between atoms: C_5  and  S_6
REMARK    3  A    between atoms: S_6  and  N_9
REMARK    4  A    between atoms: C_13  and  C_15
REMARK    5  A    between atoms: C_15  and  S_16
REMARK    6  A    between atoms: S_16  and  C_17
REMARK    7  A    between atoms: C_20  and  C_21
REMARK    8  A    between atoms: C_22  and  O_23
REMARK                            x       y       z     vdW  Elec       q    Type
REMARK                         _______ _______ _______ _____ _____    ______ ____
ROOT
ATOM      1  N   UNL     1       4.132   5.513  18.636  0.00  0.00    +0.000 NA
ATOM      2  C   UNL     1       4.434   6.722  17.849  0.00  0.00    +0.000 C 
ATOM      3  C   UNL     1       3.094   7.215  17.325  0.00  0.00    +0.000 C 
ATOM      4  N   UNL     1       2.283   7.670  18.459  0.00  0.00    +0.000 N 
ATOM      5  C   UNL     1       1.829   8.979  18.421  0.00  0.00    +0.000 C 
ATOM      6  O   UNL     1       2.196   9.736  17.515  0.00  0.00    +0.000 OA
ATOM      7  C   UNL     1       2.055   6.635  19.499  0.00  0.00    +0.000 C 
ATOM      8  C   UNL     1       3.355   5.834  19.867  0.00  0.00    +0.000 C 
ENDROOT
BRANCH   1   9
ATOM      9  S   UNL     1       5.221   4.242  18.568  0.00  0.00    +0.000 S 
ATOM     10  O   UNL     1       4.476   3.000  18.691  0.00  0.00    +0.000 OA
ATOM     11  O   UNL     1       6.311   4.544  19.466  0.00  0.00    +0.000 OA
BRANCH   9  16
ATOM     12  C   UNL     1       7.166   4.753  12.836  0.00  0.00    +0.000 C 
ATOM     13  C   UNL     1       6.720   4.585  14.259  0.00  0.00    +0.000 A 
ATOM     14  C   UNL     1       5.424   4.136  14.540  0.00  0.00    +0.000 A 
ATOM     15  C   UNL     1       4.991   4.003  15.857  0.00  0.00    +0.000 A 
ATOM     16  C   UNL     1       5.856   4.313  16.907  0.00  0.00    +0.000 A 
ATOM     17  C   UNL     1       7.148   4.781  16.647  0.00  0.00    +0.000 A 
ATOM     18  C   UNL     1       7.581   4.909  15.319  0.00  0.00    +0.000 A 
ENDBRANCH   9  16
ENDBRANCH   1   9
BRANCH   5  19
ATOM     19  C   UNL     1       0.923   9.495  19.532  0.00  0.00    +0.000 C 
BRANCH  19  20
ATOM     20  S   UNL     1       0.631  11.300  19.371  0.00  0.00    +0.000 S 
BRANCH  20  21
ATOM     21  C   UNL     1      -1.038  11.240  18.770  0.00  0.00    +0.000 A 
ATOM     22  N   UNL     1      -2.004  11.877  19.465  0.00  0.00    +0.000 NA
ATOM     23  N   UNL     1      -3.283  11.883  18.983  0.00  0.00    +0.000 NA
ATOM     24  C   UNL     1      -3.543  11.248  17.824  0.00  0.00    +0.000 A 
ATOM     25  C   UNL     1      -4.940  11.299  17.308  0.00  0.00    +0.000 C 
ATOM     26  C   UNL     1      -2.511  10.590  17.176  0.00  0.00    +0.000 A 
ATOM     27  N   UNL     1      -1.256  10.559  17.637  0.00  0.00    +0.000 NA
BRANCH  26  28
ATOM     28  O   UNL     1      -2.660   9.914  16.002  0.00  0.00    +0.000 OA
ATOM     29  H   UNL     1      -2.018   9.189  15.960  0.00  0.00    +0.000 HD
ENDBRANCH  26  28
ENDBRANCH  20  21
ENDBRANCH  19  20
ENDBRANCH   5  19
TORSDOF 6
ENDMDL
MODEL 3
REMARK VINA RESULT:      -7.6      2.520      3.007
REMARK  Name = 
REMARK  8 active torsions:
REMARK  status: ('A' for Active; 'I' for Inactive)
REMARK    1  A    between atoms: C_1  and  C_2
REMARK    2  A    between atoms: C_5  and  S_6
REMARK    3  A    between atoms: S_6  and  N_9
REMARK    4  A    between atoms: C_13  and  C_15
REMARK    5  A    between atoms: C_15  and  S_16
REMARK    6  A    between atoms: S_16  and  C_17
REMARK    7  A    between atoms: C_20  and  C_21
REMARK    8  A    between atoms: C_22  and  O_23
REMARK                            x       y       z     vdW  Elec       q    Type
REMARK                         _______ _______ _______ _____ _____    ______ ____
ROOT
ATOM      1  N   UNL     1       1.479   8.868  19.376  0.00  0.00    +0.000 NA
ATOM      2  C   UNL     1       1.778   8.214  20.663  0.00  0.00    +0.000 C 
ATOM      3  C   UNL     1       1.152   6.830  20.573  0.00  0.00    +0.000 C 
ATOM      4  N   UNL     1       1.868   6.054  19.556  0.00  0.00    +0.000 N 
ATOM      5  C   UNL     1       2.428   4.853  19.962  0.00  0.00    +0.000 C 
ATOM      6  O   UNL     1       2.404   4.530  21.156  0.00  0.00    +0.000 OA
ATOM      7  C   UNL     1       1.877   6.678  18.209  0.00  0.00    +0.000 C 
ATOM      8  C   UNL     1       2.196   8.215  18.243  0.00  0.00    +0.000 C 
ENDROOT
BRANCH   1   9
ATOM      9  S   UNL     1       1.131  10.506  19.392  0.00  0.00    +0.000 S 
ATOM     10  O   UNL     1       1.986  11.160  18.416  0.00  0.00    +0.000 OA
ATOM     11  O   UNL     1       1.110  10.941  20.768  0.00  0.00    +0.000 OA
BRANCH   9  16
ATOM     12  C   UNL     1      -4.481  11.129  17.151  0.00  0.00    +0.000 C 
ATOM     13  C   UNL     1      -3.109  10.926  17.724  0.00  0.00    +0.000 A 
ATOM     14  C   UNL     1      -2.672  11.716  18.795  0.00  0.00    +0.000 A 
ATOM     15  C   UNL     1      -1.390  11.554  19.317  0.00  0.00    +0.000 A 
ATOM     16  C   UNL     1      -0.536  10.594  18.773  0.00  0.00    +0.000 A 
ATOM     17  C   UNL     1      -0.947   9.809  17.691  0.00  0.00    +0.000 A 
ATOM     18  C   UNL     1      -2.239   9.973  17.172  0.00  0.00    +0.000 A 
ENDBRANCH   9  16
ENDBRANCH   1   9
BRANCH   5  19
ATOM     19  C   UNL     1       3.125   3.962  18.940  0.00  0.00    +0.000 C 
BRANCH  19  20
ATOM     20  S   UNL     1       4.780   3.436  19.532  0.00  0.00    +0.000 S 
BRANCH  20  21
ATOM     21  C   UNL     1       5.719   4.822  18.942  0.00  0.00    +0.000 A 
ATOM     22  N   UNL     1       6.829   5.192  19.616  0.00  0.00    +0.000 NA
ATOM     23  N   UNL     1       7.588   6.224  19.141  0.00  0.00    +0.000 NA
ATOM     24  C   UNL     1       7.205   6.844  18.009  0.00  0.00    +0.000 A 
ATOM     25  C   UNL     1       8.071   7.944  17.498  0.00  0.00    +0.000 C 
ATOM     26  C   UNL     1       6.041   6.433  17.382  0.00  0.00    +0.000 A 
ATOM     27  N   UNL     1       5.274   5.436  17.838  0.00  0.00    +0.000 NA
BRANCH  26  28
ATOM     28  O   UNL     1       5.557   6.990  16.236  0.00  0.00    +0.000 OA
ATOM     29  H   UNL     1       5.314   7.914  16.400  0.00  0.00    +0.000 HD
ENDBRANCH  26  28
ENDBRANCH  20  21
ENDBRANCH  19  20
ENDBRANCH   5  19
TORSDOF 6
ENDMDL
MODEL 4
REMARK VINA RESULT:      -7.6      3.172      9.214
REMARK  Name = 
REMARK  8 active torsions:
REMARK  status: ('A' for Active; 'I' for Inactive)
REMARK    1  A    between atoms: C_1  and  C_2
REMARK    2  A    between atoms: C_5  and  S_6
REMARK    3  A    between atoms: S_6  and  N_9
REMARK    4  A    between atoms: C_13  and  C_15
REMARK    5  A    between atoms: C_15  and  S_16
REMARK    6  A    between atoms: S_16  and  C_17
REMARK    7  A    between atoms: C_20  and  C_21
REMARK    8  A    between atoms: C_22  and  O_23
REMARK                            x       y       z     vdW  Elec       q    Type
REMARK                         _______ _______ _______ _____ _____    ______ ____
ROOT
ATOM      1  N   UNL     1       2.343   5.498  19.412  0.00  0.00    +0.000 NA
ATOM      2  C   UNL     1       1.332   5.718  20.463  0.00  0.00    +0.000 C 
ATOM      3  C   UNL     1       1.725   7.021  21.142  0.00  0.00    +0.000 C 
ATOM      4  N   UNL     1       1.552   8.121  20.188  0.00  0.00    +0.000 N 
ATOM      5  C   UNL     1       0.710   9.155  20.566  0.00  0.00    +0.000 C 
ATOM      6  O   UNL     1       0.065   9.074  21.618  0.00  0.00    +0.000 OA
ATOM      7  C   UNL     1       2.330   7.966  18.933  0.00  0.00    +0.000 C 
ATOM      8  C   UNL     1       2.245   6.519  18.329  0.00  0.00    +0.000 C 
ENDROOT
BRANCH   1   9
ATOM      9  S   UNL     1       2.842   3.926  19.122  0.00  0.00    +0.000 S 
ATOM     10  O   UNL     1       1.801   3.253  18.363  0.00  0.00    +0.000 OA
ATOM     11  O   UNL     1       3.324   3.377  20.366  0.00  0.00    +0.000 OA
BRANCH   9  16
ATOM     12  C   UNL     1       7.452   4.853  15.275  0.00  0.00    +0.000 C 
ATOM     13  C   UNL     1       6.340   4.582  16.247  0.00  0.00    +0.000 A 
ATOM     14  C   UNL     1       5.101   4.124  15.784  0.00  0.00    +0.000 A 
ATOM     15  C   UNL     1       4.054   3.895  16.674  0.00  0.00    +0.000 A 
ATOM     16  C   UNL     1       4.242   4.117  18.038  0.00  0.00    +0.000 A 
ATOM     17  C   UNL     1       5.466   4.592  18.518  0.00  0.00    +0.000 A 
ATOM     18  C   UNL     1       6.518   4.818  17.619  0.00  0.00    +0.000 A 
ENDBRANCH   9  16
ENDBRANCH   1   9
BRANCH   5  19
ATOM     19  C   UNL     1       0.541  10.362  19.653  0.00  0.00    +0.000 C 
BRANCH  19  20
ATOM     20  S   UNL     1      -1.041  11.231  19.982  0.00  0.00    +0.000 S 
BRANCH  20  21
ATOM     21  C   UNL     1      -1.817  10.961  18.408  0.00  0.00    +0.000 A 
ATOM     22  N   UNL     1      -1.291  10.039  17.572  0.00  0.00    +0.000 NA
ATOM     23  N   UNL     1      -1.911   9.785  16.381  0.00  0.00    +0.000 NA
ATOM     24  C   UNL     1      -3.032  10.464  16.074  0.00  0.00    +0.000 A 
ATOM     25  C   UNL     1      -3.703  10.141  14.783  0.00  0.00    +0.000 C 
ATOM     26  C   UNL     1      -3.502  11.415  16.964  0.00  0.00    +0.000 A 
ATOM     27  N   UNL     1      -2.904  11.692  18.127  0.00  0.00    +0.000 NA
BRANCH  26  28
ATOM     28  O   UNL     1      -4.623  12.163  16.755  0.00  0.00    +0.000 OA
ATOM     29  H   UNL     1      -4.914  12.555  17.593  0.00  0.00    +0.000 HD
ENDBRANCH  26  28
ENDBRANCH  20  21
ENDBRANCH  19  20
ENDBRANCH   5  19
TORSDOF 6
ENDMDL
MODEL 5
REMARK VINA RESULT:      -7.5      2.454      9.821
REMARK  Name = 
REMARK  8 active torsions:
REMARK  status: ('A' for Active; 'I' for Inactive)
REMARK    1  A    between atoms: C_1  and  C_2
REMARK    2  A    between atoms: C_5  and  S_6
REMARK    3  A    between atoms: S_6  and  N_9
REMARK    4  A    between atoms: C_13  and  C_15
REMARK    5  A    between atoms: C_15  and  S_16
REMARK    6  A    between atoms: S_16  and  C_17
REMARK    7  A    between atoms: C_20  and  C_21
REMARK    8  A    between atoms: C_22  and  O_23
REMARK                            x       y       z     vdW  Elec       q    Type
REMARK                         _______ _______ _______ _____ _____    ______ ____
ROOT
ATOM      1  N   UNL     1       4.346   5.740  18.468  0.00  0.00    +0.000 NA
ATOM      2  C   UNL     1       4.556   7.018  17.762  0.00  0.00    +0.000 C 
ATOM      3  C   UNL     1       3.182   7.442  17.266  0.00  0.00    +0.000 C 
ATOM      4  N   UNL     1       2.341   7.761  18.424  0.00  0.00    +0.000 N 
ATOM      5  C   UNL     1       1.789   9.031  18.469  0.00  0.00    +0.000 C 
ATOM      6  O   UNL     1       2.098   9.871  17.616  0.00  0.00    +0.000 OA
ATOM      7  C   UNL     1       2.192   6.646  19.393  0.00  0.00    +0.000 C 
ATOM      8  C   UNL     1       3.548   5.922  19.714  0.00  0.00    +0.000 C 
ENDROOT
BRANCH   1   9
ATOM      9  S   UNL     1       5.527   4.562  18.322  0.00  0.00    +0.000 S 
ATOM     10  O   UNL     1       4.931   3.280  18.660  0.00  0.00    +0.000 OA
ATOM     11  O   UNL     1       6.709   5.032  19.003  0.00  0.00    +0.000 OA
BRANCH   9  16
ATOM     12  C   UNL     1       6.995   4.205  12.438  0.00  0.00    +0.000 C 
ATOM     13  C   UNL     1       6.596   4.332  13.879  0.00  0.00    +0.000 A 
ATOM     14  C   UNL     1       7.501   4.847  14.815  0.00  0.00    +0.000 A 
ATOM     15  C   UNL     1       7.151   4.944  16.160  0.00  0.00    +0.000 A 
ATOM     16  C   UNL     1       5.886   4.531  16.579  0.00  0.00    +0.000 A 
ATOM     17  C   UNL     1       4.975   3.996  15.663  0.00  0.00    +0.000 A 
ATOM     18  C   UNL     1       5.330   3.904  14.310  0.00  0.00    +0.000 A 
ENDBRANCH   9  16
ENDBRANCH   1   9
BRANCH   5  19
ATOM     19  C   UNL     1       0.848   9.405  19.608  0.00  0.00    +0.000 C 
BRANCH  19  20
ATOM     20  S   UNL     1       0.520  11.210  19.637  0.00  0.00    +0.000 S 
BRANCH  20  21
ATOM     21  C   UNL     1      -1.125  11.185  18.970  0.00  0.00    +0.000 A 
ATOM     22  N   UNL     1      -1.440  10.251  18.047  0.00  0.00    +0.000 NA
ATOM     23  N   UNL     1      -2.717  10.189  17.566  0.00  0.00    +0.000 NA
ATOM     24  C   UNL     1      -3.629  11.065  18.029  0.00  0.00    +0.000 A 
ATOM     25  C   UNL     1      -5.021  10.951  17.510  0.00  0.00    +0.000 C 
ATOM     26  C   UNL     1      -3.233  12.015  18.955  0.00  0.00    +0.000 A 
ATOM     27  N   UNL     1      -1.985  12.104  19.428  0.00  0.00    +0.000 NA
BRANCH  26  28
ATOM     28  O   UNL     1      -4.068  12.952  19.488  0.00  0.00    +0.000 OA
ATOM     29  H   UNL     1      -3.548  13.629  19.946  0.00  0.00    +0.000 HD
ENDBRANCH  26  28
ENDBRANCH  20  21
ENDBRANCH  19  20
ENDBRANCH   5  19
TORSDOF 6
ENDMDL
MODEL 6
REMARK VINA RESULT:      -7.5      1.361      1.581
REMARK  Name = 
REMARK  8 active torsions:
REMARK  status: ('A' for Active; 'I' for Inactive)
REMARK    1  A    between atoms: C_1  and  C_2
REMARK    2  A    between atoms: C_5  and  S_6
REMARK    3  A    between atoms: S_6  and  N_9
REMARK    4  A    between atoms: C_13  and  C_15
REMARK    5  A    between atoms: C_15  and  S_16
REMARK    6  A    between atoms: S_16  and  C_17
REMARK    7  A    between atoms: C_20  and  C_21
REMARK    8  A    between atoms: C_22  and  O_23
REMARK                            x       y       z     vdW  Elec       q    Type
REMARK                         _______ _______ _______ _____ _____    ______ ____
ROOT
ATOM      1  N   UNL     1       1.306   9.091  19.751  0.00  0.00    +0.000 NA
ATOM      2  C   UNL     1       1.509   8.378  21.026  0.00  0.00    +0.000 C 
ATOM      3  C   UNL     1       1.032   6.955  20.778  0.00  0.00    +0.000 C 
ATOM      4  N   UNL     1       1.936   6.315  19.817  0.00  0.00    +0.000 N 
ATOM      5  C   UNL     1       2.556   5.143  20.220  0.00  0.00    +0.000 C 
ATOM      6  O   UNL     1       2.418   4.738  21.381  0.00  0.00    +0.000 OA
ATOM      7  C   UNL     1       2.049   7.030  18.520  0.00  0.00    +0.000 C 
ATOM      8  C   UNL     1       2.214   8.582  18.683  0.00  0.00    +0.000 C 
ENDROOT
BRANCH   1   9
ATOM      9  S   UNL     1       0.805  10.688  19.818  0.00  0.00    +0.000 S 
ATOM     10  O   UNL     1       1.752  11.491  19.063  0.00  0.00    +0.000 OA
ATOM     11  O   UNL     1       0.500  10.999  21.194  0.00  0.00    +0.000 OA
BRANCH   9  16
ATOM     12  C   UNL     1      -4.348  11.031  16.618  0.00  0.00    +0.000 C 
ATOM     13  C   UNL     1      -3.089  10.896  17.424  0.00  0.00    +0.000 A 
ATOM     14  C   UNL     1      -2.903  11.676  18.572  0.00  0.00    +0.000 A 
ATOM     15  C   UNL     1      -1.727  11.578  19.312  0.00  0.00    +0.000 A 
ATOM     16  C   UNL     1      -0.727  10.692  18.911  0.00  0.00    +0.000 A 
ATOM     17  C   UNL     1      -0.886   9.918  17.757  0.00  0.00    +0.000 A 
ATOM     18  C   UNL     1      -2.073  10.017  17.018  0.00  0.00    +0.000 A 
ENDBRANCH   9  16
ENDBRANCH   1   9
BRANCH   5  19
ATOM     19  C   UNL     1       3.452   4.389  19.245  0.00  0.00    +0.000 C 
BRANCH  19  20
ATOM     20  S   UNL     1       5.115   5.157  19.137  0.00  0.00    +0.000 S 
BRANCH  20  21
ATOM     21  C   UNL     1       5.496   4.714  17.461  0.00  0.00    +0.000 A 
ATOM     22  N   UNL     1       4.749   3.768  16.851  0.00  0.00    +0.000 NA
ATOM     23  N   UNL     1       5.000   3.457  15.544  0.00  0.00    +0.000 NA
ATOM     24  C   UNL     1       5.988   4.106  14.900  0.00  0.00    +0.000 A 
ATOM     25  C   UNL     1       6.216   3.768  13.466  0.00  0.00    +0.000 C 
ATOM     26  C   UNL     1       6.734   5.045  15.593  0.00  0.00    +0.000 A 
ATOM     27  N   UNL     1       6.517   5.354  16.875  0.00  0.00    +0.000 NA
BRANCH  26  28
ATOM     28  O   UNL     1       7.758   5.758  15.043  0.00  0.00    +0.000 OA
ATOM     29  H   UNL     1       7.457   6.184  14.226  0.00  0.00    +0.000 HD
ENDBRANCH  26  28
ENDBRANCH  20  21
ENDBRANCH  19  20
ENDBRANCH   5  19
TORSDOF 6
ENDMDL
MODEL 7
REMARK VINA RESULT:      -7.5      3.161     10.257
REMARK  Name = 
REMARK  8 active torsions:
REMARK  status: ('A' for Active; 'I' for Inactive)
REMARK    1  A    between atoms: C_1  and  C_2
REMARK    2  A    between atoms: C_5  and  S_6
REMARK    3  A    between atoms: S_6  and  N_9
REMARK    4  A    between atoms: C_13  and  C_15
REMARK    5  A    between atoms: C_15  and  S_16
REMARK    6  A    between atoms: S_16  and  C_17
REMARK    7  A    between atoms: C_20  and  C_21
REMARK    8  A    between atoms: C_22  and  O_23
REMARK                            x       y       z     vdW  Elec       q    Type
REMARK                         _______ _______ _______ _____ _____    ______ ____
ROOT
ATOM      1  N   UNL     1       4.134   5.686  18.797  0.00  0.00    +0.000 NA
ATOM      2  C   UNL     1       4.459   6.897  18.022  0.00  0.00    +0.000 C 
ATOM      3  C   UNL     1       3.139   7.369  17.430  0.00  0.00    +0.000 C 
ATOM      4  N   UNL     1       2.267   7.817  18.520  0.00  0.00    +0.000 N 
ATOM      5  C   UNL     1       1.797   9.119  18.455  0.00  0.00    +0.000 C 
ATOM      6  O   UNL     1       2.199   9.879  17.566  0.00  0.00    +0.000 OA
ATOM      7  C   UNL     1       2.002   6.782  19.551  0.00  0.00    +0.000 C 
ATOM      8  C   UNL     1       3.292   6.000  19.987  0.00  0.00    +0.000 C 
ENDROOT
BRANCH   1   9
ATOM      9  S   UNL     1       5.242   4.430  18.789  0.00  0.00    +0.000 S 
ATOM     10  O   UNL     1       4.523   3.189  19.022  0.00  0.00    +0.000 OA
ATOM     11  O   UNL     1       6.352   4.812  19.629  0.00  0.00    +0.000 OA
BRANCH   9  16
ATOM     12  C   UNL     1       7.020   4.561  12.981  0.00  0.00    +0.000 C 
ATOM     13  C   UNL     1       6.615   4.487  14.424  0.00  0.00    +0.000 A 
ATOM     14  C   UNL     1       5.323   4.074  14.770  0.00  0.00    +0.000 A 
ATOM     15  C   UNL     1       4.928   4.028  16.105  0.00  0.00    +0.000 A 
ATOM     16  C   UNL     1       5.828   4.389  17.108  0.00  0.00    +0.000 A 
ATOM     17  C   UNL     1       7.117   4.823  16.782  0.00  0.00    +0.000 A 
ATOM     18  C   UNL     1       7.511   4.864  15.437  0.00  0.00    +0.000 A 
ENDBRANCH   9  16
ENDBRANCH   1   9
BRANCH   5  19
ATOM     19  C   UNL     1       0.830   9.626  19.518  0.00  0.00    +0.000 C 
BRANCH  19  20
ATOM     20  S   UNL     1       0.955  11.445  19.721  0.00  0.00    +0.000 S 
BRANCH  20  21
ATOM     21  C   UNL     1      -0.339  11.662  20.917  0.00  0.00    +0.000 A 
ATOM     22  N   UNL     1      -0.107  11.306  22.199  0.00  0.00    +0.000 NA
ATOM     23  N   UNL     1      -1.077  11.518  23.138  0.00  0.00    +0.000 NA
ATOM     24  C   UNL     1      -2.241  12.077  22.755  0.00  0.00    +0.000 A 
ATOM     25  C   UNL     1      -3.267  12.325  23.808  0.00  0.00    +0.000 C 
ATOM     26  C   UNL     1      -2.424  12.392  21.419  0.00  0.00    +0.000 A 
ATOM     27  N   UNL     1      -1.495  12.179  20.481  0.00  0.00    +0.000 NA
BRANCH  26  28
ATOM     28  O   UNL     1      -3.561  12.955  20.920  0.00  0.00    +0.000 OA
ATOM     29  H   UNL     1      -4.332  12.447  21.214  0.00  0.00    +0.000 HD
ENDBRANCH  26  28
ENDBRANCH  20  21
ENDBRANCH  19  20
ENDBRANCH   5  19
TORSDOF 6
ENDMDL
MODEL 8
REMARK VINA RESULT:      -7.5      2.595      9.797
REMARK  Name = 
REMARK  8 active torsions:
REMARK  status: ('A' for Active; 'I' for Inactive)
REMARK    1  A    between atoms: C_1  and  C_2
REMARK    2  A    between atoms: C_5  and  S_6
REMARK    3  A    between atoms: S_6  and  N_9
REMARK    4  A    between atoms: C_13  and  C_15
REMARK    5  A    between atoms: C_15  and  S_16
REMARK    6  A    between atoms: S_16  and  C_17
REMARK    7  A    between atoms: C_20  and  C_21
REMARK    8  A    between atoms: C_22  and  O_23
REMARK                            x       y       z     vdW  Elec       q    Type
REMARK                         _______ _______ _______ _____ _____    ______ ____
ROOT
ATOM      1  N   UNL     1       4.104   5.525  18.641  0.00  0.00    +0.000 NA
ATOM      2  C   UNL     1       4.417   6.747  17.878  0.00  0.00    +0.000 C 
ATOM      3  C   UNL     1       3.083   7.249  17.347  0.00  0.00    +0.000 C 
ATOM      4  N   UNL     1       2.259   7.687  18.478  0.00  0.00    +0.000 N 
ATOM      5  C   UNL     1       1.806   8.996  18.456  0.00  0.00    +0.000 C 
ATOM      6  O   UNL     1       2.185   9.768  17.567  0.00  0.00    +0.000 OA
ATOM      7  C   UNL     1       2.018   6.634  19.497  0.00  0.00    +0.000 C 
ATOM      8  C   UNL     1       3.312   5.827  19.868  0.00  0.00    +0.000 C 
ENDROOT
BRANCH   1   9
ATOM      9  S   UNL     1       5.193   4.254  18.567  0.00  0.00    +0.000 S 
ATOM     10  O   UNL     1       4.446   3.011  18.666  0.00  0.00    +0.000 OA
ATOM     11  O   UNL     1       6.275   4.543  19.477  0.00  0.00    +0.000 OA
BRANCH   9  16
ATOM     12  C   UNL     1       7.184   4.837  12.857  0.00  0.00    +0.000 C 
ATOM     13  C   UNL     1       6.727   4.652  14.275  0.00  0.00    +0.000 A 
ATOM     14  C   UNL     1       5.432   4.190  14.539  0.00  0.00    +0.000 A 
ATOM     15  C   UNL     1       4.988   4.040  15.851  0.00  0.00    +0.000 A 
ATOM     16  C   UNL     1       5.842   4.346  16.911  0.00  0.00    +0.000 A 
ATOM     17  C   UNL     1       7.133   4.827  16.668  0.00  0.00    +0.000 A 
ATOM     18  C   UNL     1       7.576   4.972  15.346  0.00  0.00    +0.000 A 
ENDBRANCH   9  16
ENDBRANCH   1   9
BRANCH   5  19
ATOM     19  C   UNL     1       0.887   9.495  19.564  0.00  0.00    +0.000 C 
BRANCH  19  20
ATOM     20  S   UNL     1       0.682  11.317  19.491  0.00  0.00    +0.000 S 
BRANCH  20  21
ATOM     21  C   UNL     1      -0.991  11.366  18.897  0.00  0.00    +0.000 A 
ATOM     22  N   UNL     1      -1.302  10.690  17.770  0.00  0.00    +0.000 NA
ATOM     23  N   UNL     1      -2.596  10.677  17.333  0.00  0.00    +0.000 NA
ATOM     24  C   UNL     1      -3.528  11.341  18.043  0.00  0.00    +0.000 A 
ATOM     25  C   UNL     1      -4.937  11.281  17.560  0.00  0.00    +0.000 C 
ATOM     26  C   UNL     1      -3.136  12.037  19.175  0.00  0.00    +0.000 A 
ATOM     27  N   UNL     1      -1.873  12.076  19.611  0.00  0.00    +0.000 NA
BRANCH  26  28
ATOM     28  O   UNL     1      -3.992  12.746  19.965  0.00  0.00    +0.000 OA
ATOM     29  H   UNL     1      -4.396  13.460  19.449  0.00  0.00    +0.000 HD
ENDBRANCH  26  28
ENDBRANCH  20  21
ENDBRANCH  19  20
ENDBRANCH   5  19
TORSDOF 6
ENDMDL
MODEL 9
REMARK VINA RESULT:      -7.4      3.257      9.307
REMARK  Name = 
REMARK  8 active torsions:
REMARK  status: ('A' for Active; 'I' for Inactive)
REMARK    1  A    between atoms: C_1  and  C_2
REMARK    2  A    between atoms: C_5  and  S_6
REMARK    3  A    between atoms: S_6  and  N_9
REMARK    4  A    between atoms: C_13  and  C_15
REMARK    5  A    between atoms: C_15  and  S_16
REMARK    6  A    between atoms: S_16  and  C_17
REMARK    7  A    between atoms: C_20  and  C_21
REMARK    8  A    between atoms: C_22  and  O_23
REMARK                            x       y       z     vdW  Elec       q    Type
REMARK                         _______ _______ _______ _____ _____    ______ ____
ROOT
ATOM      1  N   UNL     1       4.410   5.713  18.702  0.00  0.00    +0.000 NA
ATOM      2  C   UNL     1       4.606   6.919  17.876  0.00  0.00    +0.000 C 
ATOM      3  C   UNL     1       3.227   7.276  17.342  0.00  0.00    +0.000 C 
ATOM      4  N   UNL     1       2.381   7.695  18.463  0.00  0.00    +0.000 N 
ATOM      5  C   UNL     1       1.815   8.958  18.385  0.00  0.00    +0.000 C 
ATOM      6  O   UNL     1       2.114   9.715  17.454  0.00  0.00    +0.000 OA
ATOM      7  C   UNL     1       2.244   6.677  19.536  0.00  0.00    +0.000 C 
ATOM      8  C   UNL     1       3.608   6.005  19.925  0.00  0.00    +0.000 C 
ENDROOT
BRANCH   1   9
ATOM      9  S   UNL     1       5.605   4.540  18.671  0.00  0.00    +0.000 S 
ATOM     10  O   UNL     1       5.026   3.291  19.138  0.00  0.00    +0.000 OA
ATOM     11  O   UNL     1       6.783   5.091  19.298  0.00  0.00    +0.000 OA
BRANCH   9  16
ATOM     12  C   UNL     1       6.572   4.102  12.689  0.00  0.00    +0.000 C 
ATOM     13  C   UNL     1       6.371   4.172  14.175  0.00  0.00    +0.000 A 
ATOM     14  C   UNL     1       5.170   3.729  14.742  0.00  0.00    +0.000 A 
ATOM     15  C   UNL     1       4.962   3.815  16.117  0.00  0.00    +0.000 A 
ATOM     16  C   UNL     1       5.961   4.339  16.938  0.00  0.00    +0.000 A 
ATOM     17  C   UNL     1       7.160   4.804  16.389  0.00  0.00    +0.000 A 
ATOM     18  C   UNL     1       7.366   4.712  15.005  0.00  0.00    +0.000 A 
ENDBRANCH   9  16
ENDBRANCH   1   9
BRANCH   5  19
ATOM     19  C   UNL     1       0.867   9.428  19.482  0.00  0.00    +0.000 C 
BRANCH  19  20
ATOM     20  S   UNL     1      -0.037  10.944  18.979  0.00  0.00    +0.000 S 
BRANCH  20  21
ATOM     21  C   UNL     1       1.172  12.144  19.480  0.00  0.00    +0.000 A 
ATOM     22  N   UNL     1       1.388  12.340  20.798  0.00  0.00    +0.000 NA
ATOM     23  N   UNL     1       2.353  13.223  21.195  0.00  0.00    +0.000 NA
ATOM     24  C   UNL     1       3.063  13.874  20.254  0.00  0.00    +0.000 A 
ATOM     25  C   UNL     1       4.131  14.806  20.717  0.00  0.00    +0.000 C 
ATOM     26  C   UNL     1       2.771  13.647  18.919  0.00  0.00    +0.000 A 
ATOM     27  N   UNL     1       1.821  12.800  18.509  0.00  0.00    +0.000 NA
BRANCH  26  28
ATOM     28  O   UNL     1       3.422  14.253  17.886  0.00  0.00    +0.000 OA
ATOM     29  H   UNL     1       2.809  14.382  17.146  0.00  0.00    +0.000 HD
ENDBRANCH  26  28
ENDBRANCH  20  21
ENDBRANCH  19  20
ENDBRANCH   5  19
TORSDOF 6
ENDMDL
