MODEL 1
REMARK VINA RESULT:      -7.7      0.000      0.000
REMARK  Name = 
REMARK  7 active torsions:
REMARK  status: ('A' for Active; 'I' for Inactive)
REMARK    1  A    between atoms: C_1  and  C_2
REMARK    2  A    between atoms: C_5  and  C_6
REMARK    3  A    between atoms: C_7  and  O_8
REMARK    4  A    between atoms: O_8  and  C_9
REMARK    5  A    between atoms: C_9  and  C_10
REMARK    6  A    between atoms: N_12  and  C_13
REMARK    7  A    between atoms: C_18  and  N_19
REMARK                            x       y       z     vdW  Elec       q    Type
REMARK                         _______ _______ _______ _____ _____    ______ ____
ROOT
ATOM      1  C   UNL     1       2.362   7.332  18.673  0.00  0.00    +0.000 C 
ATOM      2  O   UNL     1       2.415   7.069  19.860  0.00  0.00    +0.000 OA
ATOM      3  N   UNL     1       2.477   6.401  17.638  0.00  0.00    +0.000 N 
ATOM      4  H   UNL     1       2.878   6.749  16.778  0.00  0.00    +0.000 HD
ENDROOT
BRANCH   3   5
ATOM      5  C   UNL     1       2.675   5.023  17.920  0.00  0.00    +0.000 A 
ATOM      6  C   UNL     1       1.531   4.223  18.097  0.00  0.00    +0.000 A 
ATOM      7  C   UNL     1       1.646   2.847  18.296  0.00  0.00    +0.000 A 
ATOM      8  C   UNL     1       2.897   2.258  18.313  0.00  0.00    +0.000 A 
ATOM      9  C   UNL     1       4.041   3.050  18.148  0.00  0.00    +0.000 A 
ATOM     10  C   UNL     1       3.967   4.445  17.957  0.00  0.00    +0.000 A 
BRANCH  10  11
ATOM     11  N   UNL     1       5.153   5.201  17.888  0.00  0.00    +0.000 N 
ATOM     12  C   UNL     1       6.136   4.971  16.814  0.00  0.00    +0.000 C 
ATOM     13  C   UNL     1       7.467   4.704  17.500  0.00  0.00    +0.000 C 
ATOM     14  C   UNL     1       7.342   5.407  18.839  0.00  0.00    +0.000 C 
ATOM     15  C   UNL     1       5.847   5.394  19.172  0.00  0.00    +0.000 C 
ENDBRANCH  10  11
ENDBRANCH   3   5
BRANCH   1  16
ATOM     16  C   UNL     1       2.144   8.769  18.180  0.00  0.00    +0.000 C 
BRANCH  16  17
ATOM     17  O   UNL     1       1.470   9.497  19.203  0.00  0.00    +0.000 OA
BRANCH  17  24
ATOM     18  C   UNL     1      -2.547  10.007  16.316  0.00  0.00    +0.000 C 
ATOM     19  C   UNL     1      -1.764  10.337  17.553  0.00  0.00    +0.000 A 
ATOM     20  C   UNL     1      -2.247  11.261  18.480  0.00  0.00    +0.000 A 
ATOM     21  C   UNL     1      -1.513  11.551  19.630  0.00  0.00    +0.000 A 
ATOM     22  C   UNL     1      -0.275  10.930  19.862  0.00  0.00    +0.000 A 
ATOM     23  C   UNL     1       0.479  11.241  21.125  0.00  0.00    +0.000 C 
ATOM     24  C   UNL     1       0.230  10.013  18.919  0.00  0.00    +0.000 A 
ATOM     25  C   UNL     1      -0.526   9.712  17.781  0.00  0.00    +0.000 A 
ENDBRANCH  17  24
ENDBRANCH  16  17
ENDBRANCH   1  16
TORSDOF 5
ENDMDL
MODEL 2
REMARK VINA RESULT:      -7.6      4.940      7.849
REMARK  Name = 
REMARK  7 active torsions:
REMARK  status: ('A' for Active; 'I' for Inactive)
REMARK    1  A    between atoms: C_1  and  C_2
REMARK    2  A    between atoms: C_5  and  C_6
REMARK    3  A    between atoms: C_7  and  O_8
REMARK    4  A    between atoms: O_8  and  C_9
REMARK    5  A    between atoms: C_9  and  C_10
REMARK    6  A    between atoms: N_12  and  C_13
REMARK    7  A    between atoms: C_18  and  N_19
REMARK                            x       y       z     vdW  Elec       q    Type
REMARK                         _______ _______ _______ _____ _____    ______ ____
ROOT
ATOM      1  C   UNL     1       7.706   7.870  17.777  0.00  0.00    +0.000 C 
ATOM      2  O   UNL     1       8.207   7.051  18.526  0.00  0.00    +0.000 OA
ATOM      3  N   UNL     1       6.779   7.578  16.773  0.00  0.00    +0.000 N 
ATOM      4  H   UNL     1       6.801   8.188  15.967  0.00  0.00    +0.000 HD
ENDROOT
BRANCH   3   5
ATOM      5  C   UNL     1       6.346   6.244  16.550  0.00  0.00    +0.000 A 
ATOM      6  C   UNL     1       7.026   5.492  15.574  0.00  0.00    +0.000 A 
ATOM      7  C   UNL     1       6.709   4.151  15.358  0.00  0.00    +0.000 A 
ATOM      8  C   UNL     1       5.720   3.548  16.114  0.00  0.00    +0.000 A 
ATOM      9  C   UNL     1       5.031   4.294  17.080  0.00  0.00    +0.000 A 
ATOM     10  C   UNL     1       5.314   5.655  17.319  0.00  0.00    +0.000 A 
BRANCH  10  11
ATOM     11  N   UNL     1       4.528   6.376  18.238  0.00  0.00    +0.000 N 
ATOM     12  C   UNL     1       3.930   5.711  19.410  0.00  0.00    +0.000 C 
ATOM     13  C   UNL     1       2.437   6.000  19.352  0.00  0.00    +0.000 C 
ATOM     14  C   UNL     1       2.341   7.295  18.568  0.00  0.00    +0.000 C 
ATOM     15  C   UNL     1       3.556   7.304  17.636  0.00  0.00    +0.000 C 
ENDBRANCH  10  11
ENDBRANCH   3   5
BRANCH   1  16
ATOM     16  C   UNL     1       8.048   9.362  17.878  0.00  0.00    +0.000 C 
BRANCH  16  17
ATOM     17  O   UNL     1       8.973   9.539  18.947  0.00  0.00    +0.000 OA
BRANCH  17  24
ATOM     18  C   UNL     1      11.852  13.028  16.881  0.00  0.00    +0.000 C 
ATOM     19  C   UNL     1      11.129  12.446  18.060  0.00  0.00    +0.000 A 
ATOM     20  C   UNL     1      11.206  13.051  19.316  0.00  0.00    +0.000 A 
ATOM     21  C   UNL     1      10.521  12.503  20.401  0.00  0.00    +0.000 A 
ATOM     22  C   UNL     1       9.760  11.333  20.248  0.00  0.00    +0.000 A 
ATOM     23  C   UNL     1       9.009  10.785  21.430  0.00  0.00    +0.000 C 
ATOM     24  C   UNL     1       9.697  10.705  18.989  0.00  0.00    +0.000 A 
ATOM     25  C   UNL     1      10.367  11.275  17.903  0.00  0.00    +0.000 A 
ENDBRANCH  17  24
ENDBRANCH  16  17
ENDBRANCH   1  16
TORSDOF 5
ENDMDL
MODEL 3
REMARK VINA RESULT:      -7.5      1.475      1.880
REMARK  Name = 
REMARK  7 active torsions:
REMARK  status: ('A' for Active; 'I' for Inactive)
REMARK    1  A    between atoms: C_1  and  C_2
REMARK    2  A    between atoms: C_5  and  C_6
REMARK    3  A    between atoms: C_7  and  O_8
REMARK    4  A    between atoms: O_8  and  C_9
REMARK    5  A    between atoms: C_9  and  C_10
REMARK    6  A    between atoms: N_12  and  C_13
REMARK    7  A    between atoms: C_18  and  N_19
REMARK                            x       y       z     vdW  Elec       q    Type
REMARK                         _______ _______ _______ _____ _____    ______ ____
ROOT
ATOM      1  C   UNL     1       2.051   7.133  19.606  0.00  0.00    +0.000 C 
ATOM      2  O   UNL     1       2.010   6.406  20.582  0.00  0.00    +0.000 OA
ATOM      3  N   UNL     1       2.464   6.741  18.330  0.00  0.00    +0.000 N 
ATOM      4  H   UNL     1       2.892   7.463  17.768  0.00  0.00    +0.000 HD
ENDROOT
BRANCH   3   5
ATOM      5  C   UNL     1       2.885   5.407  18.081  0.00  0.00    +0.000 A 
ATOM      6  C   UNL     1       1.888   4.441  17.853  0.00  0.00    +0.000 A 
ATOM      7  C   UNL     1       2.229   3.129  17.522  0.00  0.00    +0.000 A 
ATOM      8  C   UNL     1       3.559   2.772  17.409  0.00  0.00    +0.000 A 
ATOM      9  C   UNL     1       4.558   3.727  17.645  0.00  0.00    +0.000 A 
ATOM     10  C   UNL     1       4.255   5.059  17.995  0.00  0.00    +0.000 A 
BRANCH  10  11
ATOM     11  N   UNL     1       5.299   5.949  18.309  0.00  0.00    +0.000 N 
ATOM     12  C   UNL     1       5.883   6.827  17.279  0.00  0.00    +0.000 C 
ATOM     13  C   UNL     1       7.381   6.560  17.285  0.00  0.00    +0.000 C 
ATOM     14  C   UNL     1       7.662   6.060  18.690  0.00  0.00    +0.000 C 
ATOM     15  C   UNL     1       6.366   5.388  19.155  0.00  0.00    +0.000 C 
ENDBRANCH  10  11
ENDBRANCH   3   5
BRANCH   1  16
ATOM     16  C   UNL     1       1.624   8.604  19.684  0.00  0.00    +0.000 C 
BRANCH  16  17
ATOM     17  O   UNL     1       0.881   8.793  20.885  0.00  0.00    +0.000 OA
BRANCH  17  24
ATOM     18  C   UNL     1      -1.763  12.474  18.837  0.00  0.00    +0.000 C 
ATOM     19  C   UNL     1      -1.280  11.708  20.034  0.00  0.00    +0.000 A 
ATOM     20  C   UNL     1      -1.641  12.095  21.325  0.00  0.00    +0.000 A 
ATOM     21  C   UNL     1      -1.191  11.367  22.427  0.00  0.00    +0.000 A 
ATOM     22  C   UNL     1      -0.361  10.248  22.254  0.00  0.00    +0.000 A 
ATOM     23  C   UNL     1       0.083   9.467  23.459  0.00  0.00    +0.000 C 
ATOM     24  C   UNL     1       0.027   9.865  20.954  0.00  0.00    +0.000 A 
ATOM     25  C   UNL     1      -0.450  10.587  19.855  0.00  0.00    +0.000 A 
ENDBRANCH  17  24
ENDBRANCH  16  17
ENDBRANCH   1  16
TORSDOF 5
ENDMDL
MODEL 4
REMARK VINA RESULT:      -7.4      2.188      8.369
REMARK  Name = 
REMARK  7 active torsions:
REMARK  status: ('A' for Active; 'I' for Inactive)
REMARK    1  A    between atoms: C_1  and  C_2
REMARK    2  A    between atoms: C_5  and  C_6
REMARK    3  A    between atoms: C_7  and  O_8
REMARK    4  A    between atoms: O_8  and  C_9
REMARK    5  A    between atoms: C_9  and  C_10
REMARK    6  A    between atoms: N_12  and  C_13
REMARK    7  A    between atoms: C_18  and  N_19
REMARK                            x       y       z     vdW  Elec       q    Type
REMARK                         _______ _______ _______ _____ _____    ______ ____
ROOT
ATOM      1  C   UNL     1       1.746   9.232  18.536  0.00  0.00    +0.000 C 
ATOM      2  O   UNL     1       2.101   9.622  17.439  0.00  0.00    +0.000 OA
ATOM      3  N   UNL     1       1.038   9.993  19.468  0.00  0.00    +0.000 N 
ATOM      4  H   UNL     1       1.210   9.767  20.439  0.00  0.00    +0.000 HD
ENDROOT
BRANCH   3   5
ATOM      5  C   UNL     1       0.673  11.336  19.182  0.00  0.00    +0.000 A 
ATOM      6  C   UNL     1       1.615  12.342  19.464  0.00  0.00    +0.000 A 
ATOM      7  C   UNL     1       1.358  13.673  19.134  0.00  0.00    +0.000 A 
ATOM      8  C   UNL     1       0.168  14.010  18.518  0.00  0.00    +0.000 A 
ATOM      9  C   UNL     1      -0.780  13.015  18.243  0.00  0.00    +0.000 A 
ATOM     10  C   UNL     1      -0.563  11.661  18.572  0.00  0.00    +0.000 A 
BRANCH  10  11
ATOM     11  N   UNL     1      -1.588  10.720  18.356  0.00  0.00    +0.000 N 
ATOM     12  C   UNL     1      -1.571   9.840  17.175  0.00  0.00    +0.000 C 
ATOM     13  C   UNL     1      -2.904  10.042  16.469  0.00  0.00    +0.000 C 
ATOM     14  C   UNL     1      -3.840  10.500  17.571  0.00  0.00    +0.000 C 
ATOM     15  C   UNL     1      -2.954  11.218  18.593  0.00  0.00    +0.000 C 
ENDBRANCH  10  11
ENDBRANCH   3   5
BRANCH   1  16
ATOM     16  C   UNL     1       2.045   7.804  19.013  0.00  0.00    +0.000 C 
BRANCH  16  17
ATOM     17  O   UNL     1       3.050   7.250  18.170  0.00  0.00    +0.000 OA
BRANCH  17  24
ATOM     18  C   UNL     1       1.036   2.726  18.631  0.00  0.00    +0.000 C 
ATOM     19  C   UNL     1       2.112   3.643  18.128  0.00  0.00    +0.000 A 
ATOM     20  C   UNL     1       3.205   3.143  17.418  0.00  0.00    +0.000 A 
ATOM     21  C   UNL     1       4.193   4.009  16.949  0.00  0.00    +0.000 A 
ATOM     22  C   UNL     1       4.109   5.389  17.196  0.00  0.00    +0.000 A 
ATOM     23  C   UNL     1       5.174   6.300  16.651  0.00  0.00    +0.000 C 
ATOM     24  C   UNL     1       3.021   5.898  17.932  0.00  0.00    +0.000 A 
ATOM     25  C   UNL     1       2.024   5.024  18.377  0.00  0.00    +0.000 A 
ENDBRANCH  17  24
ENDBRANCH  16  17
ENDBRANCH   1  16
TORSDOF 5
ENDMDL
MODEL 5
REMARK VINA RESULT:      -7.3      2.776      8.169
REMARK  Name = 
REMARK  7 active torsions:
REMARK  status: ('A' for Active; 'I' for Inactive)
REMARK    1  A    between atoms: C_1  and  C_2
REMARK    2  A    between atoms: C_5  and  C_6
REMARK    3  A    between atoms: C_7  and  O_8
REMARK    4  A    between atoms: O_8  and  C_9
REMARK    5  A    between atoms: C_9  and  C_10
REMARK    6  A    between atoms: N_12  and  C_13
REMARK    7  A    between atoms: C_18  and  N_19
REMARK                            x       y       z     vdW  Elec       q    Type
REMARK                         _______ _______ _______ _____ _____    ______ ____
ROOT
ATOM      1  C   UNL     1       0.820   9.796  21.264  0.00  0.00    +0.000 C 
ATOM      2  O   UNL     1       0.587  10.545  22.195  0.00  0.00    +0.000 OA
ATOM      3  N   UNL     1       0.872  10.177  19.921  0.00  0.00    +0.000 N 
ATOM      4  H   UNL     1       0.605   9.466  19.254  0.00  0.00    +0.000 HD
ENDROOT
BRANCH   3   5
ATOM      5  C   UNL     1       0.642  11.526  19.540  0.00  0.00    +0.000 A 
ATOM      6  C   UNL     1       1.628  12.474  19.870  0.00  0.00    +0.000 A 
ATOM      7  C   UNL     1       1.509  13.801  19.457  0.00  0.00    +0.000 A 
ATOM      8  C   UNL     1       0.415  14.192  18.708  0.00  0.00    +0.000 A 
ATOM      9  C   UNL     1      -0.577  13.255  18.384  0.00  0.00    +0.000 A 
ATOM     10  C   UNL     1      -0.499  11.908  18.793  0.00  0.00    +0.000 A 
BRANCH  10  11
ATOM     11  N   UNL     1      -1.568  11.035  18.517  0.00  0.00    +0.000 N 
ATOM     12  C   UNL     1      -1.481  10.056  17.418  0.00  0.00    +0.000 C 
ATOM     13  C   UNL     1      -2.692  10.298  16.530  0.00  0.00    +0.000 C 
ATOM     14  C   UNL     1      -3.715  10.923  17.460  0.00  0.00    +0.000 C 
ATOM     15  C   UNL     1      -2.903  11.657  18.532  0.00  0.00    +0.000 C 
ENDBRANCH  10  11
ENDBRANCH   3   5
BRANCH   1  16
ATOM     16  C   UNL     1       1.102   8.305  21.487  0.00  0.00    +0.000 C 
BRANCH  16  17
ATOM     17  O   UNL     1       2.125   7.901  20.581  0.00  0.00    +0.000 OA
BRANCH  17  24
ATOM     18  C   UNL     1       1.194   3.019  20.779  0.00  0.00    +0.000 C 
ATOM     19  C   UNL     1       1.616   4.250  20.031  0.00  0.00    +0.000 A 
ATOM     20  C   UNL     1       2.002   4.177  18.692  0.00  0.00    +0.000 A 
ATOM     21  C   UNL     1       2.383   5.330  18.007  0.00  0.00    +0.000 A 
ATOM     22  C   UNL     1       2.397   6.575  18.657  0.00  0.00    +0.000 A 
ATOM     23  C   UNL     1       2.783   7.805  17.884  0.00  0.00    +0.000 C 
ATOM     24  C   UNL     1       2.031   6.653  20.015  0.00  0.00    +0.000 A 
ATOM     25  C   UNL     1       1.627   5.494  20.686  0.00  0.00    +0.000 A 
ENDBRANCH  17  24
ENDBRANCH  16  17
ENDBRANCH   1  16
TORSDOF 5
ENDMDL
MODEL 6
REMARK VINA RESULT:      -7.3      1.931      3.713
REMARK  Name = 
REMARK  7 active torsions:
REMARK  status: ('A' for Active; 'I' for Inactive)
REMARK    1  A    between atoms: C_1  and  C_2
REMARK    2  A    between atoms: C_5  and  C_6
REMARK    3  A    between atoms: C_7  and  O_8
REMARK    4  A    between atoms: O_8  and  C_9
REMARK    5  A    between atoms: C_9  and  C_10
REMARK    6  A    between atoms: N_12  and  C_13
REMARK    7  A    between atoms: C_18  and  N_19
REMARK                            x       y       z     vdW  Elec       q    Type
REMARK                         _______ _______ _______ _____ _____    ______ ____
ROOT
ATOM      1  C   UNL     1       2.423   5.858  18.637  0.00  0.00    +0.000 C 
ATOM      2  O   UNL     1       1.647   5.581  17.741  0.00  0.00    +0.000 OA
ATOM      3  N   UNL     1       3.813   5.743  18.557  0.00  0.00    +0.000 N 
ATOM      4  H   UNL     1       4.286   5.543  19.428  0.00  0.00    +0.000 HD
ENDROOT
BRANCH   3   5
ATOM      5  C   UNL     1       4.437   5.271  17.372  0.00  0.00    +0.000 A 
ATOM      6  C   UNL     1       4.827   6.226  16.415  0.00  0.00    +0.000 A 
ATOM      7  C   UNL     1       5.517   5.843  15.265  0.00  0.00    +0.000 A 
ATOM      8  C   UNL     1       5.829   4.512  15.062  0.00  0.00    +0.000 A 
ATOM      9  C   UNL     1       5.434   3.553  16.005  0.00  0.00    +0.000 A 
ATOM     10  C   UNL     1       4.724   3.899  17.174  0.00  0.00    +0.000 A 
BRANCH  10  11
ATOM     11  N   UNL     1       4.275   2.883  18.039  0.00  0.00    +0.000 N 
ATOM     12  C   UNL     1       2.934   2.291  17.881  0.00  0.00    +0.000 C 
ATOM     13  C   UNL     1       2.239   2.437  19.226  0.00  0.00    +0.000 C 
ATOM     14  C   UNL     1       3.377   2.500  20.227  0.00  0.00    +0.000 C 
ATOM     15  C   UNL     1       4.561   3.106  19.467  0.00  0.00    +0.000 C 
ENDBRANCH  10  11
ENDBRANCH   3   5
BRANCH   1  16
ATOM     16  C   UNL     1       1.930   6.393  19.987  0.00  0.00    +0.000 C 
BRANCH  16  17
ATOM     17  O   UNL     1       2.353   7.747  20.116  0.00  0.00    +0.000 OA
BRANCH  17  24
ATOM     18  C   UNL     1      -0.804  10.065  23.181  0.00  0.00    +0.000 C 
ATOM     19  C   UNL     1      -0.186   9.872  21.827  0.00  0.00    +0.000 A 
ATOM     20  C   UNL     1      -0.602  10.635  20.735  0.00  0.00    +0.000 A 
ATOM     21  C   UNL     1      -0.012  10.450  19.484  0.00  0.00    +0.000 A 
ATOM     22  C   UNL     1       0.994   9.487  19.304  0.00  0.00    +0.000 A 
ATOM     23  C   UNL     1       1.631   9.332  17.952  0.00  0.00    +0.000 C 
ATOM     24  C   UNL     1       1.402   8.697  20.397  0.00  0.00    +0.000 A 
ATOM     25  C   UNL     1       0.822   8.907  21.652  0.00  0.00    +0.000 A 
ENDBRANCH  17  24
ENDBRANCH  16  17
ENDBRANCH   1  16
TORSDOF 5
ENDMDL
MODEL 7
REMARK VINA RESULT:      -7.3      1.418      2.095
REMARK  Name = 
REMARK  7 active torsions:
REMARK  status: ('A' for Active; 'I' for Inactive)
REMARK    1  A    between atoms: C_1  and  C_2
REMARK    2  A    between atoms: C_5  and  C_6
REMARK    3  A    between atoms: C_7  and  O_8
REMARK    4  A    between atoms: O_8  and  C_9
REMARK    5  A    between atoms: C_9  and  C_10
REMARK    6  A    between atoms: N_12  and  C_13
REMARK    7  A    between atoms: C_18  and  N_19
REMARK                            x       y       z     vdW  Elec       q    Type
REMARK                         _______ _______ _______ _____ _____    ______ ____
ROOT
ATOM      1  C   UNL     1       2.373   7.401  18.670  0.00  0.00    +0.000 C 
ATOM      2  O   UNL     1       2.369   7.126  19.856  0.00  0.00    +0.000 OA
ATOM      3  N   UNL     1       2.529   6.478  17.633  0.00  0.00    +0.000 N 
ATOM      4  H   UNL     1       2.972   6.832  16.795  0.00  0.00    +0.000 HD
ENDROOT
BRANCH   3   5
ATOM      5  C   UNL     1       2.705   5.097  17.910  0.00  0.00    +0.000 A 
ATOM      6  C   UNL     1       1.549   4.310  18.066  0.00  0.00    +0.000 A 
ATOM      7  C   UNL     1       1.643   2.932  18.260  0.00  0.00    +0.000 A 
ATOM      8  C   UNL     1       2.885   2.327  18.292  0.00  0.00    +0.000 A 
ATOM      9  C   UNL     1       4.043   3.105  18.148  0.00  0.00    +0.000 A 
ATOM     10  C   UNL     1       3.989   4.502  17.964  0.00  0.00    +0.000 A 
BRANCH  10  11
ATOM     11  N   UNL     1       5.185   5.242  17.916  0.00  0.00    +0.000 N 
ATOM     12  C   UNL     1       6.170   5.023  16.842  0.00  0.00    +0.000 C 
ATOM     13  C   UNL     1       7.494   4.722  17.528  0.00  0.00    +0.000 C 
ATOM     14  C   UNL     1       7.372   5.398  18.881  0.00  0.00    +0.000 C 
ATOM     15  C   UNL     1       5.876   5.399  19.207  0.00  0.00    +0.000 C 
ENDBRANCH  10  11
ENDBRANCH   3   5
BRANCH   1  16
ATOM     16  C   UNL     1       2.186   8.843  18.181  0.00  0.00    +0.000 C 
BRANCH  16  17
ATOM     17  O   UNL     1       1.073   9.409  18.867  0.00  0.00    +0.000 OA
BRANCH  17  24
ATOM     18  C   UNL     1       2.459  14.175  18.558  0.00  0.00    +0.000 C 
ATOM     19  C   UNL     1       1.405  13.107  18.543  0.00  0.00    +0.000 A 
ATOM     20  C   UNL     1       0.056  13.434  18.397  0.00  0.00    +0.000 A 
ATOM     21  C   UNL     1      -0.911  12.429  18.375  0.00  0.00    +0.000 A 
ATOM     22  C   UNL     1      -0.543  11.081  18.515  0.00  0.00    +0.000 A 
ATOM     23  C   UNL     1      -1.606  10.019  18.458  0.00  0.00    +0.000 C 
ATOM     24  C   UNL     1       0.814  10.745  18.686  0.00  0.00    +0.000 A 
ATOM     25  C   UNL     1       1.778  11.759  18.682  0.00  0.00    +0.000 A 
ENDBRANCH  17  24
ENDBRANCH  16  17
ENDBRANCH   1  16
TORSDOF 5
ENDMDL
MODEL 8
REMARK VINA RESULT:      -7.3      1.718      3.258
REMARK  Name = 
REMARK  7 active torsions:
REMARK  status: ('A' for Active; 'I' for Inactive)
REMARK    1  A    between atoms: C_1  and  C_2
REMARK    2  A    between atoms: C_5  and  C_6
REMARK    3  A    between atoms: C_7  and  O_8
REMARK    4  A    between atoms: O_8  and  C_9
REMARK    5  A    between atoms: C_9  and  C_10
REMARK    6  A    between atoms: N_12  and  C_13
REMARK    7  A    between atoms: C_18  and  N_19
REMARK                            x       y       z     vdW  Elec       q    Type
REMARK                         _______ _______ _______ _____ _____    ______ ____
ROOT
ATOM      1  C   UNL     1       2.030   8.510  18.438  0.00  0.00    +0.000 C 
ATOM      2  O   UNL     1       2.133   8.885  17.284  0.00  0.00    +0.000 OA
ATOM      3  N   UNL     1       2.551   7.317  18.943  0.00  0.00    +0.000 N 
ATOM      4  H   UNL     1       2.037   6.905  19.710  0.00  0.00    +0.000 HD
ENDROOT
BRANCH   3   5
ATOM      5  C   UNL     1       3.265   6.423  18.102  0.00  0.00    +0.000 A 
ATOM      6  C   UNL     1       4.324   6.949  17.339  0.00  0.00    +0.000 A 
ATOM      7  C   UNL     1       5.120   6.116  16.553  0.00  0.00    +0.000 A 
ATOM      8  C   UNL     1       4.874   4.756  16.526  0.00  0.00    +0.000 A 
ATOM      9  C   UNL     1       3.814   4.225  17.275  0.00  0.00    +0.000 A 
ATOM     10  C   UNL     1       2.979   5.036  18.071  0.00  0.00    +0.000 A 
BRANCH  10  11
ATOM     11  N   UNL     1       1.875   4.461  18.729  0.00  0.00    +0.000 N 
ATOM     12  C   UNL     1       1.880   4.267  20.190  0.00  0.00    +0.000 C 
ATOM     13  C   UNL     1       1.587   2.793  20.429  0.00  0.00    +0.000 C 
ATOM     14  C   UNL     1       0.813   2.365  19.196  0.00  0.00    +0.000 C 
ATOM     15  C   UNL     1       1.300   3.277  18.067  0.00  0.00    +0.000 C 
ENDBRANCH  10  11
ENDBRANCH   3   5
BRANCH   1  16
ATOM     16  C   UNL     1       1.300   9.353  19.491  0.00  0.00    +0.000 C 
BRANCH  16  17
ATOM     17  O   UNL     1       0.907  10.583  18.890  0.00  0.00    +0.000 OA
BRANCH  17  24
ATOM     18  C   UNL     1      -3.290   9.856  16.322  0.00  0.00    +0.000 C 
ATOM     19  C   UNL     1      -2.525  10.505  17.438  0.00  0.00    +0.000 A 
ATOM     20  C   UNL     1      -3.141  11.426  18.286  0.00  0.00    +0.000 A 
ATOM     21  C   UNL     1      -2.419  12.015  19.325  0.00  0.00    +0.000 A 
ATOM     22  C   UNL     1      -1.064  11.700  19.521  0.00  0.00    +0.000 A 
ATOM     23  C   UNL     1      -0.322  12.329  20.667  0.00  0.00    +0.000 C 
ATOM     24  C   UNL     1      -0.430  10.789  18.654  0.00  0.00    +0.000 A 
ATOM     25  C   UNL     1      -1.169  10.186  17.631  0.00  0.00    +0.000 A 
ENDBRANCH  17  24
ENDBRANCH  16  17
ENDBRANCH   1  16
TORSDOF 5
ENDMDL
MODEL 9
REMARK VINA RESULT:      -7.3      1.549      1.805
REMARK  Name = 
REMARK  7 active torsions:
REMARK  status: ('A' for Active; 'I' for Inactive)
REMARK    1  A    between atoms: C_1  and  C_2
REMARK    2  A    between atoms: C_5  and  C_6
REMARK    3  A    between atoms: C_7  and  O_8
REMARK    4  A    between atoms: O_8  and  C_9
REMARK    5  A    between atoms: C_9  and  C_10
REMARK    6  A    between atoms: N_12  and  C_13
REMARK    7  A    between atoms: C_18  and  N_19
REMARK                            x       y       z     vdW  Elec       q    Type
REMARK                         _______ _______ _______ _____ _____    ______ ____
ROOT
ATOM      1  C   UNL     1       2.349   6.783  18.559  0.00  0.00    +0.000 C 
ATOM      2  O   UNL     1       2.083   6.046  17.627  0.00  0.00    +0.000 OA
ATOM      3  N   UNL     1       2.927   6.376  19.764  0.00  0.00    +0.000 N 
ATOM      4  H   UNL     1       2.674   6.921  20.577  0.00  0.00    +0.000 HD
ENDROOT
BRANCH   3   5
ATOM      5  C   UNL     1       3.255   5.013  19.988  0.00  0.00    +0.000 A 
ATOM      6  C   UNL     1       2.389   4.259  20.803  0.00  0.00    +0.000 A 
ATOM      7  C   UNL     1       2.603   2.895  21.001  0.00  0.00    +0.000 A 
ATOM      8  C   UNL     1       3.672   2.271  20.386  0.00  0.00    +0.000 A 
ATOM      9  C   UNL     1       4.545   3.016  19.582  0.00  0.00    +0.000 A 
ATOM     10  C   UNL     1       4.370   4.399  19.367  0.00  0.00    +0.000 A 
BRANCH  10  11
ATOM     11  N   UNL     1       5.329   5.113  18.624  0.00  0.00    +0.000 N 
ATOM     12  C   UNL     1       5.682   4.706  17.252  0.00  0.00    +0.000 C 
ATOM     13  C   UNL     1       7.192   4.520  17.234  0.00  0.00    +0.000 C 
ATOM     14  C   UNL     1       7.689   5.420  18.350  0.00  0.00    +0.000 C 
ATOM     15  C   UNL     1       6.545   5.486  19.367  0.00  0.00    +0.000 C 
ENDBRANCH  10  11
ENDBRANCH   3   5
BRANCH   1  16
ATOM     16  C   UNL     1       2.073   8.291  18.492  0.00  0.00    +0.000 C 
BRANCH  16  17
ATOM     17  O   UNL     1       1.742   8.746  19.801  0.00  0.00    +0.000 OA
BRANCH  17  24
ATOM     18  C   UNL     1      -1.564  11.965  17.945  0.00  0.00    +0.000 C 
ATOM     19  C   UNL     1      -0.906  11.274  19.104  0.00  0.00    +0.000 A 
ATOM     20  C   UNL     1      -1.265  11.580  20.417  0.00  0.00    +0.000 A 
ATOM     21  C   UNL     1      -0.651  10.923  21.484  0.00  0.00    +0.000 A 
ATOM     22  C   UNL     1       0.343   9.958  21.251  0.00  0.00    +0.000 A 
ATOM     23  C   UNL     1       0.964   9.246  22.420  0.00  0.00    +0.000 C 
ATOM     24  C   UNL     1       0.727   9.661  19.929  0.00  0.00    +0.000 A 
ATOM     25  C   UNL     1       0.088  10.308  18.867  0.00  0.00    +0.000 A 
ENDBRANCH  17  24
ENDBRANCH  16  17
ENDBRANCH   1  16
TORSDOF 5
ENDMDL
