MODEL 1
REMARK VINA RESULT:      -7.2      0.000      0.000
REMARK  Name = 
REMARK  4 active torsions:
REMARK  status: ('A' for Active; 'I' for Inactive)
REMARK    1  A    between atoms: C_1  and  O_2
REMARK    2  A    between atoms: O_2  and  C_3
REMARK    3  A    between atoms: C_3  and  C_5
REMARK    4  A    between atoms: C_6  and  C_7
REMARK                            x       y       z     vdW  Elec       q    Type
REMARK                         _______ _______ _______ _____ _____    ______ ____
ROOT
ATOM      1  C   UNL     1       3.763   4.271  19.161  0.00  0.00    +0.000 C 
ATOM      2  C   UNL     1       2.548   4.849  19.316  0.00  0.00    +0.000 C 
ATOM      3  C   UNL     1       1.352   3.998  19.731  0.00  0.00    +0.000 C 
ATOM      4  C   UNL     1       1.728   2.541  20.107  0.00  0.00    +0.000 C 
ATOM      5  C   UNL     1       1.850   1.602  18.921  0.00  0.00    +0.000 C 
ATOM      6  C   UNL     1       3.202   1.963  18.324  0.00  0.00    +0.000 C 
ATOM      7  C   UNL     1       3.878   2.789  19.427  0.00  0.00    +0.000 C 
ATOM      8  O   UNL     1       3.076   2.532  20.612  0.00  0.00    +0.000 OA
ENDROOT
BRANCH   2   9
ATOM      9  C   UNL     1       2.315   6.300  19.244  0.00  0.00    +0.000 A 
ATOM     10  C   UNL     1       2.435   6.944  18.005  0.00  0.00    +0.000 A 
ATOM     11  C   UNL     1       2.140   8.303  17.886  0.00  0.00    +0.000 A 
ATOM     12  C   UNL     1       1.724   9.030  19.004  0.00  0.00    +0.000 A 
ATOM     13 CL   UNL     1       1.352  10.702  18.782  0.00  0.00    +0.000 Cl
ATOM     14  C   UNL     1       1.616   8.394  20.246  0.00  0.00    +0.000 A 
ATOM     15 CL   UNL     1       1.114   9.229  21.673  0.00  0.00    +0.000 Cl
ATOM     16  C   UNL     1       1.917   7.029  20.368  0.00  0.00    +0.000 A 
ENDBRANCH   2   9
BRANCH   1  17
ATOM     17  C   UNL     1       5.011   5.018  18.850  0.00  0.00    +0.000 C 
ATOM     18  O   UNL     1       5.718   5.588  19.664  0.00  0.00    +0.000 OA
BRANCH  17  20
ATOM     19  C   UNL     1       6.605   4.647  17.183  0.00  0.00    +0.000 C 
ATOM     20  O   UNL     1       5.251   4.967  17.513  0.00  0.00    +0.000 OA
ENDBRANCH  17  20
ENDBRANCH   1  17
TORSDOF 3
ENDMDL
MODEL 2
REMARK VINA RESULT:      -7.1      1.686      3.620
REMARK  Name = 
REMARK  4 active torsions:
REMARK  status: ('A' for Active; 'I' for Inactive)
REMARK    1  A    between atoms: C_1  and  O_2
REMARK    2  A    between atoms: O_2  and  C_3
REMARK    3  A    between atoms: C_3  and  C_5
REMARK    4  A    between atoms: C_6  and  C_7
REMARK                            x       y       z     vdW  Elec       q    Type
REMARK                         _______ _______ _______ _____ _____    ______ ____
ROOT
ATOM      1  C   UNL     1       3.301   5.101  17.778  0.00  0.00    +0.000 C 
ATOM      2  C   UNL     1       3.664   6.396  17.940  0.00  0.00    +0.000 C 
ATOM      3  C   UNL     1       5.037   6.862  17.470  0.00  0.00    +0.000 C 
ATOM      4  C   UNL     1       5.819   5.786  16.673  0.00  0.00    +0.000 C 
ATOM      5  C   UNL     1       6.571   4.791  17.539  0.00  0.00    +0.000 C 
ATOM      6  C   UNL     1       5.476   3.857  18.032  0.00  0.00    +0.000 C 
ATOM      7  C   UNL     1       4.287   4.171  17.113  0.00  0.00    +0.000 C 
ATOM      8  O   UNL     1       4.871   4.924  16.016  0.00  0.00    +0.000 OA
ENDROOT
BRANCH   2   9
ATOM      9  C   UNL     1       2.755   7.447  18.426  0.00  0.00    +0.000 A 
ATOM     10  C   UNL     1       2.263   8.391  17.514  0.00  0.00    +0.000 A 
ATOM     11  C   UNL     1       1.335   9.349  17.925  0.00  0.00    +0.000 A 
ATOM     12  C   UNL     1       0.892   9.373  19.248  0.00  0.00    +0.000 A 
ATOM     13 CL   UNL     1      -0.274  10.570  19.684  0.00  0.00    +0.000 Cl
ATOM     14  C   UNL     1       1.392   8.441  20.166  0.00  0.00    +0.000 A 
ATOM     15 CL   UNL     1       0.895   8.414  21.820  0.00  0.00    +0.000 Cl
ATOM     16  C   UNL     1       2.328   7.481  19.756  0.00  0.00    +0.000 A 
ENDBRANCH   2   9
BRANCH   1  17
ATOM     17  C   UNL     1       1.958   4.560  18.114  0.00  0.00    +0.000 C 
ATOM     18  O   UNL     1       1.015   4.473  17.345  0.00  0.00    +0.000 OA
BRANCH  17  20
ATOM     19  C   UNL     1       0.918   3.210  19.713  0.00  0.00    +0.000 C 
ATOM     20  O   UNL     1       1.937   4.169  19.416  0.00  0.00    +0.000 OA
ENDBRANCH  17  20
ENDBRANCH   1  17
TORSDOF 3
ENDMDL
MODEL 3
REMARK VINA RESULT:      -7.0      2.517      4.267
REMARK  Name = 
REMARK  4 active torsions:
REMARK  status: ('A' for Active; 'I' for Inactive)
REMARK    1  A    between atoms: C_1  and  O_2
REMARK    2  A    between atoms: O_2  and  C_3
REMARK    3  A    between atoms: C_3  and  C_5
REMARK    4  A    between atoms: C_6  and  C_7
REMARK                            x       y       z     vdW  Elec       q    Type
REMARK                         _______ _______ _______ _____ _____    ______ ____
ROOT
ATOM      1  C   UNL     1       6.410   5.698  16.779  0.00  0.00    +0.000 C 
ATOM      2  C   UNL     1       5.082   5.435  16.760  0.00  0.00    +0.000 C 
ATOM      3  C   UNL     1       4.539   4.346  15.840  0.00  0.00    +0.000 C 
ATOM      4  C   UNL     1       5.646   3.521  15.135  0.00  0.00    +0.000 C 
ATOM      5  C   UNL     1       6.197   4.162  13.874  0.00  0.00    +0.000 C 
ATOM      6  C   UNL     1       7.123   5.245  14.407  0.00  0.00    +0.000 C 
ATOM      7  C   UNL     1       7.306   4.875  15.885  0.00  0.00    +0.000 C 
ATOM      8  O   UNL     1       6.815   3.509  15.976  0.00  0.00    +0.000 OA
ENDROOT
BRANCH   2   9
ATOM      9  C   UNL     1       4.112   6.044  17.684  0.00  0.00    +0.000 A 
ATOM     10  C   UNL     1       3.852   5.410  18.906  0.00  0.00    +0.000 A 
ATOM     11  C   UNL     1       3.001   6.004  19.840  0.00  0.00    +0.000 A 
ATOM     12  C   UNL     1       2.403   7.234  19.560  0.00  0.00    +0.000 A 
ATOM     13 CL   UNL     1       1.380   7.925  20.769  0.00  0.00    +0.000 Cl
ATOM     14  C   UNL     1       2.649   7.864  18.334  0.00  0.00    +0.000 A 
ATOM     15 CL   UNL     1       1.940   9.383  17.916  0.00  0.00    +0.000 Cl
ATOM     16  C   UNL     1       3.500   7.266  17.393  0.00  0.00    +0.000 A 
ENDBRANCH   2   9
BRANCH   1  17
ATOM     17  C   UNL     1       7.057   6.670  17.700  0.00  0.00    +0.000 C 
ATOM     18  O   UNL     1       7.501   6.413  18.807  0.00  0.00    +0.000 OA
BRANCH  17  20
ATOM     19  C   UNL     1       7.972   8.820  17.759  0.00  0.00    +0.000 C 
ATOM     20  O   UNL     1       7.085   7.899  17.118  0.00  0.00    +0.000 OA
ENDBRANCH  17  20
ENDBRANCH   1  17
TORSDOF 3
ENDMDL
MODEL 4
REMARK VINA RESULT:      -6.9      2.567      4.259
REMARK  Name = 
REMARK  4 active torsions:
REMARK  status: ('A' for Active; 'I' for Inactive)
REMARK    1  A    between atoms: C_1  and  O_2
REMARK    2  A    between atoms: O_2  and  C_3
REMARK    3  A    between atoms: C_3  and  C_5
REMARK    4  A    between atoms: C_6  and  C_7
REMARK                            x       y       z     vdW  Elec       q    Type
REMARK                         _______ _______ _______ _____ _____    ______ ____
ROOT
ATOM      1  C   UNL     1       6.488   5.671  16.757  0.00  0.00    +0.000 C 
ATOM      2  C   UNL     1       5.161   5.403  16.800  0.00  0.00    +0.000 C 
ATOM      3  C   UNL     1       4.575   4.329  15.891  0.00  0.00    +0.000 C 
ATOM      4  C   UNL     1       5.646   3.519  15.116  0.00  0.00    +0.000 C 
ATOM      5  C   UNL     1       6.130   4.184  13.840  0.00  0.00    +0.000 C 
ATOM      6  C   UNL     1       7.080   5.260  14.343  0.00  0.00    +0.000 C 
ATOM      7  C   UNL     1       7.339   4.865  15.804  0.00  0.00    +0.000 C 
ATOM      8  O   UNL     1       6.856   3.497  15.896  0.00  0.00    +0.000 OA
ENDROOT
BRANCH   2   9
ATOM      9  C   UNL     1       4.238   5.994  17.783  0.00  0.00    +0.000 A 
ATOM     10  C   UNL     1       3.741   7.284  17.553  0.00  0.00    +0.000 A 
ATOM     11  C   UNL     1       2.800   7.841  18.421  0.00  0.00    +0.000 A 
ATOM     12  C   UNL     1       2.349   7.114  19.524  0.00  0.00    +0.000 A 
ATOM     13 CL   UNL     1       1.166   7.853  20.544  0.00  0.00    +0.000 Cl
ATOM     14  C   UNL     1       2.854   5.831  19.765  0.00  0.00    +0.000 A 
ATOM     15 CL   UNL     1       2.347   4.876  21.113  0.00  0.00    +0.000 Cl
ATOM     16  C   UNL     1       3.802   5.272  18.897  0.00  0.00    +0.000 A 
ENDBRANCH   2   9
BRANCH   1  17
ATOM     17  C   UNL     1       7.179   6.629  17.660  0.00  0.00    +0.000 C 
ATOM     18  O   UNL     1       7.601   6.374  18.776  0.00  0.00    +0.000 OA
BRANCH  17  20
ATOM     19  C   UNL     1       7.999   8.811  17.811  0.00  0.00    +0.000 C 
ATOM     20  O   UNL     1       7.275   7.841  17.051  0.00  0.00    +0.000 OA
ENDBRANCH  17  20
ENDBRANCH   1  17
TORSDOF 3
ENDMDL
MODEL 5
REMARK VINA RESULT:      -6.8      1.627      3.897
REMARK  Name = 
REMARK  4 active torsions:
REMARK  status: ('A' for Active; 'I' for Inactive)
REMARK    1  A    between atoms: C_1  and  O_2
REMARK    2  A    between atoms: O_2  and  C_3
REMARK    3  A    between atoms: C_3  and  C_5
REMARK    4  A    between atoms: C_6  and  C_7
REMARK                            x       y       z     vdW  Elec       q    Type
REMARK                         _______ _______ _______ _____ _____    ______ ____
ROOT
ATOM      1  C   UNL     1       3.482   4.981  17.540  0.00  0.00    +0.000 C 
ATOM      2  C   UNL     1       3.723   6.263  17.906  0.00  0.00    +0.000 C 
ATOM      3  C   UNL     1       4.981   6.968  17.412  0.00  0.00    +0.000 C 
ATOM      4  C   UNL     1       5.779   6.150  16.363  0.00  0.00    +0.000 C 
ATOM      5  C   UNL     1       6.720   5.119  16.960  0.00  0.00    +0.000 C 
ATOM      6  C   UNL     1       5.789   3.987  17.366  0.00  0.00    +0.000 C 
ATOM      7  C   UNL     1       4.481   4.308  16.630  0.00  0.00    +0.000 C 
ATOM      8  O   UNL     1       4.860   5.307  15.644  0.00  0.00    +0.000 OA
ENDROOT
BRANCH   2   9
ATOM      9  C   UNL     1       2.768   7.094  18.657  0.00  0.00    +0.000 A 
ATOM     10  C   UNL     1       2.420   6.714  19.961  0.00  0.00    +0.000 A 
ATOM     11  C   UNL     1       1.583   7.524  20.730  0.00  0.00    +0.000 A 
ATOM     12  C   UNL     1       1.086   8.718  20.203  0.00  0.00    +0.000 A 
ATOM     13 CL   UNL     1       0.075   9.684  21.217  0.00  0.00    +0.000 Cl
ATOM     14  C   UNL     1       1.420   9.094  18.896  0.00  0.00    +0.000 A 
ATOM     15 CL   UNL     1       0.838  10.552  18.176  0.00  0.00    +0.000 Cl
ATOM     16  C   UNL     1       2.257   8.278  18.121  0.00  0.00    +0.000 A 
ENDBRANCH   2   9
BRANCH   1  17
ATOM     17  C   UNL     1       2.246   4.230  17.887  0.00  0.00    +0.000 C 
ATOM     18  O   UNL     1       1.179   4.309  17.300  0.00  0.00    +0.000 OA
BRANCH  17  20
ATOM     19  C   UNL     1       2.055   2.080  18.782  0.00  0.00    +0.000 C 
ATOM     20  O   UNL     1       2.485   3.432  18.961  0.00  0.00    +0.000 OA
ENDBRANCH  17  20
ENDBRANCH   1  17
TORSDOF 3
ENDMDL
MODEL 6
REMARK VINA RESULT:      -6.8      3.128      4.768
REMARK  Name = 
REMARK  4 active torsions:
REMARK  status: ('A' for Active; 'I' for Inactive)
REMARK    1  A    between atoms: C_1  and  O_2
REMARK    2  A    between atoms: O_2  and  C_3
REMARK    3  A    between atoms: C_3  and  C_5
REMARK    4  A    between atoms: C_6  and  C_7
REMARK                            x       y       z     vdW  Elec       q    Type
REMARK                         _______ _______ _______ _____ _____    ______ ____
ROOT
ATOM      1  C   UNL     1       2.421   4.835  19.229  0.00  0.00    +0.000 C 
ATOM      2  C   UNL     1       3.319   3.925  18.783  0.00  0.00    +0.000 C 
ATOM      3  C   UNL     1       3.150   2.453  19.146  0.00  0.00    +0.000 C 
ATOM      4  C   UNL     1       1.815   2.142  19.870  0.00  0.00    +0.000 C 
ATOM      5  C   UNL     1       1.842   2.398  21.366  0.00  0.00    +0.000 C 
ATOM      6  C   UNL     1       1.726   3.912  21.466  0.00  0.00    +0.000 C 
ATOM      7  C   UNL     1       1.266   4.336  20.064  0.00  0.00    +0.000 C 
ATOM      8  O   UNL     1       0.827   3.098  19.441  0.00  0.00    +0.000 OA
ENDROOT
BRANCH   2   9
ATOM      9  C   UNL     1       4.402   4.237  17.836  0.00  0.00    +0.000 A 
ATOM     10  C   UNL     1       4.319   3.743  16.527  0.00  0.00    +0.000 A 
ATOM     11  C   UNL     1       5.286   4.090  15.582  0.00  0.00    +0.000 A 
ATOM     12  C   UNL     1       6.342   4.931  15.936  0.00  0.00    +0.000 A 
ATOM     13 CL   UNL     1       7.490   5.339  14.711  0.00  0.00    +0.000 Cl
ATOM     14  C   UNL     1       6.436   5.415  17.247  0.00  0.00    +0.000 A 
ATOM     15 CL   UNL     1       7.718   6.454  17.759  0.00  0.00    +0.000 Cl
ATOM     16  C   UNL     1       5.468   5.064  18.198  0.00  0.00    +0.000 A 
ENDBRANCH   2   9
BRANCH   1  17
ATOM     17  C   UNL     1       2.436   6.276  18.861  0.00  0.00    +0.000 C 
ATOM     18  O   UNL     1       2.300   6.722  17.734  0.00  0.00    +0.000 OA
BRANCH  17  20
ATOM     19  C   UNL     1       1.693   8.108  20.106  0.00  0.00    +0.000 C 
ATOM     20  O   UNL     1       2.622   7.029  19.977  0.00  0.00    +0.000 OA
ENDBRANCH  17  20
ENDBRANCH   1  17
TORSDOF 3
ENDMDL
MODEL 7
REMARK VINA RESULT:      -6.8      3.127      4.329
REMARK  Name = 
REMARK  4 active torsions:
REMARK  status: ('A' for Active; 'I' for Inactive)
REMARK    1  A    between atoms: C_1  and  O_2
REMARK    2  A    between atoms: O_2  and  C_3
REMARK    3  A    between atoms: C_3  and  C_5
REMARK    4  A    between atoms: C_6  and  C_7
REMARK                            x       y       z     vdW  Elec       q    Type
REMARK                         _______ _______ _______ _____ _____    ______ ____
ROOT
ATOM      1  C   UNL     1       2.407   4.961  18.781  0.00  0.00    +0.000 C 
ATOM      2  C   UNL     1       3.574   4.441  18.333  0.00  0.00    +0.000 C 
ATOM      3  C   UNL     1       3.636   2.980  17.899  0.00  0.00    +0.000 C 
ATOM      4  C   UNL     1       2.250   2.286  17.859  0.00  0.00    +0.000 C 
ATOM      5  C   UNL     1       1.779   1.756  19.202  0.00  0.00    +0.000 C 
ATOM      6  C   UNL     1       1.307   3.006  19.927  0.00  0.00    +0.000 C 
ATOM      7  C   UNL     1       1.198   4.056  18.812  0.00  0.00    +0.000 C 
ATOM      8  O   UNL     1       1.246   3.280  17.583  0.00  0.00    +0.000 OA
ENDROOT
BRANCH   2   9
ATOM      9  C   UNL     1       4.790   5.237  18.100  0.00  0.00    +0.000 A 
ATOM     10  C   UNL     1       4.798   6.169  17.053  0.00  0.00    +0.000 A 
ATOM     11  C   UNL     1       5.904   6.998  16.857  0.00  0.00    +0.000 A 
ATOM     12  C   UNL     1       7.009   6.902  17.704  0.00  0.00    +0.000 A 
ATOM     13 CL   UNL     1       8.333   7.975  17.420  0.00  0.00    +0.000 Cl
ATOM     14  C   UNL     1       7.011   5.963  18.742  0.00  0.00    +0.000 A 
ATOM     15 CL   UNL     1       8.346   5.784  19.825  0.00  0.00    +0.000 Cl
ATOM     16  C   UNL     1       5.903   5.126  18.937  0.00  0.00    +0.000 A 
ENDBRANCH   2   9
BRANCH   1  17
ATOM     17  C   UNL     1       2.210   6.390  19.141  0.00  0.00    +0.000 C 
ATOM     18  O   UNL     1       2.334   6.863  20.259  0.00  0.00    +0.000 OA
BRANCH  17  20
ATOM     19  C   UNL     1       2.211   8.486  18.108  0.00  0.00    +0.000 C 
ATOM     20  O   UNL     1       1.875   7.098  18.030  0.00  0.00    +0.000 OA
ENDBRANCH  17  20
ENDBRANCH   1  17
TORSDOF 3
ENDMDL
MODEL 8
REMARK VINA RESULT:      -6.8      3.225      4.739
REMARK  Name = 
REMARK  4 active torsions:
REMARK  status: ('A' for Active; 'I' for Inactive)
REMARK    1  A    between atoms: C_1  and  O_2
REMARK    2  A    between atoms: O_2  and  C_3
REMARK    3  A    between atoms: C_3  and  C_5
REMARK    4  A    between atoms: C_6  and  C_7
REMARK                            x       y       z     vdW  Elec       q    Type
REMARK                         _______ _______ _______ _____ _____    ______ ____
ROOT
ATOM      1  C   UNL     1       3.303   3.285  19.619  0.00  0.00    +0.000 C 
ATOM      2  C   UNL     1       3.457   4.428  18.910  0.00  0.00    +0.000 C 
ATOM      3  C   UNL     1       2.639   5.662  19.277  0.00  0.00    +0.000 C 
ATOM      4  C   UNL     1       1.821   5.498  20.584  0.00  0.00    +0.000 C 
ATOM      5  C   UNL     1       0.486   4.799  20.402  0.00  0.00    +0.000 C 
ATOM      6  C   UNL     1       0.872   3.333  20.273  0.00  0.00    +0.000 C 
ATOM      7  C   UNL     1       2.324   3.293  20.769  0.00  0.00    +0.000 C 
ATOM      8  O   UNL     1       2.509   4.569  21.442  0.00  0.00    +0.000 OA
ENDROOT
BRANCH   2   9
ATOM      9  C   UNL     1       4.480   4.616  17.869  0.00  0.00    +0.000 A 
ATOM     10  C   UNL     1       4.360   3.905  16.667  0.00  0.00    +0.000 A 
ATOM     11  C   UNL     1       5.266   4.122  15.628  0.00  0.00    +0.000 A 
ATOM     12  C   UNL     1       6.298   5.050  15.781  0.00  0.00    +0.000 A 
ATOM     13 CL   UNL     1       7.370   5.287  14.446  0.00  0.00    +0.000 Cl
ATOM     14  C   UNL     1       6.430   5.752  16.985  0.00  0.00    +0.000 A 
ATOM     15 CL   UNL     1       7.685   6.910  17.248  0.00  0.00    +0.000 Cl
ATOM     16  C   UNL     1       5.523   5.531  18.032  0.00  0.00    +0.000 A 
ENDBRANCH   2   9
BRANCH   1  17
ATOM     17  C   UNL     1       4.112   2.055  19.409  0.00  0.00    +0.000 C 
ATOM     18  O   UNL     1       3.838   1.148  18.641  0.00  0.00    +0.000 OA
BRANCH  17  20
ATOM     19  C   UNL     1       5.258   1.049  21.179  0.00  0.00    +0.000 C 
ATOM     20  O   UNL     1       5.215   2.093  20.203  0.00  0.00    +0.000 OA
ENDBRANCH  17  20
ENDBRANCH   1  17
TORSDOF 3
ENDMDL
MODEL 9
REMARK VINA RESULT:      -6.8      3.134      4.441
REMARK  Name = 
REMARK  4 active torsions:
REMARK  status: ('A' for Active; 'I' for Inactive)
REMARK    1  A    between atoms: C_1  and  O_2
REMARK    2  A    between atoms: O_2  and  C_3
REMARK    3  A    between atoms: C_3  and  C_5
REMARK    4  A    between atoms: C_6  and  C_7
REMARK                            x       y       z     vdW  Elec       q    Type
REMARK                         _______ _______ _______ _____ _____    ______ ____
ROOT
ATOM      1  C   UNL     1       2.325   4.993  18.954  0.00  0.00    +0.000 C 
ATOM      2  C   UNL     1       3.459   4.468  18.432  0.00  0.00    +0.000 C 
ATOM      3  C   UNL     1       3.474   3.018  17.960  0.00  0.00    +0.000 C 
ATOM      4  C   UNL     1       2.078   2.344  17.979  0.00  0.00    +0.000 C 
ATOM      5  C   UNL     1       1.670   1.789  19.331  0.00  0.00    +0.000 C 
ATOM      6  C   UNL     1       1.257   3.028  20.110  0.00  0.00    +0.000 C 
ATOM      7  C   UNL     1       1.106   4.106  19.028  0.00  0.00    +0.000 C 
ATOM      8  O   UNL     1       1.077   3.360  17.780  0.00  0.00    +0.000 OA
ENDROOT
BRANCH   2   9
ATOM      9  C   UNL     1       4.673   5.252  18.154  0.00  0.00    +0.000 A 
ATOM     10  C   UNL     1       4.660   6.164  17.089  0.00  0.00    +0.000 A 
ATOM     11  C   UNL     1       5.765   6.982  16.850  0.00  0.00    +0.000 A 
ATOM     12  C   UNL     1       6.891   6.896  17.671  0.00  0.00    +0.000 A 
ATOM     13 CL   UNL     1       8.214   7.954  17.334  0.00  0.00    +0.000 Cl
ATOM     14  C   UNL     1       6.914   5.976  18.727  0.00  0.00    +0.000 A 
ATOM     15 CL   UNL     1       8.274   5.809  19.779  0.00  0.00    +0.000 Cl
ATOM     16  C   UNL     1       5.806   5.150  18.965  0.00  0.00    +0.000 A 
ENDBRANCH   2   9
BRANCH   1  17
ATOM     17  C   UNL     1       2.171   6.416  19.358  0.00  0.00    +0.000 C 
ATOM     18  O   UNL     1       2.310   7.381  18.626  0.00  0.00    +0.000 OA
BRANCH  17  20
ATOM     19  C   UNL     1       1.337   7.756  21.081  0.00  0.00    +0.000 C 
ATOM     20  O   UNL     1       1.844   6.482  20.676  0.00  0.00    +0.000 OA
ENDBRANCH  17  20
ENDBRANCH   1  17
TORSDOF 3
ENDMDL
