MODEL 1
REMARK VINA RESULT:      -8.2      0.000      0.000
REMARK  Name = 
REMARK  6 active torsions:
REMARK  status: ('A' for Active; 'I' for Inactive)
REMARK    1  A    between atoms: C_5  and  C_6
REMARK    2  A    between atoms: C_6  and  N_7
REMARK    3  A    between atoms: C_6  and  C_15
REMARK    4  A    between atoms: N_7  and  C_8
REMARK    5  A    between atoms: C_8  and  C_9
REMARK    6  A    between atoms: C_18  and  C_19
REMARK                            x       y       z     vdW  Elec       q    Type
REMARK                         _______ _______ _______ _____ _____    ______ ____
ROOT
ATOM      1  C   UNL     1       2.343   6.168  19.334  0.00  0.00    +0.000 C 
ENDROOT
BRANCH   1   6
ATOM      2 CL   UNL     1       7.650   4.460  16.880  0.00  0.00    +0.000 Cl
ATOM      3  C   UNL     1       6.165   5.008  17.553  0.00  0.00    +0.000 A 
ATOM      4  C   UNL     1       5.007   5.000  16.784  0.00  0.00    +0.000 A 
ATOM      5  C   UNL     1       3.790   5.400  17.349  0.00  0.00    +0.000 A 
ATOM      6  C   UNL     1       3.703   5.796  18.697  0.00  0.00    +0.000 A 
ATOM      7  C   UNL     1       4.911   5.879  19.422  0.00  0.00    +0.000 A 
ATOM      8  C   UNL     1       6.124   5.458  18.867  0.00  0.00    +0.000 A 
ENDBRANCH   1   6
BRANCH   1   9
ATOM      9  C   UNL     1       1.993   7.664  19.256  0.00  0.00    +0.000 A 
ATOM     10  C   UNL     1       2.134   8.351  18.037  0.00  0.00    +0.000 A 
ATOM     11  C   UNL     1       1.677   9.665  17.898  0.00  0.00    +0.000 A 
ATOM     12  C   UNL     1       1.121  10.346  18.988  0.00  0.00    +0.000 A 
ATOM     13  C   UNL     1       1.027   9.684  20.218  0.00  0.00    +0.000 A 
ATOM     14  C   UNL     1       1.419   8.348  20.340  0.00  0.00    +0.000 A 
BRANCH  12  15
ATOM     15  C   UNL     1       0.612  11.691  18.826  0.00  0.00    +0.000 A 
ATOM     16  C   UNL     1       1.270  12.940  18.913  0.00  0.00    +0.000 A 
ATOM     17  N   UNL     1       0.452  13.969  18.678  0.00  0.00    +0.000 NA
ATOM     18  N   UNL     1      -0.732  13.383  18.440  0.00  0.00    +0.000 N 
ATOM     19  C   UNL     1      -0.689  12.020  18.514  0.00  0.00    +0.000 A 
ATOM     20  H   UNL     1      -1.528  13.974  18.229  0.00  0.00    +0.000 HD
ENDBRANCH  12  15
ENDBRANCH   1   9
BRANCH   1  21
ATOM     21  N   UNL     1       2.267   5.696  20.742  0.00  0.00    +0.000 NA
ATOM     22  H   UNL     1       1.714   6.369  21.272  0.00  0.00    +0.000 HD
BRANCH  21  23
ATOM     23  C   UNL     1       1.644   4.375  20.874  0.00  0.00    +0.000 C 
BRANCH  23  24
ATOM     24  C   UNL     1       2.296   3.288  20.048  0.00  0.00    +0.000 A 
ATOM     25  C   UNL     1       1.666   2.867  18.865  0.00  0.00    +0.000 A 
ATOM     26  C   UNL     1       2.264   1.924  18.032  0.00  0.00    +0.000 A 
ATOM     27  C   UNL     1       3.503   1.389  18.365  0.00  0.00    +0.000 A 
ATOM     28  C   UNL     1       4.146   1.803  19.531  0.00  0.00    +0.000 A 
ATOM     29  C   UNL     1       3.548   2.754  20.365  0.00  0.00    +0.000 A 
ENDBRANCH  23  24
ENDBRANCH  21  23
ENDBRANCH   1  21
TORSDOF 6
ENDMDL
MODEL 2
REMARK VINA RESULT:      -8.2      1.840      3.150
REMARK  Name = 
REMARK  6 active torsions:
REMARK  status: ('A' for Active; 'I' for Inactive)
REMARK    1  A    between atoms: C_5  and  C_6
REMARK    2  A    between atoms: C_6  and  N_7
REMARK    3  A    between atoms: C_6  and  C_15
REMARK    4  A    between atoms: N_7  and  C_8
REMARK    5  A    between atoms: C_8  and  C_9
REMARK    6  A    between atoms: C_18  and  C_19
REMARK                            x       y       z     vdW  Elec       q    Type
REMARK                         _______ _______ _______ _____ _____    ______ ____
ROOT
ATOM      1  C   UNL     1       4.471   4.424  17.971  0.00  0.00    +0.000 C 
ENDROOT
BRANCH   1   6
ATOM      2 CL   UNL     1       7.921   5.145  13.004  0.00  0.00    +0.000 Cl
ATOM      3  C   UNL     1       6.969   4.875  14.411  0.00  0.00    +0.000 A 
ATOM      4  C   UNL     1       7.490   5.160  15.668  0.00  0.00    +0.000 A 
ATOM      5  C   UNL     1       6.697   4.987  16.809  0.00  0.00    +0.000 A 
ATOM      6  C   UNL     1       5.364   4.545  16.713  0.00  0.00    +0.000 A 
ATOM      7  C   UNL     1       4.897   4.178  15.434  0.00  0.00    +0.000 A 
ATOM      8  C   UNL     1       5.679   4.373  14.290  0.00  0.00    +0.000 A 
ENDBRANCH   1   6
BRANCH   1   9
ATOM      9  C   UNL     1       3.741   5.720  18.362  0.00  0.00    +0.000 A 
ATOM     10  C   UNL     1       3.733   6.811  17.472  0.00  0.00    +0.000 A 
ATOM     11  C   UNL     1       2.950   7.940  17.731  0.00  0.00    +0.000 A 
ATOM     12  C   UNL     1       2.202   8.034  18.911  0.00  0.00    +0.000 A 
ATOM     13  C   UNL     1       2.248   6.974  19.824  0.00  0.00    +0.000 A 
ATOM     14  C   UNL     1       2.975   5.816  19.534  0.00  0.00    +0.000 A 
BRANCH  12  15
ATOM     15  C   UNL     1       1.362   9.187  19.152  0.00  0.00    +0.000 A 
ATOM     16  C   UNL     1       0.703  10.050  18.246  0.00  0.00    +0.000 A 
ATOM     17  N   UNL     1      -0.004  11.001  18.862  0.00  0.00    +0.000 NA
ATOM     18  N   UNL     1       0.199  10.750  20.165  0.00  0.00    +0.000 N 
ATOM     19  C   UNL     1       1.008   9.673  20.392  0.00  0.00    +0.000 A 
ATOM     20  H   UNL     1      -0.249  11.351  20.846  0.00  0.00    +0.000 HD
ENDBRANCH  12  15
ENDBRANCH   1   9
BRANCH   1  21
ATOM     21  N   UNL     1       5.248   3.905  19.129  0.00  0.00    +0.000 NA
ATOM     22  H   UNL     1       5.190   4.589  19.881  0.00  0.00    +0.000 HD
BRANCH  21  23
ATOM     23  C   UNL     1       4.749   2.620  19.629  0.00  0.00    +0.000 C 
BRANCH  23  24
ATOM     24  C   UNL     1       3.244   2.541  19.766  0.00  0.00    +0.000 A 
ATOM     25  C   UNL     1       2.661   2.852  21.006  0.00  0.00    +0.000 A 
ATOM     26  C   UNL     1       1.276   2.868  21.161  0.00  0.00    +0.000 A 
ATOM     27  C   UNL     1       0.451   2.578  20.080  0.00  0.00    +0.000 A 
ATOM     28  C   UNL     1       1.015   2.276  18.840  0.00  0.00    +0.000 A 
ATOM     29  C   UNL     1       2.405   2.265  18.683  0.00  0.00    +0.000 A 
ENDBRANCH  23  24
ENDBRANCH  21  23
ENDBRANCH   1  21
TORSDOF 6
ENDMDL
MODEL 3
REMARK VINA RESULT:      -7.9      0.232      1.179
REMARK  Name = 
REMARK  6 active torsions:
REMARK  status: ('A' for Active; 'I' for Inactive)
REMARK    1  A    between atoms: C_5  and  C_6
REMARK    2  A    between atoms: C_6  and  N_7
REMARK    3  A    between atoms: C_6  and  C_15
REMARK    4  A    between atoms: N_7  and  C_8
REMARK    5  A    between atoms: C_8  and  C_9
REMARK    6  A    between atoms: C_18  and  C_19
REMARK                            x       y       z     vdW  Elec       q    Type
REMARK                         _______ _______ _______ _____ _____    ______ ____
ROOT
ATOM      1  C   UNL     1       2.283   6.171  19.290  0.00  0.00    +0.000 C 
ENDROOT
BRANCH   1   6
ATOM      2 CL   UNL     1       7.598   4.658  16.728  0.00  0.00    +0.000 Cl
ATOM      3  C   UNL     1       6.090   5.018  17.472  0.00  0.00    +0.000 A 
ATOM      4  C   UNL     1       6.049   5.438  18.796  0.00  0.00    +0.000 A 
ATOM      5  C   UNL     1       4.825   5.779  19.385  0.00  0.00    +0.000 A 
ATOM      6  C   UNL     1       3.622   5.725  18.655  0.00  0.00    +0.000 A 
ATOM      7  C   UNL     1       3.687   5.209  17.344  0.00  0.00    +0.000 A 
ATOM      8  C   UNL     1       4.911   4.891  16.746  0.00  0.00    +0.000 A 
ENDBRANCH   1   6
BRANCH   1   9
ATOM      9  C   UNL     1       2.021   7.685  19.227  0.00  0.00    +0.000 A 
ATOM     10  C   UNL     1       2.308   8.394  18.045  0.00  0.00    +0.000 A 
ATOM     11  C   UNL     1       1.935   9.734  17.906  0.00  0.00    +0.000 A 
ATOM     12  C   UNL     1       1.322  10.418  18.964  0.00  0.00    +0.000 A 
ATOM     13  C   UNL     1       1.083   9.731  20.160  0.00  0.00    +0.000 A 
ATOM     14  C   UNL     1       1.391   8.373  20.276  0.00  0.00    +0.000 A 
BRANCH  12  15
ATOM     15  C   UNL     1       0.902  11.792  18.798  0.00  0.00    +0.000 A 
ATOM     16  C   UNL     1      -0.390  12.347  18.649  0.00  0.00    +0.000 A 
ATOM     17  N   UNL     1      -0.370  13.678  18.540  0.00  0.00    +0.000 NA
ATOM     18  N   UNL     1       0.936  13.980  18.620  0.00  0.00    +0.000 N 
ATOM     19  C   UNL     1       1.739  12.887  18.778  0.00  0.00    +0.000 A 
ATOM     20  H   UNL     1       1.208  14.955  18.565  0.00  0.00    +0.000 HD
ENDBRANCH  12  15
ENDBRANCH   1   9
BRANCH   1  21
ATOM     21  N   UNL     1       2.172   5.689  20.693  0.00  0.00    +0.000 NA
ATOM     22  H   UNL     1       1.618   6.365  21.216  0.00  0.00    +0.000 HD
BRANCH  21  23
ATOM     23  C   UNL     1       1.529   4.376  20.802  0.00  0.00    +0.000 C 
BRANCH  23  24
ATOM     24  C   UNL     1       2.217   3.274  20.027  0.00  0.00    +0.000 A 
ATOM     25  C   UNL     1       1.601   2.779  18.864  0.00  0.00    +0.000 A 
ATOM     26  C   UNL     1       2.230   1.818  18.075  0.00  0.00    +0.000 A 
ATOM     27  C   UNL     1       3.486   1.339  18.431  0.00  0.00    +0.000 A 
ATOM     28  C   UNL     1       4.114   1.827  19.577  0.00  0.00    +0.000 A 
ATOM     29  C   UNL     1       3.485   2.795  20.366  0.00  0.00    +0.000 A 
ENDBRANCH  23  24
ENDBRANCH  21  23
ENDBRANCH   1  21
TORSDOF 6
ENDMDL
MODEL 4
REMARK VINA RESULT:      -7.9      1.811      2.979
REMARK  Name = 
REMARK  6 active torsions:
REMARK  status: ('A' for Active; 'I' for Inactive)
REMARK    1  A    between atoms: C_5  and  C_6
REMARK    2  A    between atoms: C_6  and  N_7
REMARK    3  A    between atoms: C_6  and  C_15
REMARK    4  A    between atoms: N_7  and  C_8
REMARK    5  A    between atoms: C_8  and  C_9
REMARK    6  A    between atoms: C_18  and  C_19
REMARK                            x       y       z     vdW  Elec       q    Type
REMARK                         _______ _______ _______ _____ _____    ______ ____
ROOT
ATOM      1  C   UNL     1       4.482   4.589  17.951  0.00  0.00    +0.000 C 
ENDROOT
BRANCH   1   6
ATOM      2 CL   UNL     1       7.950   5.098  12.970  0.00  0.00    +0.000 Cl
ATOM      3  C   UNL     1       6.997   4.890  14.386  0.00  0.00    +0.000 A 
ATOM      4  C   UNL     1       7.488   5.295  15.622  0.00  0.00    +0.000 A 
ATOM      5  C   UNL     1       6.691   5.170  16.767  0.00  0.00    +0.000 A 
ATOM      6  C   UNL     1       5.382   4.658  16.694  0.00  0.00    +0.000 A 
ATOM      7  C   UNL     1       4.948   4.173  15.442  0.00  0.00    +0.000 A 
ATOM      8  C   UNL     1       5.734   4.319  14.294  0.00  0.00    +0.000 A 
ENDBRANCH   1   6
BRANCH   1   9
ATOM      9  C   UNL     1       3.760   5.904  18.289  0.00  0.00    +0.000 A 
ATOM     10  C   UNL     1       3.787   6.971  17.372  0.00  0.00    +0.000 A 
ATOM     11  C   UNL     1       3.012   8.116  17.582  0.00  0.00    +0.000 A 
ATOM     12  C   UNL     1       2.239   8.250  18.742  0.00  0.00    +0.000 A 
ATOM     13  C   UNL     1       2.250   7.214  19.683  0.00  0.00    +0.000 A 
ATOM     14  C   UNL     1       2.968   6.040  19.440  0.00  0.00    +0.000 A 
BRANCH  12  15
ATOM     15  C   UNL     1       1.407   9.420  18.933  0.00  0.00    +0.000 A 
ATOM     16  C   UNL     1       0.453   9.716  19.933  0.00  0.00    +0.000 A 
ATOM     17  N   UNL     1      -0.100  10.921  19.777  0.00  0.00    +0.000 NA
ATOM     18  N   UNL     1       0.499  11.402  18.675  0.00  0.00    +0.000 N 
ATOM     19  C   UNL     1       1.412  10.542  18.133  0.00  0.00    +0.000 A 
ATOM     20  H   UNL     1       0.241  12.326  18.351  0.00  0.00    +0.000 HD
ENDBRANCH  12  15
ENDBRANCH   1   9
BRANCH   1  21
ATOM     21  N   UNL     1       5.249   4.107  19.130  0.00  0.00    +0.000 NA
ATOM     22  H   UNL     1       5.185   4.815  19.860  0.00  0.00    +0.000 HD
BRANCH  21  23
ATOM     23  C   UNL     1       4.743   2.839  19.667  0.00  0.00    +0.000 C 
BRANCH  23  24
ATOM     24  C   UNL     1       3.240   2.779  19.825  0.00  0.00    +0.000 A 
ATOM     25  C   UNL     1       2.459   2.385  18.725  0.00  0.00    +0.000 A 
ATOM     26  C   UNL     1       1.078   2.241  18.842  0.00  0.00    +0.000 A 
ATOM     27  C   UNL     1       0.455   2.485  20.061  0.00  0.00    +0.000 A 
ATOM     28  C   UNL     1       1.217   2.868  21.164  0.00  0.00    +0.000 A 
ATOM     29  C   UNL     1       2.603   3.008  21.048  0.00  0.00    +0.000 A 
ENDBRANCH  23  24
ENDBRANCH  21  23
ENDBRANCH   1  21
TORSDOF 6
ENDMDL
MODEL 5
REMARK VINA RESULT:      -7.9      1.837      2.990
REMARK  Name = 
REMARK  6 active torsions:
REMARK  status: ('A' for Active; 'I' for Inactive)
REMARK    1  A    between atoms: C_5  and  C_6
REMARK    2  A    between atoms: C_6  and  N_7
REMARK    3  A    between atoms: C_6  and  C_15
REMARK    4  A    between atoms: N_7  and  C_8
REMARK    5  A    between atoms: C_8  and  C_9
REMARK    6  A    between atoms: C_18  and  C_19
REMARK                            x       y       z     vdW  Elec       q    Type
REMARK                         _______ _______ _______ _____ _____    ______ ____
ROOT
ATOM      1  C   UNL     1       4.428   4.519  17.940  0.00  0.00    +0.000 C 
ENDROOT
BRANCH   1   6
ATOM      2 CL   UNL     1       7.938   4.944  12.980  0.00  0.00    +0.000 Cl
ATOM      3  C   UNL     1       6.926   4.890  14.370  0.00  0.00    +0.000 A 
ATOM      4  C   UNL     1       5.618   4.433  14.261  0.00  0.00    +0.000 A 
ATOM      5  C   UNL     1       4.810   4.343  15.401  0.00  0.00    +0.000 A 
ATOM      6  C   UNL     1       5.302   4.689  16.675  0.00  0.00    +0.000 A 
ATOM      7  C   UNL     1       6.602   5.234  16.737  0.00  0.00    +0.000 A 
ATOM      8  C   UNL     1       7.418   5.302  15.602  0.00  0.00    +0.000 A 
ENDBRANCH   1   6
BRANCH   1   9
ATOM      9  C   UNL     1       3.692   5.796  18.381  0.00  0.00    +0.000 A 
ATOM     10  C   UNL     1       3.634   6.902  17.513  0.00  0.00    +0.000 A 
ATOM     11  C   UNL     1       2.842   8.013  17.820  0.00  0.00    +0.000 A 
ATOM     12  C   UNL     1       2.136   8.073  19.028  0.00  0.00    +0.000 A 
ATOM     13  C   UNL     1       2.232   6.997  19.918  0.00  0.00    +0.000 A 
ATOM     14  C   UNL     1       2.967   5.857  19.581  0.00  0.00    +0.000 A 
BRANCH  12  15
ATOM     15  C   UNL     1       1.285   9.207  19.320  0.00  0.00    +0.000 A 
ATOM     16  C   UNL     1       0.817   9.711  20.556  0.00  0.00    +0.000 A 
ATOM     17  N   UNL     1       0.059  10.801  20.413  0.00  0.00    +0.000 NA
ATOM     18  N   UNL     1       0.040  10.999  19.085  0.00  0.00    +0.000 N 
ATOM     19  C   UNL     1       0.761  10.074  18.386  0.00  0.00    +0.000 A 
ATOM     20  H   UNL     1      -0.482  11.790  18.724  0.00  0.00    +0.000 HD
ENDBRANCH  12  15
ENDBRANCH   1   9
BRANCH   1  21
ATOM     21  N   UNL     1       5.227   3.973  19.070  0.00  0.00    +0.000 NA
ATOM     22  H   UNL     1       5.175   4.635  19.843  0.00  0.00    +0.000 HD
BRANCH  21  23
ATOM     23  C   UNL     1       4.745   2.670  19.540  0.00  0.00    +0.000 C 
BRANCH  23  24
ATOM     24  C   UNL     1       3.244   2.583  19.716  0.00  0.00    +0.000 A 
ATOM     25  C   UNL     1       2.693   2.874  20.975  0.00  0.00    +0.000 A 
ATOM     26  C   UNL     1       1.313   2.881  21.168  0.00  0.00    +0.000 A 
ATOM     27  C   UNL     1       0.461   2.601  20.105  0.00  0.00    +0.000 A 
ATOM     28  C   UNL     1       0.993   2.319  18.847  0.00  0.00    +0.000 A 
ATOM     29  C   UNL     1       2.377   2.317  18.652  0.00  0.00    +0.000 A 
ENDBRANCH  23  24
ENDBRANCH  21  23
ENDBRANCH   1  21
TORSDOF 6
ENDMDL
MODEL 6
REMARK VINA RESULT:      -7.9      0.991      1.100
REMARK  Name = 
REMARK  6 active torsions:
REMARK  status: ('A' for Active; 'I' for Inactive)
REMARK    1  A    between atoms: C_5  and  C_6
REMARK    2  A    between atoms: C_6  and  N_7
REMARK    3  A    between atoms: C_6  and  C_15
REMARK    4  A    between atoms: N_7  and  C_8
REMARK    5  A    between atoms: C_8  and  C_9
REMARK    6  A    between atoms: C_18  and  C_19
REMARK                            x       y       z     vdW  Elec       q    Type
REMARK                         _______ _______ _______ _____ _____    ______ ____
ROOT
ATOM      1  C   UNL     1       2.669   6.286  19.008  0.00  0.00    +0.000 C 
ENDROOT
BRANCH   1   6
ATOM      2 CL   UNL     1       7.050   5.019  14.970  0.00  0.00    +0.000 Cl
ATOM      3  C   UNL     1       5.777   5.408  16.059  0.00  0.00    +0.000 A 
ATOM      4  C   UNL     1       4.738   4.507  16.266  0.00  0.00    +0.000 A 
ATOM      5  C   UNL     1       3.728   4.804  17.189  0.00  0.00    +0.000 A 
ATOM      6  C   UNL     1       3.749   5.996  17.938  0.00  0.00    +0.000 A 
ATOM      7  C   UNL     1       4.766   6.927  17.639  0.00  0.00    +0.000 A 
ATOM      8  C   UNL     1       5.789   6.622  16.734  0.00  0.00    +0.000 A 
ENDBRANCH   1   6
BRANCH   1   9
ATOM      9  C   UNL     1       2.135   7.728  18.999  0.00  0.00    +0.000 A 
ATOM     10  C   UNL     1       2.070   8.441  17.788  0.00  0.00    +0.000 A 
ATOM     11  C   UNL     1       1.446   9.690  17.725  0.00  0.00    +0.000 A 
ATOM     12  C   UNL     1       0.926  10.287  18.880  0.00  0.00    +0.000 A 
ATOM     13  C   UNL     1       1.037   9.605  20.098  0.00  0.00    +0.000 A 
ATOM     14  C   UNL     1       1.597   8.326  20.149  0.00  0.00    +0.000 A 
BRANCH  12  15
ATOM     15  C   UNL     1       0.246  11.562  18.800  0.00  0.00    +0.000 A 
ATOM     16  C   UNL     1       0.716  12.873  19.045  0.00  0.00    +0.000 A 
ATOM     17  N   UNL     1      -0.221  13.802  18.843  0.00  0.00    +0.000 NA
ATOM     18  N   UNL     1      -1.295  13.090  18.466  0.00  0.00    +0.000 N 
ATOM     19  C   UNL     1      -1.067  11.744  18.423  0.00  0.00    +0.000 A 
ATOM     20  H   UNL     1      -2.150  13.588  18.249  0.00  0.00    +0.000 HD
ENDBRANCH  12  15
ENDBRANCH   1   9
BRANCH   1  21
ATOM     21  N   UNL     1       3.155   5.927  20.367  0.00  0.00    +0.000 NA
ATOM     22  H   UNL     1       3.129   6.766  20.944  0.00  0.00    +0.000 HD
BRANCH  21  23
ATOM     23  C   UNL     1       2.343   4.892  21.015  0.00  0.00    +0.000 C 
BRANCH  23  24
ATOM     24  C   UNL     1       2.153   3.637  20.192  0.00  0.00    +0.000 A 
ATOM     25  C   UNL     1       0.887   3.375  19.639  0.00  0.00    +0.000 A 
ATOM     26  C   UNL     1       0.682   2.273  18.812  0.00  0.00    +0.000 A 
ATOM     27  C   UNL     1       1.737   1.416  18.520  0.00  0.00    +0.000 A 
ATOM     28  C   UNL     1       3.001   1.667  19.054  0.00  0.00    +0.000 A 
ATOM     29  C   UNL     1       3.209   2.776  19.880  0.00  0.00    +0.000 A 
ENDBRANCH  23  24
ENDBRANCH  21  23
ENDBRANCH   1  21
TORSDOF 6
ENDMDL
MODEL 7
REMARK VINA RESULT:      -7.9      2.504      4.047
REMARK  Name = 
REMARK  6 active torsions:
REMARK  status: ('A' for Active; 'I' for Inactive)
REMARK    1  A    between atoms: C_5  and  C_6
REMARK    2  A    between atoms: C_6  and  N_7
REMARK    3  A    between atoms: C_6  and  C_15
REMARK    4  A    between atoms: N_7  and  C_8
REMARK    5  A    between atoms: C_8  and  C_9
REMARK    6  A    between atoms: C_18  and  C_19
REMARK                            x       y       z     vdW  Elec       q    Type
REMARK                         _______ _______ _______ _____ _____    ______ ____
ROOT
ATOM      1  C   UNL     1       2.907   7.355  18.824  0.00  0.00    +0.000 C 
ENDROOT
BRANCH   1   6
ATOM      2 CL   UNL     1       0.510   1.761  19.068  0.00  0.00    +0.000 Cl
ATOM      3  C   UNL     1       1.249   3.313  19.014  0.00  0.00    +0.000 A 
ATOM      4  C   UNL     1       1.740   3.809  17.812  0.00  0.00    +0.000 A 
ATOM      5  C   UNL     1       2.297   5.093  17.760  0.00  0.00    +0.000 A 
ATOM      6  C   UNL     1       2.355   5.912  18.904  0.00  0.00    +0.000 A 
ATOM      7  C   UNL     1       1.932   5.345  20.124  0.00  0.00    +0.000 A 
ATOM      8  C   UNL     1       1.354   4.072  20.174  0.00  0.00    +0.000 A 
ENDBRANCH   1   6
BRANCH   1   9
ATOM      9  C   UNL     1       1.848   8.453  19.022  0.00  0.00    +0.000 A 
ATOM     10  C   UNL     1       1.353   9.154  17.906  0.00  0.00    +0.000 A 
ATOM     11  C   UNL     1       0.281  10.043  18.037  0.00  0.00    +0.000 A 
ATOM     12  C   UNL     1      -0.283  10.301  19.293  0.00  0.00    +0.000 A 
ATOM     13  C   UNL     1       0.241   9.646  20.413  0.00  0.00    +0.000 A 
ATOM     14  C   UNL     1       1.265   8.704  20.274  0.00  0.00    +0.000 A 
BRANCH  12  15
ATOM     15  C   UNL     1      -1.418  11.190  19.414  0.00  0.00    +0.000 A 
ATOM     16  C   UNL     1      -1.792  12.067  20.459  0.00  0.00    +0.000 A 
ATOM     17  N   UNL     1      -2.910  12.744  20.187  0.00  0.00    +0.000 NA
ATOM     18  N   UNL     1      -3.256  12.303  18.967  0.00  0.00    +0.000 N 
ATOM     19  C   UNL     1      -2.394  11.374  18.459  0.00  0.00    +0.000 A 
ATOM     20  H   UNL     1      -4.091  12.684  18.537  0.00  0.00    +0.000 HD
ENDBRANCH  12  15
ENDBRANCH   1   9
BRANCH   1  21
ATOM     21  N   UNL     1       3.641   7.576  17.550  0.00  0.00    +0.000 NA
ATOM     22  H   UNL     1       3.450   8.526  17.235  0.00  0.00    +0.000 HD
BRANCH  21  23
ATOM     23  C   UNL     1       5.092   7.413  17.685  0.00  0.00    +0.000 C 
BRANCH  23  24
ATOM     24  C   UNL     1       5.685   6.321  16.823  0.00  0.00    +0.000 A 
ATOM     25  C   UNL     1       6.706   5.516  17.358  0.00  0.00    +0.000 A 
ATOM     26  C   UNL     1       7.230   4.449  16.630  0.00  0.00    +0.000 A 
ATOM     27  C   UNL     1       6.742   4.166  15.360  0.00  0.00    +0.000 A 
ATOM     28  C   UNL     1       5.723   4.951  14.819  0.00  0.00    +0.000 A 
ATOM     29  C   UNL     1       5.193   6.018  15.550  0.00  0.00    +0.000 A 
ENDBRANCH  23  24
ENDBRANCH  21  23
ENDBRANCH   1  21
TORSDOF 6
ENDMDL
MODEL 8
REMARK VINA RESULT:      -7.8      0.195      1.174
REMARK  Name = 
REMARK  6 active torsions:
REMARK  status: ('A' for Active; 'I' for Inactive)
REMARK    1  A    between atoms: C_5  and  C_6
REMARK    2  A    between atoms: C_6  and  N_7
REMARK    3  A    between atoms: C_6  and  C_15
REMARK    4  A    between atoms: N_7  and  C_8
REMARK    5  A    between atoms: C_8  and  C_9
REMARK    6  A    between atoms: C_18  and  C_19
REMARK                            x       y       z     vdW  Elec       q    Type
REMARK                         _______ _______ _______ _____ _____    ______ ____
ROOT
ATOM      1  C   UNL     1       2.335   6.248  19.284  0.00  0.00    +0.000 C 
ENDROOT
BRANCH   1   6
ATOM      2 CL   UNL     1       7.653   4.415  16.945  0.00  0.00    +0.000 Cl
ATOM      3  C   UNL     1       6.167   4.998  17.587  0.00  0.00    +0.000 A 
ATOM      4  C   UNL     1       5.029   5.029  16.790  0.00  0.00    +0.000 A 
ATOM      5  C   UNL     1       3.809   5.458  17.327  0.00  0.00    +0.000 A 
ATOM      6  C   UNL     1       3.700   5.843  18.677  0.00  0.00    +0.000 A 
ATOM      7  C   UNL     1       4.891   5.887  19.433  0.00  0.00    +0.000 A 
ATOM      8  C   UNL     1       6.105   5.437  18.904  0.00  0.00    +0.000 A 
ENDBRANCH   1   6
BRANCH   1   9
ATOM      9  C   UNL     1       2.036   7.755  19.229  0.00  0.00    +0.000 A 
ATOM     10  C   UNL     1       2.321   8.481  18.057  0.00  0.00    +0.000 A 
ATOM     11  C   UNL     1       1.917   9.813  17.923  0.00  0.00    +0.000 A 
ATOM     12  C   UNL     1       1.272  10.472  18.978  0.00  0.00    +0.000 A 
ATOM     13  C   UNL     1       1.033   9.769  20.165  0.00  0.00    +0.000 A 
ATOM     14  C   UNL     1       1.374   8.418  20.274  0.00  0.00    +0.000 A 
BRANCH  12  15
ATOM     15  C   UNL     1       0.819  11.837  18.817  0.00  0.00    +0.000 A 
ATOM     16  C   UNL     1      -0.485  12.360  18.661  0.00  0.00    +0.000 A 
ATOM     17  N   UNL     1      -0.497  13.692  18.560  0.00  0.00    +0.000 NA
ATOM     18  N   UNL     1       0.801  14.026  18.653  0.00  0.00    +0.000 N 
ATOM     19  C   UNL     1       1.629  12.951  18.810  0.00  0.00    +0.000 A 
ATOM     20  H   UNL     1       1.049  15.007  18.606  0.00  0.00    +0.000 HD
ENDBRANCH  12  15
ENDBRANCH   1   9
BRANCH   1  21
ATOM     21  N   UNL     1       2.203   5.749  20.679  0.00  0.00    +0.000 NA
ATOM     22  H   UNL     1       1.604   6.396  21.190  0.00  0.00    +0.000 HD
BRANCH  21  23
ATOM     23  C   UNL     1       1.615   4.408  20.758  0.00  0.00    +0.000 C 
BRANCH  23  24
ATOM     24  C   UNL     1       2.275   3.380  19.867  0.00  0.00    +0.000 A 
ATOM     25  C   UNL     1       3.505   2.827  20.266  0.00  0.00    +0.000 A 
ATOM     26  C   UNL     1       4.115   1.822  19.518  0.00  0.00    +0.000 A 
ATOM     27  C   UNL     1       3.505   1.350  18.362  0.00  0.00    +0.000 A 
ATOM     28  C   UNL     1       2.281   1.881  17.957  0.00  0.00    +0.000 A 
ATOM     29  C   UNL     1       1.666   2.886  18.710  0.00  0.00    +0.000 A 
ENDBRANCH  23  24
ENDBRANCH  21  23
ENDBRANCH   1  21
TORSDOF 6
ENDMDL
MODEL 9
REMARK VINA RESULT:      -7.8      2.436      3.915
REMARK  Name = 
REMARK  6 active torsions:
REMARK  status: ('A' for Active; 'I' for Inactive)
REMARK    1  A    between atoms: C_5  and  C_6
REMARK    2  A    between atoms: C_6  and  N_7
REMARK    3  A    between atoms: C_6  and  C_15
REMARK    4  A    between atoms: N_7  and  C_8
REMARK    5  A    between atoms: C_8  and  C_9
REMARK    6  A    between atoms: C_18  and  C_19
REMARK                            x       y       z     vdW  Elec       q    Type
REMARK                         _______ _______ _______ _____ _____    ______ ____
ROOT
ATOM      1  C   UNL     1       2.876   7.293  18.864  0.00  0.00    +0.000 C 
ENDROOT
BRANCH   1   6
ATOM      2 CL   UNL     1       0.835   1.567  19.243  0.00  0.00    +0.000 Cl
ATOM      3  C   UNL     1       1.345   3.206  19.139  0.00  0.00    +0.000 A 
ATOM      4  C   UNL     1       1.652   3.914  20.295  0.00  0.00    +0.000 A 
ATOM      5  C   UNL     1       2.114   5.233  20.206  0.00  0.00    +0.000 A 
ATOM      6  C   UNL     1       2.297   5.861  18.959  0.00  0.00    +0.000 A 
ATOM      7  C   UNL     1       1.891   5.147  17.812  0.00  0.00    +0.000 A 
ATOM      8  C   UNL     1       1.452   3.821  17.898  0.00  0.00    +0.000 A 
ENDBRANCH   1   6
BRANCH   1   9
ATOM      9  C   UNL     1       1.837   8.413  19.049  0.00  0.00    +0.000 A 
ATOM     10  C   UNL     1       1.338   9.094  17.924  0.00  0.00    +0.000 A 
ATOM     11  C   UNL     1       0.283  10.003  18.046  0.00  0.00    +0.000 A 
ATOM     12  C   UNL     1      -0.260  10.300  19.303  0.00  0.00    +0.000 A 
ATOM     13  C   UNL     1       0.268   9.663  20.432  0.00  0.00    +0.000 A 
ATOM     14  C   UNL     1       1.275   8.703  20.302  0.00  0.00    +0.000 A 
BRANCH  12  15
ATOM     15  C   UNL     1      -1.380  11.210  19.417  0.00  0.00    +0.000 A 
ATOM     16  C   UNL     1      -1.738  12.101  20.456  0.00  0.00    +0.000 A 
ATOM     17  N   UNL     1      -2.844  12.796  20.179  0.00  0.00    +0.000 NA
ATOM     18  N   UNL     1      -3.198  12.353  18.962  0.00  0.00    +0.000 N 
ATOM     19  C   UNL     1      -2.352  11.405  18.461  0.00  0.00    +0.000 A 
ATOM     20  H   UNL     1      -4.026  12.745  18.529  0.00  0.00    +0.000 HD
ENDBRANCH  12  15
ENDBRANCH   1   9
BRANCH   1  21
ATOM     21  N   UNL     1       3.615   7.487  17.588  0.00  0.00    +0.000 NA
ATOM     22  H   UNL     1       3.642   8.485  17.387  0.00  0.00    +0.000 HD
BRANCH  21  23
ATOM     23  C   UNL     1       4.992   6.984  17.638  0.00  0.00    +0.000 C 
BRANCH  23  24
ATOM     24  C   UNL     1       5.272   5.827  16.705  0.00  0.00    +0.000 A 
ATOM     25  C   UNL     1       5.414   6.086  15.330  0.00  0.00    +0.000 A 
ATOM     26  C   UNL     1       5.747   5.066  14.441  0.00  0.00    +0.000 A 
ATOM     27  C   UNL     1       5.948   3.773  14.909  0.00  0.00    +0.000 A 
ATOM     28  C   UNL     1       5.820   3.502  16.272  0.00  0.00    +0.000 A 
ATOM     29  C   UNL     1       5.490   4.526  17.165  0.00  0.00    +0.000 A 
ENDBRANCH  23  24
ENDBRANCH  21  23
ENDBRANCH   1  21
TORSDOF 6
ENDMDL
