MODEL 1
REMARK VINA RESULT:      -8.0      0.000      0.000
REMARK  Name = 
REMARK  6 active torsions:
REMARK  status: ('A' for Active; 'I' for Inactive)
REMARK    1  A    between atoms: C_1  and  C_2
REMARK    2  A    between atoms: C_5  and  C_6
REMARK    3  A    between atoms: C_6  and  C_7
REMARK    4  A    between atoms: C_7  and  C_8
REMARK    5  A    between atoms: C_8  and  C_9
REMARK    6  A    between atoms: C_15  and  C_16
REMARK                            x       y       z     vdW  Elec       q    Type
REMARK                         _______ _______ _______ _____ _____    ______ ____
ROOT
ATOM      1  C   UNL     1       4.930   6.011  18.701  0.00  0.00    +0.000 C 
ATOM      2  O   UNL     1       5.243   5.268  19.629  0.00  0.00    +0.000 OA
ATOM      3  N   UNL     1       3.658   6.531  18.574  0.00  0.00    +0.000 N 
ATOM      4  C   UNL     1       3.177   7.466  17.574  0.00  0.00    +0.000 C 
ATOM      5  C   UNL     1       2.252   8.381  18.353  0.00  0.00    +0.000 C 
ATOM      6  C   UNL     1       1.636   7.476  19.413  0.00  0.00    +0.000 C 
ATOM      7  C   UNL     1       2.676   6.360  19.644  0.00  0.00    +0.000 C 
ENDROOT
BRANCH   7   8
ATOM      8  C   UNL     1       2.033   4.988  19.671  0.00  0.00    +0.000 A 
ATOM      9  C   UNL     1       1.785   4.305  20.867  0.00  0.00    +0.000 A 
ATOM     10  C   UNL     1       1.263   3.020  20.814  0.00  0.00    +0.000 A 
ATOM     11  N   UNL     1       0.963   2.379  19.668  0.00  0.00    +0.000 NA
ATOM     12  C   UNL     1       1.184   3.061  18.526  0.00  0.00    +0.000 A 
ATOM     13  C   UNL     1       1.704   4.342  18.474  0.00  0.00    +0.000 A 
ENDBRANCH   7   8
BRANCH   1  14
ATOM     14  C   UNL     1       5.972   6.467  17.686  0.00  0.00    +0.000 C 
BRANCH  14  15
ATOM     15  C   UNL     1       7.365   5.896  17.958  0.00  0.00    +0.000 C 
BRANCH  15  16
ATOM     16  C   UNL     1       7.534   4.515  17.320  0.00  0.00    +0.000 C 
BRANCH  16  21
ATOM     17  C   UNL     1       5.465   3.642  12.926  0.00  0.00    +0.000 C 
ATOM     18  C   UNL     1       6.306   4.193  14.004  0.00  0.00    +0.000 A 
ATOM     19  N   UNL     1       7.217   5.151  13.789  0.00  0.00    +0.000 NA
ATOM     20  O   UNL     1       7.758   5.364  15.060  0.00  0.00    +0.000 OA
ATOM     21  C   UNL     1       7.110   4.507  15.902  0.00  0.00    +0.000 A 
ATOM     22  N   UNL     1       6.206   3.767  15.304  0.00  0.00    +0.000 NA
ENDBRANCH  16  21
ENDBRANCH  15  16
ENDBRANCH  14  15
ENDBRANCH   1  14
TORSDOF 5
ENDMDL
MODEL 2
REMARK VINA RESULT:      -8.0      0.100      1.003
REMARK  Name = 
REMARK  6 active torsions:
REMARK  status: ('A' for Active; 'I' for Inactive)
REMARK    1  A    between atoms: C_1  and  C_2
REMARK    2  A    between atoms: C_5  and  C_6
REMARK    3  A    between atoms: C_6  and  C_7
REMARK    4  A    between atoms: C_7  and  C_8
REMARK    5  A    between atoms: C_8  and  C_9
REMARK    6  A    between atoms: C_15  and  C_16
REMARK                            x       y       z     vdW  Elec       q    Type
REMARK                         _______ _______ _______ _____ _____    ______ ____
ROOT
ATOM      1  C   UNL     1       4.983   6.078  18.677  0.00  0.00    +0.000 C 
ATOM      2  O   UNL     1       5.308   5.355  19.617  0.00  0.00    +0.000 OA
ATOM      3  N   UNL     1       3.704   6.577  18.544  0.00  0.00    +0.000 N 
ATOM      4  C   UNL     1       3.207   7.488  17.529  0.00  0.00    +0.000 C 
ATOM      5  C   UNL     1       2.270   8.402  18.294  0.00  0.00    +0.000 C 
ATOM      6  C   UNL     1       1.669   7.505  19.370  0.00  0.00    +0.000 C 
ATOM      7  C   UNL     1       2.726   6.409  19.618  0.00  0.00    +0.000 C 
ENDROOT
BRANCH   7   8
ATOM      8  C   UNL     1       2.102   5.029  19.668  0.00  0.00    +0.000 A 
ATOM      9  C   UNL     1       1.708   4.347  18.512  0.00  0.00    +0.000 A 
ATOM     10  C   UNL     1       1.075   3.119  18.635  0.00  0.00    +0.000 A 
ATOM     11  N   UNL     1       0.818   2.522  19.815  0.00  0.00    +0.000 NA
ATOM     12  C   UNL     1       1.227   3.180  20.918  0.00  0.00    +0.000 A 
ATOM     13  C   UNL     1       1.863   4.409  20.900  0.00  0.00    +0.000 A 
ENDBRANCH   7   8
BRANCH   1  14
ATOM     14  C   UNL     1       6.017   6.532  17.654  0.00  0.00    +0.000 C 
BRANCH  14  15
ATOM     15  C   UNL     1       7.409   5.949  17.907  0.00  0.00    +0.000 C 
BRANCH  15  16
ATOM     16  C   UNL     1       7.547   4.553  17.294  0.00  0.00    +0.000 C 
BRANCH  16  21
ATOM     17  C   UNL     1       5.483   3.619  12.911  0.00  0.00    +0.000 C 
ATOM     18  C   UNL     1       6.318   4.189  13.982  0.00  0.00    +0.000 A 
ATOM     19  N   UNL     1       7.215   5.159  13.759  0.00  0.00    +0.000 NA
ATOM     20  O   UNL     1       7.756   5.389  15.027  0.00  0.00    +0.000 OA
ATOM     21  C   UNL     1       7.121   4.529  15.877  0.00  0.00    +0.000 A 
ATOM     22  N   UNL     1       6.227   3.772  15.286  0.00  0.00    +0.000 NA
ENDBRANCH  16  21
ENDBRANCH  15  16
ENDBRANCH  14  15
ENDBRANCH   1  14
TORSDOF 5
ENDMDL
MODEL 3
REMARK VINA RESULT:      -7.7      3.363      4.553
REMARK  Name = 
REMARK  6 active torsions:
REMARK  status: ('A' for Active; 'I' for Inactive)
REMARK    1  A    between atoms: C_1  and  C_2
REMARK    2  A    between atoms: C_5  and  C_6
REMARK    3  A    between atoms: C_6  and  C_7
REMARK    4  A    between atoms: C_7  and  C_8
REMARK    5  A    between atoms: C_8  and  C_9
REMARK    6  A    between atoms: C_15  and  C_16
REMARK                            x       y       z     vdW  Elec       q    Type
REMARK                         _______ _______ _______ _____ _____    ______ ____
ROOT
ATOM      1  C   UNL     1       5.980   5.488  18.672  0.00  0.00    +0.000 C 
ATOM      2  O   UNL     1       6.112   4.822  19.697  0.00  0.00    +0.000 OA
ATOM      3  N   UNL     1       4.752   5.963  18.260  0.00  0.00    +0.000 N 
ATOM      4  C   UNL     1       4.466   6.809  17.117  0.00  0.00    +0.000 C 
ATOM      5  C   UNL     1       3.395   7.754  17.628  0.00  0.00    +0.000 C 
ATOM      6  C   UNL     1       2.593   6.911  18.613  0.00  0.00    +0.000 C 
ATOM      7  C   UNL     1       3.580   5.843  19.127  0.00  0.00    +0.000 C 
ENDROOT
BRANCH   7   8
ATOM      8  C   UNL     1       2.961   4.460  19.131  0.00  0.00    +0.000 A 
ATOM      9  C   UNL     1       2.529   3.841  20.310  0.00  0.00    +0.000 A 
ATOM     10  C   UNL     1       2.041   2.544  20.250  0.00  0.00    +0.000 A 
ATOM     11  N   UNL     1       1.943   1.831  19.112  0.00  0.00    +0.000 NA
ATOM     12  C   UNL     1       2.339   2.451  17.983  0.00  0.00    +0.000 A 
ATOM     13  C   UNL     1       2.842   3.739  17.938  0.00  0.00    +0.000 A 
ENDBRANCH   7   8
BRANCH   1  14
ATOM     14  C   UNL     1       7.196   5.896  17.850  0.00  0.00    +0.000 C 
BRANCH  14  15
ATOM     15  C   UNL     1       7.954   7.083  18.447  0.00  0.00    +0.000 C 
BRANCH  15  16
ATOM     16  C   UNL     1       7.825   8.326  17.563  0.00  0.00    +0.000 C 
BRANCH  16  21
ATOM     17  C   UNL     1      10.278  11.530  20.403  0.00  0.00    +0.000 C 
ATOM     18  C   UNL     1       9.470  10.934  19.324  0.00  0.00    +0.000 A 
ATOM     19  N   UNL     1       8.956  11.660  18.322  0.00  0.00    +0.000 NA
ATOM     20  O   UNL     1       8.288  10.706  17.549  0.00  0.00    +0.000 OA
ATOM     21  C   UNL     1       8.474   9.507  18.175  0.00  0.00    +0.000 A 
ATOM     22  N   UNL     1       9.195   9.592  19.268  0.00  0.00    +0.000 NA
ENDBRANCH  16  21
ENDBRANCH  15  16
ENDBRANCH  14  15
ENDBRANCH   1  14
TORSDOF 5
ENDMDL
MODEL 4
REMARK VINA RESULT:      -7.6      1.044      1.284
REMARK  Name = 
REMARK  6 active torsions:
REMARK  status: ('A' for Active; 'I' for Inactive)
REMARK    1  A    between atoms: C_1  and  C_2
REMARK    2  A    between atoms: C_5  and  C_6
REMARK    3  A    between atoms: C_6  and  C_7
REMARK    4  A    between atoms: C_7  and  C_8
REMARK    5  A    between atoms: C_8  and  C_9
REMARK    6  A    between atoms: C_15  and  C_16
REMARK                            x       y       z     vdW  Elec       q    Type
REMARK                         _______ _______ _______ _____ _____    ______ ____
ROOT
ATOM      1  C   UNL     1       5.579   5.164  18.862  0.00  0.00    +0.000 C 
ATOM      2  O   UNL     1       5.605   4.504  19.899  0.00  0.00    +0.000 OA
ATOM      3  N   UNL     1       4.446   5.832  18.447  0.00  0.00    +0.000 N 
ATOM      4  C   UNL     1       4.298   6.694  17.289  0.00  0.00    +0.000 C 
ATOM      5  C   UNL     1       3.404   7.814  17.787  0.00  0.00    +0.000 C 
ATOM      6  C   UNL     1       2.479   7.135  18.790  0.00  0.00    +0.000 C 
ATOM      7  C   UNL     1       3.277   5.926  19.320  0.00  0.00    +0.000 C 
ENDROOT
BRANCH   7   8
ATOM      8  C   UNL     1       2.434   4.667  19.353  0.00  0.00    +0.000 A 
ATOM      9  C   UNL     1       1.797   4.227  20.518  0.00  0.00    +0.000 A 
ATOM     10  C   UNL     1       1.103   3.026  20.495  0.00  0.00    +0.000 A 
ATOM     11  N   UNL     1       0.991   2.245  19.404  0.00  0.00    +0.000 NA
ATOM     12  C   UNL     1       1.589   2.696  18.283  0.00  0.00    +0.000 A 
ATOM     13  C   UNL     1       2.305   3.876  18.205  0.00  0.00    +0.000 A 
ENDBRANCH   7   8
BRANCH   1  14
ATOM     14  C   UNL     1       6.841   5.348  18.027  0.00  0.00    +0.000 C 
BRANCH  14  15
ATOM     15  C   UNL     1       6.824   4.542  16.728  0.00  0.00    +0.000 C 
BRANCH  15  16
ATOM     16  C   UNL     1       7.367   5.364  15.556  0.00  0.00    +0.000 C 
BRANCH  16  21
ATOM     17  C   UNL     1       5.640   2.622  11.836  0.00  0.00    +0.000 C 
ATOM     18  C   UNL     1       6.369   3.634  12.620  0.00  0.00    +0.000 A 
ATOM     19  N   UNL     1       7.211   4.512  12.061  0.00  0.00    +0.000 NA
ATOM     20  O   UNL     1       7.657   5.264  13.151  0.00  0.00    +0.000 OA
ATOM     21  C   UNL     1       7.030   4.754  14.251  0.00  0.00    +0.000 A 
ATOM     22  N   UNL     1       6.227   3.752  13.979  0.00  0.00    +0.000 NA
ENDBRANCH  16  21
ENDBRANCH  15  16
ENDBRANCH  14  15
ENDBRANCH   1  14
TORSDOF 5
ENDMDL
MODEL 5
REMARK VINA RESULT:      -7.6      1.264      1.468
REMARK  Name = 
REMARK  6 active torsions:
REMARK  status: ('A' for Active; 'I' for Inactive)
REMARK    1  A    between atoms: C_1  and  C_2
REMARK    2  A    between atoms: C_5  and  C_6
REMARK    3  A    between atoms: C_6  and  C_7
REMARK    4  A    between atoms: C_7  and  C_8
REMARK    5  A    between atoms: C_8  and  C_9
REMARK    6  A    between atoms: C_15  and  C_16
REMARK                            x       y       z     vdW  Elec       q    Type
REMARK                         _______ _______ _______ _____ _____    ______ ____
ROOT
ATOM      1  C   UNL     1       5.543   5.505  18.942  0.00  0.00    +0.000 C 
ATOM      2  O   UNL     1       5.531   4.812  19.957  0.00  0.00    +0.000 OA
ATOM      3  N   UNL     1       4.392   6.056  18.416  0.00  0.00    +0.000 N 
ATOM      4  C   UNL     1       4.274   6.941  17.273  0.00  0.00    +0.000 C 
ATOM      5  C   UNL     1       3.205   7.932  17.693  0.00  0.00    +0.000 C 
ATOM      6  C   UNL     1       2.260   7.114  18.566  0.00  0.00    +0.000 C 
ATOM      7  C   UNL     1       3.130   5.983  19.152  0.00  0.00    +0.000 C 
ENDROOT
BRANCH   7   8
ATOM      8  C   UNL     1       2.442   4.636  19.055  0.00  0.00    +0.000 A 
ATOM      9  C   UNL     1       1.564   4.176  20.041  0.00  0.00    +0.000 A 
ATOM     10  C   UNL     1       1.027   2.901  19.925  0.00  0.00    +0.000 A 
ATOM     11  N   UNL     1       1.292   2.066  18.903  0.00  0.00    +0.000 NA
ATOM     12  C   UNL     1       2.121   2.535  17.948  0.00  0.00    +0.000 A 
ATOM     13  C   UNL     1       2.708   3.787  17.974  0.00  0.00    +0.000 A 
ENDBRANCH   7   8
BRANCH   1  14
ATOM     14  C   UNL     1       6.859   5.864  18.263  0.00  0.00    +0.000 C 
BRANCH  14  15
ATOM     15  C   UNL     1       7.486   4.689  17.510  0.00  0.00    +0.000 C 
BRANCH  15  16
ATOM     16  C   UNL     1       6.484   4.051  16.544  0.00  0.00    +0.000 C 
BRANCH  16  21
ATOM     17  C   UNL     1       8.190   5.874  12.288  0.00  0.00    +0.000 C 
ATOM     18  C   UNL     1       7.465   5.068  13.286  0.00  0.00    +0.000 A 
ATOM     19  N   UNL     1       6.619   4.087  12.945  0.00  0.00    +0.000 NA
ATOM     20  O   UNL     1       6.179   3.603  14.180  0.00  0.00    +0.000 OA
ATOM     21  C   UNL     1       6.813   4.349  15.132  0.00  0.00    +0.000 A 
ATOM     22  N   UNL     1       7.616   5.261  14.636  0.00  0.00    +0.000 NA
ENDBRANCH  16  21
ENDBRANCH  15  16
ENDBRANCH  14  15
ENDBRANCH   1  14
TORSDOF 5
ENDMDL
MODEL 6
REMARK VINA RESULT:      -7.6      1.097      1.713
REMARK  Name = 
REMARK  6 active torsions:
REMARK  status: ('A' for Active; 'I' for Inactive)
REMARK    1  A    between atoms: C_1  and  C_2
REMARK    2  A    between atoms: C_5  and  C_6
REMARK    3  A    between atoms: C_6  and  C_7
REMARK    4  A    between atoms: C_7  and  C_8
REMARK    5  A    between atoms: C_8  and  C_9
REMARK    6  A    between atoms: C_15  and  C_16
REMARK                            x       y       z     vdW  Elec       q    Type
REMARK                         _______ _______ _______ _____ _____    ______ ____
ROOT
ATOM      1  C   UNL     1       5.554   5.130  18.685  0.00  0.00    +0.000 C 
ATOM      2  O   UNL     1       5.636   4.450  19.706  0.00  0.00    +0.000 OA
ATOM      3  N   UNL     1       4.413   5.833  18.361  0.00  0.00    +0.000 N 
ATOM      4  C   UNL     1       4.206   6.720  17.232  0.00  0.00    +0.000 C 
ATOM      5  C   UNL     1       3.379   7.852  17.810  0.00  0.00    +0.000 C 
ATOM      6  C   UNL     1       2.509   7.178  18.865  0.00  0.00    +0.000 C 
ATOM      7  C   UNL     1       3.311   5.940  19.317  0.00  0.00    +0.000 C 
ENDROOT
BRANCH   7   8
ATOM      8  C   UNL     1       2.439   4.702  19.388  0.00  0.00    +0.000 A 
ATOM      9  C   UNL     1       2.023   4.018  18.241  0.00  0.00    +0.000 A 
ATOM     10  C   UNL     1       1.164   2.936  18.375  0.00  0.00    +0.000 A 
ATOM     11  N   UNL     1       0.703   2.486  19.557  0.00  0.00    +0.000 NA
ATOM     12  C   UNL     1       1.134   3.141  20.654  0.00  0.00    +0.000 A 
ATOM     13  C   UNL     1       1.986   4.230  20.625  0.00  0.00    +0.000 A 
ENDBRANCH   7   8
BRANCH   1  14
ATOM     14  C   UNL     1       6.759   5.298  17.766  0.00  0.00    +0.000 C 
BRANCH  14  15
ATOM     15  C   UNL     1       6.652   4.477  16.480  0.00  0.00    +0.000 C 
BRANCH  15  16
ATOM     16  C   UNL     1       7.228   5.241  15.284  0.00  0.00    +0.000 C 
BRANCH  16  21
ATOM     17  C   UNL     1       5.415   2.454  11.639  0.00  0.00    +0.000 C 
ATOM     18  C   UNL     1       6.201   3.439  12.402  0.00  0.00    +0.000 A 
ATOM     19  N   UNL     1       7.148   4.200  11.838  0.00  0.00    +0.000 NA
ATOM     20  O   UNL     1       7.614   4.971  12.906  0.00  0.00    +0.000 OA
ATOM     21  C   UNL     1       6.894   4.587  14.000  0.00  0.00    +0.000 A 
ATOM     22  N   UNL     1       6.011   3.650  13.744  0.00  0.00    +0.000 NA
ENDBRANCH  16  21
ENDBRANCH  15  16
ENDBRANCH  14  15
ENDBRANCH   1  14
TORSDOF 5
ENDMDL
MODEL 7
REMARK VINA RESULT:      -7.6      1.704      3.366
REMARK  Name = 
REMARK  6 active torsions:
REMARK  status: ('A' for Active; 'I' for Inactive)
REMARK    1  A    between atoms: C_1  and  C_2
REMARK    2  A    between atoms: C_5  and  C_6
REMARK    3  A    between atoms: C_6  and  C_7
REMARK    4  A    between atoms: C_7  and  C_8
REMARK    5  A    between atoms: C_8  and  C_9
REMARK    6  A    between atoms: C_15  and  C_16
REMARK                            x       y       z     vdW  Elec       q    Type
REMARK                         _______ _______ _______ _____ _____    ______ ____
ROOT
ATOM      1  C   UNL     1       5.356   6.143  18.244  0.00  0.00    +0.000 C 
ATOM      2  O   UNL     1       5.368   7.117  17.494  0.00  0.00    +0.000 OA
ATOM      3  N   UNL     1       4.184   5.516  18.614  0.00  0.00    +0.000 N 
ATOM      4  C   UNL     1       4.033   4.327  19.432  0.00  0.00    +0.000 C 
ATOM      5  C   UNL     1       2.900   3.573  18.764  0.00  0.00    +0.000 C 
ATOM      6  C   UNL     1       1.990   4.669  18.222  0.00  0.00    +0.000 C 
ATOM      7  C   UNL     1       2.916   5.880  17.983  0.00  0.00    +0.000 C 
ENDROOT
BRANCH   7   8
ATOM      8  C   UNL     1       2.312   7.163  18.516  0.00  0.00    +0.000 A 
ATOM      9  C   UNL     1       2.100   8.281  17.702  0.00  0.00    +0.000 A 
ATOM     10  C   UNL     1       1.614   9.448  18.273  0.00  0.00    +0.000 A 
ATOM     11  N   UNL     1       1.315   9.577  19.580  0.00  0.00    +0.000 NA
ATOM     12  C   UNL     1       1.501   8.482  20.345  0.00  0.00    +0.000 A 
ATOM     13  C   UNL     1       1.984   7.276  19.872  0.00  0.00    +0.000 A 
ENDBRANCH   7   8
BRANCH   1  14
ATOM     14  C   UNL     1       6.661   5.524  18.732  0.00  0.00    +0.000 C 
BRANCH  14  15
ATOM     15  C   UNL     1       7.400   4.744  17.643  0.00  0.00    +0.000 C 
BRANCH  15  16
ATOM     16  C   UNL     1       6.421   4.118  16.646  0.00  0.00    +0.000 C 
BRANCH  16  21
ATOM     17  C   UNL     1       7.041   4.229  11.752  0.00  0.00    +0.000 C 
ATOM     18  C   UNL     1       7.122   4.539  13.191  0.00  0.00    +0.000 A 
ATOM     19  N   UNL     1       7.862   5.547  13.671  0.00  0.00    +0.000 NA
ATOM     20  O   UNL     1       7.640   5.476  15.049  0.00  0.00    +0.000 OA
ATOM     21  C   UNL     1       6.787   4.428  15.246  0.00  0.00    +0.000 A 
ATOM     22  N   UNL     1       6.437   3.820  14.137  0.00  0.00    +0.000 NA
ENDBRANCH  16  21
ENDBRANCH  15  16
ENDBRANCH  14  15
ENDBRANCH   1  14
TORSDOF 5
ENDMDL
MODEL 8
REMARK VINA RESULT:      -7.3      0.913      1.053
REMARK  Name = 
REMARK  6 active torsions:
REMARK  status: ('A' for Active; 'I' for Inactive)
REMARK    1  A    between atoms: C_1  and  C_2
REMARK    2  A    between atoms: C_5  and  C_6
REMARK    3  A    between atoms: C_6  and  C_7
REMARK    4  A    between atoms: C_7  and  C_8
REMARK    5  A    between atoms: C_8  and  C_9
REMARK    6  A    between atoms: C_15  and  C_16
REMARK                            x       y       z     vdW  Elec       q    Type
REMARK                         _______ _______ _______ _____ _____    ______ ____
ROOT
ATOM      1  C   UNL     1       4.629   6.038  18.348  0.00  0.00    +0.000 C 
ATOM      2  O   UNL     1       5.142   5.176  19.059  0.00  0.00    +0.000 OA
ATOM      3  N   UNL     1       3.383   6.564  18.617  0.00  0.00    +0.000 N 
ATOM      4  C   UNL     1       2.694   7.623  17.904  0.00  0.00    +0.000 C 
ATOM      5  C   UNL     1       2.021   8.419  19.005  0.00  0.00    +0.000 C 
ATOM      6  C   UNL     1       1.663   7.375  20.056  0.00  0.00    +0.000 C 
ATOM      7  C   UNL     1       2.695   6.243  19.867  0.00  0.00    +0.000 C 
ENDROOT
BRANCH   7   8
ATOM      8  C   UNL     1       2.038   4.877  19.872  0.00  0.00    +0.000 A 
ATOM      9  C   UNL     1       1.858   4.142  21.048  0.00  0.00    +0.000 A 
ATOM     10  C   UNL     1       1.319   2.866  20.970  0.00  0.00    +0.000 A 
ATOM     11  N   UNL     1       0.940   2.281  19.818  0.00  0.00    +0.000 NA
ATOM     12  C   UNL     1       1.096   3.013  18.697  0.00  0.00    +0.000 A 
ATOM     13  C   UNL     1       1.627   4.290  18.670  0.00  0.00    +0.000 A 
ENDBRANCH   7   8
BRANCH   1  14
ATOM     14  C   UNL     1       5.398   6.632  17.174  0.00  0.00    +0.000 C 
BRANCH  14  15
ATOM     15  C   UNL     1       6.914   6.487  17.312  0.00  0.00    +0.000 C 
BRANCH  15  16
ATOM     16  C   UNL     1       7.370   5.066  16.971  0.00  0.00    +0.000 C 
BRANCH  16  21
ATOM     17  C   UNL     1       7.319   4.792  12.044  0.00  0.00    +0.000 C 
ATOM     18  C   UNL     1       7.028   4.568  13.471  0.00  0.00    +0.000 A 
ATOM     19  N   UNL     1       6.104   3.693  13.891  0.00  0.00    +0.000 NA
ATOM     20  O   UNL     1       6.171   3.804  15.283  0.00  0.00    +0.000 OA
ATOM     21  C   UNL     1       7.131   4.738  15.548  0.00  0.00    +0.000 A 
ATOM     22  N   UNL     1       7.690   5.237  14.470  0.00  0.00    +0.000 NA
ENDBRANCH  16  21
ENDBRANCH  15  16
ENDBRANCH  14  15
ENDBRANCH   1  14
TORSDOF 5
ENDMDL
MODEL 9
REMARK VINA RESULT:      -7.2      1.781      3.236
REMARK  Name = 
REMARK  6 active torsions:
REMARK  status: ('A' for Active; 'I' for Inactive)
REMARK    1  A    between atoms: C_1  and  C_2
REMARK    2  A    between atoms: C_5  and  C_6
REMARK    3  A    between atoms: C_6  and  C_7
REMARK    4  A    between atoms: C_7  and  C_8
REMARK    5  A    between atoms: C_8  and  C_9
REMARK    6  A    between atoms: C_15  and  C_16
REMARK                            x       y       z     vdW  Elec       q    Type
REMARK                         _______ _______ _______ _____ _____    ______ ____
ROOT
ATOM      1  C   UNL     1       5.144   6.000  17.799  0.00  0.00    +0.000 C 
ATOM      2  O   UNL     1       5.080   7.051  17.164  0.00  0.00    +0.000 OA
ATOM      3  N   UNL     1       4.018   5.364  18.280  0.00  0.00    +0.000 N 
ATOM      4  C   UNL     1       3.946   4.096  18.981  0.00  0.00    +0.000 C 
ATOM      5  C   UNL     1       2.694   3.448  18.423  0.00  0.00    +0.000 C 
ATOM      6  C   UNL     1       1.757   4.619  18.149  0.00  0.00    +0.000 C 
ATOM      7  C   UNL     1       2.684   5.826  17.898  0.00  0.00    +0.000 C 
ENDROOT
BRANCH   7   8
ATOM      8  C   UNL     1       2.222   7.056  18.653  0.00  0.00    +0.000 A 
ATOM      9  C   UNL     1       1.940   7.027  20.023  0.00  0.00    +0.000 A 
ATOM     10  C   UNL     1       1.448   8.171  20.635  0.00  0.00    +0.000 A 
ATOM     11  N   UNL     1       1.231   9.333  19.989  0.00  0.00    +0.000 NA
ATOM     12  C   UNL     1       1.532   9.351  18.675  0.00  0.00    +0.000 A 
ATOM     13  C   UNL     1       2.022   8.264  17.974  0.00  0.00    +0.000 A 
ENDBRANCH   7   8
BRANCH   1  14
ATOM     14  C   UNL     1       6.481   5.300  18.007  0.00  0.00    +0.000 C 
BRANCH  14  15
ATOM     15  C   UNL     1       6.902   4.441  16.813  0.00  0.00    +0.000 C 
BRANCH  15  16
ATOM     16  C   UNL     1       7.426   5.306  15.663  0.00  0.00    +0.000 C 
BRANCH  16  21
ATOM     17  C   UNL     1       5.595   2.729  11.875  0.00  0.00    +0.000 C 
ATOM     18  C   UNL     1       6.351   3.701  12.684  0.00  0.00    +0.000 A 
ATOM     19  N   UNL     1       7.196   4.588  12.142  0.00  0.00    +0.000 NA
ATOM     20  O   UNL     1       7.672   5.292  13.251  0.00  0.00    +0.000 OA
ATOM     21  C   UNL     1       7.058   4.749  14.343  0.00  0.00    +0.000 A 
ATOM     22  N   UNL     1       6.235   3.769  14.049  0.00  0.00    +0.000 NA
ENDBRANCH  16  21
ENDBRANCH  15  16
ENDBRANCH  14  15
ENDBRANCH   1  14
TORSDOF 5
ENDMDL
