MODEL 1
REMARK VINA RESULT:      -8.2      0.000      0.000
REMARK  Name = 
REMARK  5 active torsions:
REMARK  status: ('A' for Active; 'I' for Inactive)
REMARK    1  A    between atoms: C_1  and  C_2
REMARK    2  A    between atoms: C_2  and  N_3
REMARK    3  A    between atoms: C_7  and  C_8
REMARK    4  A    between atoms: C_8  and  C_10
REMARK    5  A    between atoms: N_27  and  C_28
REMARK                            x       y       z     vdW  Elec       q    Type
REMARK                         _______ _______ _______ _____ _____    ______ ____
ROOT
ATOM      1  N   UNL     1       0.174   9.164  21.085  0.00  0.00    +0.000 N 
ATOM      2  C   UNL     1       1.037   8.248  20.497  0.00  0.00    +0.000 A 
ATOM      3  C   UNL     1       1.260   6.916  20.848  0.00  0.00    +0.000 A 
ATOM      4  C   UNL     1       2.110   6.174  20.041  0.00  0.00    +0.000 A 
ATOM      5  C   UNL     1       2.672   6.718  18.886  0.00  0.00    +0.000 A 
ATOM      6  C   UNL     1       2.529   8.099  18.601  0.00  0.00    +0.000 A 
ATOM      7  C   UNL     1       1.724   8.899  19.444  0.00  0.00    +0.000 A 
ATOM      8  C   UNL     1       1.369  10.236  19.609  0.00  0.00    +0.000 A 
ATOM      9  C   UNL     1       1.728  11.395  18.898  0.00  0.00    +0.000 A 
ATOM     10  C   UNL     1       1.286  12.668  19.465  0.00  0.00    +0.000 A 
ATOM     11  C   UNL     1       0.458  12.732  20.622  0.00  0.00    +0.000 A 
ATOM     12  C   UNL     1      -0.334  11.566  20.642  0.00  0.00    +0.000 A 
ATOM     13  C   UNL     1       0.358  10.390  20.507  0.00  0.00    +0.000 A 
ATOM     14  C   UNL     1      -1.704  11.784  19.980  0.00  0.00    +0.000 C 
ATOM     15  C   UNL     1      -2.513  12.592  20.959  0.00  0.00    +0.000 C 
ATOM     16  C   UNL     1      -1.732  13.820  21.328  0.00  0.00    +0.000 A 
ATOM     17  N   UNL     1      -2.257  14.641  22.230  0.00  0.00    +0.000 NA
ATOM     18  N   UNL     1      -1.277  14.696  23.140  0.00  0.00    +0.000 N 
ATOM     19  C   UNL     1      -1.718  14.933  24.499  0.00  0.00    +0.000 C 
ATOM     20  C   UNL     1      -0.085  14.173  22.657  0.00  0.00    +0.000 A 
ATOM     21  C   UNL     1      -0.277  13.841  21.299  0.00  0.00    +0.000 A 
ATOM     22  C   UNL     1       1.599  13.676  18.477  0.00  0.00    +0.000 C 
ATOM     23  O   UNL     1       1.373  14.876  18.401  0.00  0.00    +0.000 OA
ATOM     24  N   UNL     1       2.183  12.969  17.413  0.00  0.00    +0.000 N 
ATOM     25  C   UNL     1       2.315  11.531  17.568  0.00  0.00    +0.000 C 
ATOM     26  H   UNL     1       2.301  13.435  16.525  0.00  0.00    +0.000 HD
ENDROOT
BRANCH   1  28
ATOM     27  C   UNL     1      -0.132   9.541  23.504  0.00  0.00    +0.000 C 
ATOM     28  C   UNL     1      -0.704   8.957  22.220  0.00  0.00    +0.000 C 
ENDBRANCH   1  28
BRANCH   5  29
ATOM     29  C   UNL     1       3.473   5.863  17.957  0.00  0.00    +0.000 C 
ATOM     30  O   UNL     1       4.248   6.439  17.194  0.00  0.00    +0.000 OA
BRANCH  29  31
ATOM     31  C   UNL     1       3.303   4.410  17.985  0.00  0.00    +0.000 A 
ATOM     32  C   UNL     1       2.346   3.601  17.391  0.00  0.00    +0.000 A 
ATOM     33  C   UNL     1       2.499   2.223  17.728  0.00  0.00    +0.000 A 
ATOM     34  C   UNL     1       3.601   2.010  18.524  0.00  0.00    +0.000 A 
ATOM     35  S   UNL     1       4.436   3.462  18.863  0.00  0.00    +0.000 S 
ENDBRANCH  29  31
ENDBRANCH   5  29
TORSDOF 3
ENDMDL
MODEL 2
REMARK VINA RESULT:      -8.2      1.234      1.807
REMARK  Name = 
REMARK  5 active torsions:
REMARK  status: ('A' for Active; 'I' for Inactive)
REMARK    1  A    between atoms: C_1  and  C_2
REMARK    2  A    between atoms: C_2  and  N_3
REMARK    3  A    between atoms: C_7  and  C_8
REMARK    4  A    between atoms: C_8  and  C_10
REMARK    5  A    between atoms: N_27  and  C_28
REMARK                            x       y       z     vdW  Elec       q    Type
REMARK                         _______ _______ _______ _____ _____    ______ ____
ROOT
ATOM      1  N   UNL     1       0.206   9.054  21.021  0.00  0.00    +0.000 N 
ATOM      2  C   UNL     1       1.093   8.142  20.465  0.00  0.00    +0.000 A 
ATOM      3  C   UNL     1       1.315   6.812  20.829  0.00  0.00    +0.000 A 
ATOM      4  C   UNL     1       2.196   6.073  20.053  0.00  0.00    +0.000 A 
ATOM      5  C   UNL     1       2.789   6.616  18.914  0.00  0.00    +0.000 A 
ATOM      6  C   UNL     1       2.646   7.994  18.618  0.00  0.00    +0.000 A 
ATOM      7  C   UNL     1       1.809   8.792  19.431  0.00  0.00    +0.000 A 
ATOM      8  C   UNL     1       1.439  10.128  19.578  0.00  0.00    +0.000 A 
ATOM      9  C   UNL     1       1.812  11.286  18.872  0.00  0.00    +0.000 A 
ATOM     10  C   UNL     1       1.343  12.558  19.419  0.00  0.00    +0.000 A 
ATOM     11  C   UNL     1       0.478  12.621  20.549  0.00  0.00    +0.000 A 
ATOM     12  C   UNL     1      -0.306  11.450  20.550  0.00  0.00    +0.000 A 
ATOM     13  C   UNL     1       0.399  10.278  20.442  0.00  0.00    +0.000 A 
ATOM     14  C   UNL     1      -1.655  11.655  19.844  0.00  0.00    +0.000 C 
ATOM     15  C   UNL     1      -2.501  12.461  20.793  0.00  0.00    +0.000 C 
ATOM     16  C   UNL     1      -1.741  13.696  21.180  0.00  0.00    +0.000 A 
ATOM     17  N   UNL     1      -2.301  14.518  22.061  0.00  0.00    +0.000 NA
ATOM     18  N   UNL     1      -1.350  14.584  23.001  0.00  0.00    +0.000 N 
ATOM     19  C   UNL     1      -1.835  14.825  24.344  0.00  0.00    +0.000 C 
ATOM     20  C   UNL     1      -0.139  14.068  22.559  0.00  0.00    +0.000 A 
ATOM     21  C   UNL     1      -0.286  13.729  21.197  0.00  0.00    +0.000 A 
ATOM     22  C   UNL     1       1.680  13.564  18.436  0.00  0.00    +0.000 C 
ATOM     23  O   UNL     1       1.448  14.762  18.347  0.00  0.00    +0.000 OA
ATOM     24  N   UNL     1       2.302  12.856  17.395  0.00  0.00    +0.000 N 
ATOM     25  C   UNL     1       2.440  11.420  17.561  0.00  0.00    +0.000 C 
ATOM     26  H   UNL     1       2.444  13.319  16.508  0.00  0.00    +0.000 HD
ENDROOT
BRANCH   1  28
ATOM     27  C   UNL     1      -0.216   9.507  23.409  0.00  0.00    +0.000 C 
ATOM     28  C   UNL     1      -0.706   8.846  22.128  0.00  0.00    +0.000 C 
ENDBRANCH   1  28
BRANCH   5  29
ATOM     29  C   UNL     1       3.626   5.763  18.014  0.00  0.00    +0.000 C 
ATOM     30  O   UNL     1       3.047   4.878  17.384  0.00  0.00    +0.000 OA
BRANCH  29  31
ATOM     31  C   UNL     1       5.067   6.002  17.926  0.00  0.00    +0.000 A 
ATOM     32  C   UNL     1       5.801   6.782  17.044  0.00  0.00    +0.000 A 
ATOM     33  C   UNL     1       7.208   6.686  17.261  0.00  0.00    +0.000 A 
ATOM     34  C   UNL     1       7.507   5.883  18.337  0.00  0.00    +0.000 A 
ATOM     35  S   UNL     1       6.101   5.246  19.072  0.00  0.00    +0.000 S 
ENDBRANCH  29  31
ENDBRANCH   5  29
TORSDOF 3
ENDMDL
MODEL 3
REMARK VINA RESULT:      -7.3      3.668      5.614
REMARK  Name = 
REMARK  5 active torsions:
REMARK  status: ('A' for Active; 'I' for Inactive)
REMARK    1  A    between atoms: C_1  and  C_2
REMARK    2  A    between atoms: C_2  and  N_3
REMARK    3  A    between atoms: C_7  and  C_8
REMARK    4  A    between atoms: C_8  and  C_10
REMARK    5  A    between atoms: N_27  and  C_28
REMARK                            x       y       z     vdW  Elec       q    Type
REMARK                         _______ _______ _______ _____ _____    ______ ____
ROOT
ATOM      1  N   UNL     1      -2.030  13.246  21.205  0.00  0.00    +0.000 N 
ATOM      2  C   UNL     1      -1.012  12.552  20.565  0.00  0.00    +0.000 A 
ATOM      3  C   UNL     1       0.361  12.594  20.816  0.00  0.00    +0.000 A 
ATOM      4  C   UNL     1       1.171  11.728  20.095  0.00  0.00    +0.000 A 
ATOM      5  C   UNL     1       0.631  10.806  19.200  0.00  0.00    +0.000 A 
ATOM      6  C   UNL     1      -0.746  10.847  18.871  0.00  0.00    +0.000 A 
ATOM      7  C   UNL     1      -1.589  11.766  19.538  0.00  0.00    +0.000 A 
ATOM      8  C   UNL     1      -2.909  12.208  19.501  0.00  0.00    +0.000 A 
ATOM      9  C   UNL     1      -3.999  11.840  18.690  0.00  0.00    +0.000 A 
ATOM     10  C   UNL     1      -5.211  12.645  18.827  0.00  0.00    +0.000 A 
ATOM     11  C   UNL     1      -5.321  13.687  19.792  0.00  0.00    +0.000 A 
ATOM     12  C   UNL     1      -4.502  13.341  20.885  0.00  0.00    +0.000 A 
ATOM     13  C   UNL     1      -3.213  13.002  20.563  0.00  0.00    +0.000 A 
ATOM     14  C   UNL     1      -5.285  12.607  21.986  0.00  0.00    +0.000 C 
ATOM     15  C   UNL     1      -6.110  13.659  22.678  0.00  0.00    +0.000 C 
ATOM     16  C   UNL     1      -6.914  14.394  21.646  0.00  0.00    +0.000 A 
ATOM     17  N   UNL     1      -7.673  15.405  22.055  0.00  0.00    +0.000 NA
ATOM     18  N   UNL     1      -7.222  16.401  21.282  0.00  0.00    +0.000 N 
ATOM     19  C   UNL     1      -7.325  17.721  21.868  0.00  0.00    +0.000 C 
ATOM     20  C   UNL     1      -6.439  15.938  20.234  0.00  0.00    +0.000 A 
ATOM     21  C   UNL     1      -6.458  14.528  20.270  0.00  0.00    +0.000 A 
ATOM     22  C   UNL     1      -6.229  11.968  18.055  0.00  0.00    +0.000 C 
ATOM     23  O   UNL     1      -7.427  12.159  17.895  0.00  0.00    +0.000 OA
ATOM     24  N   UNL     1      -5.588  10.835  17.528  0.00  0.00    +0.000 N 
ATOM     25  C   UNL     1      -4.187  10.653  17.861  0.00  0.00    +0.000 C 
ATOM     26  H   UNL     1      -6.152  10.102  17.120  0.00  0.00    +0.000 HD
ENDROOT
BRANCH   1  28
ATOM     27  C   UNL     1      -1.958  13.519  23.656  0.00  0.00    +0.000 C 
ATOM     28  C   UNL     1      -1.910  14.196  22.293  0.00  0.00    +0.000 C 
ENDBRANCH   1  28
BRANCH   5  29
ATOM     29  C   UNL     1       1.507   9.790  18.538  0.00  0.00    +0.000 C 
ATOM     30  O   UNL     1       1.998  10.097  17.452  0.00  0.00    +0.000 OA
BRANCH  29  31
ATOM     31  C   UNL     1       1.734   8.499  19.188  0.00  0.00    +0.000 A 
ATOM     32  C   UNL     1       1.370   8.045  20.447  0.00  0.00    +0.000 A 
ATOM     33  C   UNL     1       1.851   6.730  20.722  0.00  0.00    +0.000 A 
ATOM     34  C   UNL     1       2.519   6.193  19.645  0.00  0.00    +0.000 A 
ATOM     35  S   UNL     1       2.569   7.272  18.320  0.00  0.00    +0.000 S 
ENDBRANCH  29  31
ENDBRANCH   5  29
TORSDOF 3
ENDMDL
MODEL 4
REMARK VINA RESULT:      -7.3      2.197      3.868
REMARK  Name = 
REMARK  5 active torsions:
REMARK  status: ('A' for Active; 'I' for Inactive)
REMARK    1  A    between atoms: C_1  and  C_2
REMARK    2  A    between atoms: C_2  and  N_3
REMARK    3  A    between atoms: C_7  and  C_8
REMARK    4  A    between atoms: C_8  and  C_10
REMARK    5  A    between atoms: N_27  and  C_28
REMARK                            x       y       z     vdW  Elec       q    Type
REMARK                         _______ _______ _______ _____ _____    ______ ____
ROOT
ATOM      1  N   UNL     1       1.602  11.539  18.857  0.00  0.00    +0.000 N 
ATOM      2  C   UNL     1       1.809  10.170  18.742  0.00  0.00    +0.000 A 
ATOM      3  C   UNL     1       2.473   9.473  17.731  0.00  0.00    +0.000 A 
ATOM      4  C   UNL     1       2.629   8.104  17.893  0.00  0.00    +0.000 A 
ATOM      5  C   UNL     1       2.197   7.456  19.050  0.00  0.00    +0.000 A 
ATOM      6  C   UNL     1       1.429   8.151  20.016  0.00  0.00    +0.000 A 
ATOM      7  C   UNL     1       1.192   9.534  19.847  0.00  0.00    +0.000 A 
ATOM      8  C   UNL     1       0.471  10.565  20.447  0.00  0.00    +0.000 A 
ATOM      9  C   UNL     1      -0.367  10.588  21.576  0.00  0.00    +0.000 A 
ATOM     10  C   UNL     1      -1.096  11.832  21.818  0.00  0.00    +0.000 A 
ATOM     11  C   UNL     1      -0.900  12.990  21.014  0.00  0.00    +0.000 A 
ATOM     12  C   UNL     1       0.426  12.958  20.538  0.00  0.00    +0.000 A 
ATOM     13  C   UNL     1       0.800  11.783  19.938  0.00  0.00    +0.000 A 
ATOM     14  C   UNL     1       1.384  13.752  21.439  0.00  0.00    +0.000 C 
ATOM     15  C   UNL     1       1.108  15.205  21.159  0.00  0.00    +0.000 C 
ATOM     16  C   UNL     1      -0.361  15.456  21.340  0.00  0.00    +0.000 A 
ATOM     17  N   UNL     1      -0.818  16.677  21.084  0.00  0.00    +0.000 NA
ATOM     18  N   UNL     1      -1.768  16.419  20.178  0.00  0.00    +0.000 N 
ATOM     19  C   UNL     1      -2.009  17.482  19.226  0.00  0.00    +0.000 C 
ATOM     20  C   UNL     1      -2.083  15.068  20.119  0.00  0.00    +0.000 A 
ATOM     21  C   UNL     1      -1.350  14.409  21.130  0.00  0.00    +0.000 A 
ATOM     22  C   UNL     1      -1.723  11.681  23.112  0.00  0.00    +0.000 C 
ATOM     23  O   UNL     1      -2.370  12.437  23.825  0.00  0.00    +0.000 OA
ATOM     24  N   UNL     1      -1.340  10.404  23.553  0.00  0.00    +0.000 N 
ATOM     25  C   UNL     1      -0.489   9.628  22.669  0.00  0.00    +0.000 C 
ATOM     26  H   UNL     1      -1.492  10.156  24.520  0.00  0.00    +0.000 HD
ENDROOT
BRANCH   1  28
ATOM     27  C   UNL     1       3.278  13.297  18.422  0.00  0.00    +0.000 C 
ATOM     28  C   UNL     1       2.023  12.581  17.942  0.00  0.00    +0.000 C 
ENDBRANCH   1  28
BRANCH   5  29
ATOM     29  C   UNL     1       2.498   6.007  19.265  0.00  0.00    +0.000 C 
ATOM     30  O   UNL     1       1.828   5.416  20.111  0.00  0.00    +0.000 OA
BRANCH  29  31
ATOM     31  C   UNL     1       3.557   5.366  18.484  0.00  0.00    +0.000 A 
ATOM     32  C   UNL     1       3.496   4.638  17.305  0.00  0.00    +0.000 A 
ATOM     33  C   UNL     1       4.764   4.121  16.907  0.00  0.00    +0.000 A 
ATOM     34  C   UNL     1       5.769   4.515  17.761  0.00  0.00    +0.000 A 
ATOM     35  S   UNL     1       5.181   5.494  19.033  0.00  0.00    +0.000 S 
ENDBRANCH  29  31
ENDBRANCH   5  29
TORSDOF 3
ENDMDL
MODEL 5
REMARK VINA RESULT:      -7.1      2.100      3.855
REMARK  Name = 
REMARK  5 active torsions:
REMARK  status: ('A' for Active; 'I' for Inactive)
REMARK    1  A    between atoms: C_1  and  C_2
REMARK    2  A    between atoms: C_2  and  N_3
REMARK    3  A    between atoms: C_7  and  C_8
REMARK    4  A    between atoms: C_8  and  C_10
REMARK    5  A    between atoms: N_27  and  C_28
REMARK                            x       y       z     vdW  Elec       q    Type
REMARK                         _______ _______ _______ _____ _____    ______ ____
ROOT
ATOM      1  N   UNL     1       1.519  11.580  18.779  0.00  0.00    +0.000 N 
ATOM      2  C   UNL     1       1.881  10.256  18.571  0.00  0.00    +0.000 A 
ATOM      3  C   UNL     1       2.577   9.703  17.495  0.00  0.00    +0.000 A 
ATOM      4  C   UNL     1       2.901   8.356  17.564  0.00  0.00    +0.000 A 
ATOM      5  C   UNL     1       2.600   7.595  18.693  0.00  0.00    +0.000 A 
ATOM      6  C   UNL     1       1.798   8.135  19.729  0.00  0.00    +0.000 A 
ATOM      7  C   UNL     1       1.392   9.487  19.655  0.00  0.00    +0.000 A 
ATOM      8  C   UNL     1       0.582  10.387  20.345  0.00  0.00    +0.000 A 
ATOM      9  C   UNL     1      -0.203  10.243  21.504  0.00  0.00    +0.000 A 
ATOM     10  C   UNL     1      -1.062  11.374  21.850  0.00  0.00    +0.000 A 
ATOM     11  C   UNL     1      -1.039  12.593  21.113  0.00  0.00    +0.000 A 
ATOM     12  C   UNL     1       0.258  12.748  20.587  0.00  0.00    +0.000 A 
ATOM     13  C   UNL     1       0.742  11.663  19.901  0.00  0.00    +0.000 A 
ATOM     14  C   UNL     1       1.156  13.599  21.500  0.00  0.00    +0.000 C 
ATOM     15  C   UNL     1       0.697  15.021  21.322  0.00  0.00    +0.000 C 
ATOM     16  C   UNL     1      -0.782  15.082  21.573  0.00  0.00    +0.000 A 
ATOM     17  N   UNL     1      -1.390  16.253  21.411  0.00  0.00    +0.000 NA
ATOM     18  N   UNL     1      -2.342  15.934  20.526  0.00  0.00    +0.000 N 
ATOM     19  C   UNL     1      -2.749  17.014  19.652  0.00  0.00    +0.000 C 
ATOM     20  C   UNL     1      -2.498  14.561  20.394  0.00  0.00    +0.000 A 
ATOM     21  C   UNL     1      -1.649  13.938  21.334  0.00  0.00    +0.000 A 
ATOM     22  C   UNL     1      -1.609  11.075  23.154  0.00  0.00    +0.000 C 
ATOM     23  O   UNL     1      -2.309  11.705  23.936  0.00  0.00    +0.000 OA
ATOM     24  N   UNL     1      -1.058   9.830  23.499  0.00  0.00    +0.000 N 
ATOM     25  C   UNL     1      -0.162   9.214  22.538  0.00  0.00    +0.000 C 
ATOM     26  H   UNL     1      -1.138   9.510  24.455  0.00  0.00    +0.000 HD
ENDROOT
BRANCH   1  28
ATOM     27  C   UNL     1       3.038  13.467  18.309  0.00  0.00    +0.000 C 
ATOM     28  C   UNL     1       1.773  12.717  17.916  0.00  0.00    +0.000 C 
ENDBRANCH   1  28
BRANCH   5  29
ATOM     29  C   UNL     1       3.079   6.183  18.806  0.00  0.00    +0.000 C 
ATOM     30  O   UNL     1       4.259   5.968  18.527  0.00  0.00    +0.000 OA
BRANCH  29  31
ATOM     31  C   UNL     1       2.148   5.135  19.226  0.00  0.00    +0.000 A 
ATOM     32  C   UNL     1       1.599   4.861  20.470  0.00  0.00    +0.000 A 
ATOM     33  C   UNL     1       0.779   3.693  20.468  0.00  0.00    +0.000 A 
ATOM     34  C   UNL     1       0.678   3.141  19.212  0.00  0.00    +0.000 A 
ATOM     35  S   UNL     1       1.570   4.023  18.051  0.00  0.00    +0.000 S 
ENDBRANCH  29  31
ENDBRANCH   5  29
TORSDOF 3
ENDMDL
MODEL 6
REMARK VINA RESULT:      -6.8      1.242      1.752
REMARK  Name = 
REMARK  5 active torsions:
REMARK  status: ('A' for Active; 'I' for Inactive)
REMARK    1  A    between atoms: C_1  and  C_2
REMARK    2  A    between atoms: C_2  and  N_3
REMARK    3  A    between atoms: C_7  and  C_8
REMARK    4  A    between atoms: C_8  and  C_10
REMARK    5  A    between atoms: N_27  and  C_28
REMARK                            x       y       z     vdW  Elec       q    Type
REMARK                         _______ _______ _______ _____ _____    ______ ____
ROOT
ATOM      1  N   UNL     1       0.149   8.818  21.171  0.00  0.00    +0.000 N 
ATOM      2  C   UNL     1       0.971   7.795  20.716  0.00  0.00    +0.000 A 
ATOM      3  C   UNL     1       1.083   6.491  21.200  0.00  0.00    +0.000 A 
ATOM      4  C   UNL     1       1.915   5.620  20.509  0.00  0.00    +0.000 A 
ATOM      5  C   UNL     1       2.564   6.013  19.339  0.00  0.00    +0.000 A 
ATOM      6  C   UNL     1       2.531   7.366  18.920  0.00  0.00    +0.000 A 
ATOM      7  C   UNL     1       1.748   8.295  19.643  0.00  0.00    +0.000 A 
ATOM      8  C   UNL     1       1.481   9.662  19.665  0.00  0.00    +0.000 A 
ATOM      9  C   UNL     1       1.952  10.722  18.868  0.00  0.00    +0.000 A 
ATOM     10  C   UNL     1       1.576  12.069  19.292  0.00  0.00    +0.000 A 
ATOM     11  C   UNL     1       0.703  12.298  20.394  0.00  0.00    +0.000 A 
ATOM     12  C   UNL     1      -0.169  11.195  20.482  0.00  0.00    +0.000 A 
ATOM     13  C   UNL     1       0.445   9.968  20.492  0.00  0.00    +0.000 A 
ATOM     14  C   UNL     1      -1.489  11.438  19.734  0.00  0.00    +0.000 C 
ATOM     15  C   UNL     1      -2.282  12.387  20.591  0.00  0.00    +0.000 C 
ATOM     16  C   UNL     1      -1.434  13.591  20.883  0.00  0.00    +0.000 A 
ATOM     17  N   UNL     1      -1.940  14.528  21.677  0.00  0.00    +0.000 NA
ATOM     18  N   UNL     1      -1.000  14.605  22.627  0.00  0.00    +0.000 N 
ATOM     19  C   UNL     1      -1.482  15.000  23.934  0.00  0.00    +0.000 C 
ATOM     20  C   UNL     1       0.174  13.961  22.256  0.00  0.00    +0.000 A 
ATOM     21  C   UNL     1       0.019  13.514  20.926  0.00  0.00    +0.000 A 
ATOM     22  C   UNL     1       2.003  12.955  18.232  0.00  0.00    +0.000 C 
ATOM     23  O   UNL     1       1.865  14.154  18.033  0.00  0.00    +0.000 OA
ATOM     24  N   UNL     1       2.582  12.112  17.269  0.00  0.00    +0.000 N 
ATOM     25  C   UNL     1       2.606  10.690  17.564  0.00  0.00    +0.000 C 
ATOM     26  H   UNL     1       2.771  12.482  16.348  0.00  0.00    +0.000 HD
ENDROOT
BRANCH   1  28
ATOM     27  C   UNL     1      -0.335   9.633  23.450  0.00  0.00    +0.000 C 
ATOM     28  C   UNL     1      -0.791   8.780  22.274  0.00  0.00    +0.000 C 
ENDBRANCH   1  28
BRANCH   5  29
ATOM     29  C   UNL     1       3.344   5.022  18.535  0.00  0.00    +0.000 C 
ATOM     30  O   UNL     1       3.262   3.841  18.871  0.00  0.00    +0.000 OA
BRANCH  29  31
ATOM     31  C   UNL     1       4.159   5.485  17.412  0.00  0.00    +0.000 A 
ATOM     32  C   UNL     1       4.436   6.768  16.965  0.00  0.00    +0.000 A 
ATOM     33  C   UNL     1       5.229   6.782  15.779  0.00  0.00    +0.000 A 
ATOM     34  C   UNL     1       5.583   5.513  15.384  0.00  0.00    +0.000 A 
ATOM     35  S   UNL     1       4.958   4.318  16.435  0.00  0.00    +0.000 S 
ENDBRANCH  29  31
ENDBRANCH   5  29
TORSDOF 3
ENDMDL
MODEL 7
REMARK VINA RESULT:      -6.8      2.106      2.988
REMARK  Name = 
REMARK  5 active torsions:
REMARK  status: ('A' for Active; 'I' for Inactive)
REMARK    1  A    between atoms: C_1  and  C_2
REMARK    2  A    between atoms: C_2  and  N_3
REMARK    3  A    between atoms: C_7  and  C_8
REMARK    4  A    between atoms: C_8  and  C_10
REMARK    5  A    between atoms: N_27  and  C_28
REMARK                            x       y       z     vdW  Elec       q    Type
REMARK                         _______ _______ _______ _____ _____    ______ ____
ROOT
ATOM      1  N   UNL     1      -0.409  11.776  21.989  0.00  0.00    +0.000 N 
ATOM      2  C   UNL     1       0.090  10.495  21.792  0.00  0.00    +0.000 A 
ATOM      3  C   UNL     1      -0.159   9.341  22.536  0.00  0.00    +0.000 A 
ATOM      4  C   UNL     1       0.390   8.151  22.078  0.00  0.00    +0.000 A 
ATOM      5  C   UNL     1       1.111   8.098  20.885  0.00  0.00    +0.000 A 
ATOM      6  C   UNL     1       1.452   9.290  20.199  0.00  0.00    +0.000 A 
ATOM      7  C   UNL     1       0.965  10.527  20.679  0.00  0.00    +0.000 A 
ATOM      8  C   UNL     1       1.089  11.888  20.409  0.00  0.00    +0.000 A 
ATOM      9  C   UNL     1       1.829  12.587  19.438  0.00  0.00    +0.000 A 
ATOM     10  C   UNL     1       1.847  14.044  19.559  0.00  0.00    +0.000 A 
ATOM     11  C   UNL     1       1.083  14.728  20.548  0.00  0.00    +0.000 A 
ATOM     12  C   UNL     1      -0.060  13.950  20.816  0.00  0.00    +0.000 A 
ATOM     13  C   UNL     1       0.188  12.632  21.105  0.00  0.00    +0.000 A 
ATOM     14  C   UNL     1      -1.268  14.384  19.971  0.00  0.00    +0.000 C 
ATOM     15  C   UNL     1      -1.757  15.671  20.577  0.00  0.00    +0.000 C 
ATOM     16  C   UNL     1      -0.604  16.630  20.660  0.00  0.00    +0.000 A 
ATOM     17  N   UNL     1      -0.822  17.814  21.221  0.00  0.00    +0.000 NA
ATOM     18  N   UNL     1       0.112  17.827  22.179  0.00  0.00    +0.000 N 
ATOM     19  C   UNL     1      -0.228  18.603  23.353  0.00  0.00    +0.000 C 
ATOM     20  C   UNL     1       1.056  16.824  22.005  0.00  0.00    +0.000 A 
ATOM     21  C   UNL     1       0.770  16.168  20.788  0.00  0.00    +0.000 A 
ATOM     22  C   UNL     1       2.492  14.536  18.363  0.00  0.00    +0.000 C 
ATOM     23  O   UNL     1       2.692  15.659  17.918  0.00  0.00    +0.000 OA
ATOM     24  N   UNL     1       2.804  13.385  17.622  0.00  0.00    +0.000 N 
ATOM     25  C   UNL     1       2.435  12.106  18.200  0.00  0.00    +0.000 C 
ATOM     26  H   UNL     1       3.080  13.488  16.655  0.00  0.00    +0.000 HD
ENDROOT
BRANCH   1  28
ATOM     27  C   UNL     1      -2.760  12.256  22.563  0.00  0.00    +0.000 C 
ATOM     28  C   UNL     1      -1.311  12.228  23.030  0.00  0.00    +0.000 C 
ENDBRANCH   1  28
BRANCH   5  29
ATOM     29  C   UNL     1       1.576   6.785  20.339  0.00  0.00    +0.000 C 
ATOM     30  O   UNL     1       1.079   5.770  20.825  0.00  0.00    +0.000 OA
BRANCH  29  31
ATOM     31  C   UNL     1       2.583   6.761  19.278  0.00  0.00    +0.000 A 
ATOM     32  C   UNL     1       2.761   7.592  18.182  0.00  0.00    +0.000 A 
ATOM     33  C   UNL     1       3.837   7.177  17.342  0.00  0.00    +0.000 A 
ATOM     34  C   UNL     1       4.488   6.076  17.848  0.00  0.00    +0.000 A 
ATOM     35  S   UNL     1       3.799   5.547  19.321  0.00  0.00    +0.000 S 
ENDBRANCH  29  31
ENDBRANCH   5  29
TORSDOF 3
ENDMDL
MODEL 8
REMARK VINA RESULT:      -6.7      1.519      1.978
REMARK  Name = 
REMARK  5 active torsions:
REMARK  status: ('A' for Active; 'I' for Inactive)
REMARK    1  A    between atoms: C_1  and  C_2
REMARK    2  A    between atoms: C_2  and  N_3
REMARK    3  A    between atoms: C_7  and  C_8
REMARK    4  A    between atoms: C_8  and  C_10
REMARK    5  A    between atoms: N_27  and  C_28
REMARK                            x       y       z     vdW  Elec       q    Type
REMARK                         _______ _______ _______ _____ _____    ______ ____
ROOT
ATOM      1  N   UNL     1      -0.293  10.260  21.962  0.00  0.00    +0.000 N 
ATOM      2  C   UNL     1       0.531   9.527  21.118  0.00  0.00    +0.000 A 
ATOM      3  C   UNL     1       1.085   8.263  21.327  0.00  0.00    +0.000 A 
ATOM      4  C   UNL     1       1.806   7.699  20.283  0.00  0.00    +0.000 A 
ATOM      5  C   UNL     1       1.919   8.340  19.050  0.00  0.00    +0.000 A 
ATOM      6  C   UNL     1       1.449   9.667  18.886  0.00  0.00    +0.000 A 
ATOM      7  C   UNL     1       0.771  10.297  19.954  0.00  0.00    +0.000 A 
ATOM      8  C   UNL     1       0.232  11.541  20.277  0.00  0.00    +0.000 A 
ATOM      9  C   UNL     1       0.161  12.747  19.557  0.00  0.00    +0.000 A 
ATOM     10  C   UNL     1      -0.338  13.911  20.287  0.00  0.00    +0.000 A 
ATOM     11  C   UNL     1      -0.816  13.814  21.625  0.00  0.00    +0.000 A 
ATOM     12  C   UNL     1      -1.341  12.518  21.797  0.00  0.00    +0.000 A 
ATOM     13  C   UNL     1      -0.506  11.498  21.420  0.00  0.00    +0.000 A 
ATOM     14  C   UNL     1      -2.855  12.467  21.539  0.00  0.00    +0.000 C 
ATOM     15  C   UNL     1      -3.502  13.104  22.739  0.00  0.00    +0.000 C 
ATOM     16  C   UNL     1      -2.892  14.460  22.948  0.00  0.00    +0.000 A 
ATOM     17  N   UNL     1      -3.295  15.165  23.999  0.00  0.00    +0.000 NA
ATOM     18  N   UNL     1      -2.131  15.409  24.614  0.00  0.00    +0.000 N 
ATOM     19  C   UNL     1      -2.220  15.558  26.052  0.00  0.00    +0.000 C 
ATOM     20  C   UNL     1      -1.040  15.126  23.803  0.00  0.00    +0.000 A 
ATOM     21  C   UNL     1      -1.531  14.762  22.531  0.00  0.00    +0.000 A 
ATOM     22  C   UNL     1      -0.500  14.959  19.305  0.00  0.00    +0.000 C 
ATOM     23  O   UNL     1      -0.958  16.093  19.354  0.00  0.00    +0.000 OA
ATOM     24  N   UNL     1      -0.108  14.377  18.088  0.00  0.00    +0.000 N 
ATOM     25  C   UNL     1       0.326  12.992  18.127  0.00  0.00    +0.000 C 
ATOM     26  H   UNL     1      -0.327  14.856  17.226  0.00  0.00    +0.000 HD
ENDROOT
BRANCH   1  28
ATOM     27  C   UNL     1       0.341   9.355  24.168  0.00  0.00    +0.000 C 
ATOM     28  C   UNL     1      -0.773   9.889  23.278  0.00  0.00    +0.000 C 
ENDBRANCH   1  28
BRANCH   5  29
ATOM     29  C   UNL     1       2.580   7.655  17.897  0.00  0.00    +0.000 C 
ATOM     30  O   UNL     1       2.847   8.345  16.914  0.00  0.00    +0.000 OA
BRANCH  29  31
ATOM     31  C   UNL     1       2.871   6.223  17.978  0.00  0.00    +0.000 A 
ATOM     32  C   UNL     1       2.034   5.123  17.861  0.00  0.00    +0.000 A 
ATOM     33  C   UNL     1       2.712   3.887  18.076  0.00  0.00    +0.000 A 
ATOM     34  C   UNL     1       4.058   4.071  18.294  0.00  0.00    +0.000 A 
ATOM     35  S   UNL     1       4.493   5.723  18.246  0.00  0.00    +0.000 S 
ENDBRANCH  29  31
ENDBRANCH   5  29
TORSDOF 3
ENDMDL
MODEL 9
REMARK VINA RESULT:      -6.6      4.835      9.594
REMARK  Name = 
REMARK  5 active torsions:
REMARK  status: ('A' for Active; 'I' for Inactive)
REMARK    1  A    between atoms: C_1  and  C_2
REMARK    2  A    between atoms: C_2  and  N_3
REMARK    3  A    between atoms: C_7  and  C_8
REMARK    4  A    between atoms: C_8  and  C_10
REMARK    5  A    between atoms: N_27  and  C_28
REMARK                            x       y       z     vdW  Elec       q    Type
REMARK                         _______ _______ _______ _____ _____    ______ ____
ROOT
ATOM      1  N   UNL     1      -1.644  11.859  21.840  0.00  0.00    +0.000 N 
ATOM      2  C   UNL     1      -2.863  12.259  22.370  0.00  0.00    +0.000 A 
ATOM      3  C   UNL     1      -3.205  12.459  23.709  0.00  0.00    +0.000 A 
ATOM      4  C   UNL     1      -4.473  12.954  23.980  0.00  0.00    +0.000 A 
ATOM      5  C   UNL     1      -5.350  13.301  22.953  0.00  0.00    +0.000 A 
ATOM      6  C   UNL     1      -5.037  12.991  21.606  0.00  0.00    +0.000 A 
ATOM      7  C   UNL     1      -3.779  12.421  21.303  0.00  0.00    +0.000 A 
ATOM      8  C   UNL     1      -3.091  11.901  20.209  0.00  0.00    +0.000 A 
ATOM      9  C   UNL     1      -3.454  11.752  18.858  0.00  0.00    +0.000 A 
ATOM     10  C   UNL     1      -2.524  11.002  18.015  0.00  0.00    +0.000 A 
ATOM     11  C   UNL     1      -1.275  10.526  18.507  0.00  0.00    +0.000 A 
ATOM     12  C   UNL     1      -0.851  11.412  19.517  0.00  0.00    +0.000 A 
ATOM     13  C   UNL     1      -1.780  11.671  20.492  0.00  0.00    +0.000 A 
ATOM     14  C   UNL     1       0.085  12.504  18.975  0.00  0.00    +0.000 C 
ATOM     15  C   UNL     1       1.409  11.831  18.731  0.00  0.00    +0.000 C 
ATOM     16  C   UNL     1       1.183  10.632  17.856  0.00  0.00    +0.000 A 
ATOM     17  N   UNL     1       2.231   9.868  17.568  0.00  0.00    +0.000 NA
ATOM     18  N   UNL     1       1.805   8.669  17.985  0.00  0.00    +0.000 N 
ATOM     19  C   UNL     1       2.850   7.772  18.432  0.00  0.00    +0.000 C 
ATOM     20  C   UNL     1       0.438   8.655  18.231  0.00  0.00    +0.000 A 
ATOM     21  C   UNL     1      -0.082   9.911  17.853  0.00  0.00    +0.000 A 
ATOM     22  C   UNL     1      -3.006  11.150  16.660  0.00  0.00    +0.000 C 
ATOM     23  O   UNL     1      -2.569  10.803  15.571  0.00  0.00    +0.000 OA
ATOM     24  N   UNL     1      -4.150  11.957  16.770  0.00  0.00    +0.000 N 
ATOM     25  C   UNL     1      -4.526  12.393  18.103  0.00  0.00    +0.000 C 
ATOM     26  H   UNL     1      -4.543  12.362  15.932  0.00  0.00    +0.000 HD
ENDROOT
BRANCH   1  28
ATOM     27  C   UNL     1      -0.361  10.076  22.964  0.00  0.00    +0.000 C 
ATOM     28  C   UNL     1      -0.424  11.541  22.555  0.00  0.00    +0.000 C 
ENDBRANCH   1  28
BRANCH   5  29
ATOM     29  C   UNL     1      -6.656  13.962  23.263  0.00  0.00    +0.000 C 
ATOM     30  O   UNL     1      -7.620  13.226  23.471  0.00  0.00    +0.000 OA
BRANCH  29  31
ATOM     31  C   UNL     1      -6.736  15.422  23.298  0.00  0.00    +0.000 A 
ATOM     32  C   UNL     1      -5.983  16.351  24.003  0.00  0.00    +0.000 A 
ATOM     33  C   UNL     1      -6.435  17.690  23.808  0.00  0.00    +0.000 A 
ATOM     34  C   UNL     1      -7.481  17.754  22.917  0.00  0.00    +0.000 A 
ATOM     35  S   UNL     1      -7.917  16.209  22.329  0.00  0.00    +0.000 S 
ENDBRANCH  29  31
ENDBRANCH   5  29
TORSDOF 3
ENDMDL
