MODEL 1
REMARK VINA RESULT:      -7.7      0.000      0.000
REMARK  Name = 
REMARK  7 active torsions:
REMARK  status: ('A' for Active; 'I' for Inactive)
REMARK    1  A    between atoms: C_6  and  N_7
REMARK    2  A    between atoms: N_7  and  C_8
REMARK    3  A    between atoms: C_8  and  C_9
REMARK    4  A    between atoms: C_9  and  N_10
REMARK    5  A    between atoms: C_12  and  C_13
REMARK    6  A    between atoms: C_13  and  O_14
REMARK    7  A    between atoms: O_14  and  C_15
REMARK                            x       y       z     vdW  Elec       q    Type
REMARK                         _______ _______ _______ _____ _____    ______ ____
ROOT
ATOM      1  C   UNL     1       1.373   4.524  19.234  0.00  0.00    +0.000 C 
ENDROOT
BRANCH   1   2
ATOM      2  N   UNL     1       2.694   4.207  18.697  0.00  0.00    +0.000 N 
ATOM      3  C   UNL     1       3.204   4.482  17.464  0.00  0.00    +0.000 A 
ATOM      4  C   UNL     1       4.468   3.920  17.487  0.00  0.00    +0.000 A 
ATOM      5  N   UNL     1       4.670   3.337  18.709  0.00  0.00    +0.000 NA
ATOM      6  N   UNL     1       3.587   3.533  19.445  0.00  0.00    +0.000 NA
BRANCH   4   7
ATOM      7  C   UNL     1       5.528   3.864  16.440  0.00  0.00    +0.000 C 
BRANCH   7   8
ATOM      8  O   UNL     1       6.828   3.961  17.027  0.00  0.00    +0.000 OA
BRANCH   8   9
ATOM      9  C   UNL     1       7.234   5.197  17.450  0.00  0.00    +0.000 A 
ATOM     10  C   UNL     1       7.832   5.493  18.677  0.00  0.00    +0.000 A 
ATOM     11  C   UNL     1       8.227   6.805  18.968  0.00  0.00    +0.000 A 
ATOM     12  C   UNL     1       8.018   7.819  18.036  0.00  0.00    +0.000 A 
ATOM     13 BR   UNL     1       8.567   9.584  18.428  0.00  0.00    +0.000 Br
ATOM     14  C   UNL     1       7.409   7.537  16.816  0.00  0.00    +0.000 A 
ATOM     15  C   UNL     1       7.018   6.227  16.529  0.00  0.00    +0.000 A 
ENDBRANCH   8   9
ENDBRANCH   7   8
ENDBRANCH   4   7
ENDBRANCH   1   2
BRANCH   1  16
ATOM     16  C   UNL     1       1.486   5.359  20.511  0.00  0.00    +0.000 C 
BRANCH  16  17
ATOM     17  N   UNL     1       2.491   6.445  20.480  0.00  0.00    +0.000 N 
ATOM     18  H   UNL     1       3.371   6.165  20.057  0.00  0.00    +0.000 HD
BRANCH  17  24
ATOM     19 CL   UNL     1      -1.283  11.782  22.724  0.00  0.00    +0.000 Cl
ATOM     20  C   UNL     1      -0.345  10.568  21.946  0.00  0.00    +0.000 A 
ATOM     21  C   UNL     1       0.051   9.438  22.648  0.00  0.00    +0.000 A 
ATOM     22  C   UNL     1       0.817   8.455  22.007  0.00  0.00    +0.000 A 
ATOM     23  C   UNL     1       1.204   8.597  20.648  0.00  0.00    +0.000 A 
ATOM     24  C   UNL     1       2.008   7.669  19.910  0.00  0.00    +0.000 A 
ATOM     25  C   UNL     1       2.221   7.944  18.552  0.00  0.00    +0.000 A 
ATOM     26  C   UNL     1       1.749   9.116  17.998  0.00  0.00    +0.000 A 
ATOM     27  N   UNL     1       1.048  10.027  18.683  0.00  0.00    +0.000 NA
ATOM     28  C   UNL     1       0.770   9.764  19.964  0.00  0.00    +0.000 A 
ATOM     29  C   UNL     1       0.014  10.721  20.616  0.00  0.00    +0.000 A 
ENDBRANCH  17  24
ENDBRANCH  16  17
ENDBRANCH   1  16
TORSDOF 7
ENDMDL
MODEL 2
REMARK VINA RESULT:      -7.7      3.142      5.044
REMARK  Name = 
REMARK  7 active torsions:
REMARK  status: ('A' for Active; 'I' for Inactive)
REMARK    1  A    between atoms: C_6  and  N_7
REMARK    2  A    between atoms: N_7  and  C_8
REMARK    3  A    between atoms: C_8  and  C_9
REMARK    4  A    between atoms: C_9  and  N_10
REMARK    5  A    between atoms: C_12  and  C_13
REMARK    6  A    between atoms: C_13  and  O_14
REMARK    7  A    between atoms: O_14  and  C_15
REMARK                            x       y       z     vdW  Elec       q    Type
REMARK                         _______ _______ _______ _____ _____    ______ ____
ROOT
ATOM      1  C   UNL     1       5.691   4.353  18.365  0.00  0.00    +0.000 C 
ENDROOT
BRANCH   1   2
ATOM      2  N   UNL     1       6.259   5.614  17.893  0.00  0.00    +0.000 N 
ATOM      3  C   UNL     1       7.300   6.327  18.406  0.00  0.00    +0.000 A 
ATOM      4  C   UNL     1       7.374   7.447  17.597  0.00  0.00    +0.000 A 
ATOM      5  N   UNL     1       6.393   7.371  16.646  0.00  0.00    +0.000 NA
ATOM      6  N   UNL     1       5.729   6.240  16.826  0.00  0.00    +0.000 NA
BRANCH   4   7
ATOM      7  C   UNL     1       8.292   8.621  17.643  0.00  0.00    +0.000 C 
BRANCH   7   8
ATOM      8  O   UNL     1       8.474   9.072  18.988  0.00  0.00    +0.000 OA
BRANCH   8   9
ATOM      9  C   UNL     1       9.223  10.201  19.174  0.00  0.00    +0.000 A 
ATOM     10  C   UNL     1       9.679  10.695  20.398  0.00  0.00    +0.000 A 
ATOM     11  C   UNL     1      10.467  11.851  20.440  0.00  0.00    +0.000 A 
ATOM     12  C   UNL     1      10.793  12.517  19.260  0.00  0.00    +0.000 A 
ATOM     13 BR   UNL     1      11.869  14.069  19.321  0.00  0.00    +0.000 Br
ATOM     14  C   UNL     1      10.331  12.041  18.036  0.00  0.00    +0.000 A 
ATOM     15  C   UNL     1       9.546  10.886  17.998  0.00  0.00    +0.000 A 
ENDBRANCH   8   9
ENDBRANCH   7   8
ENDBRANCH   4   7
ENDBRANCH   1   2
BRANCH   1  16
ATOM     16  C   UNL     1       4.959   3.625  17.235  0.00  0.00    +0.000 C 
BRANCH  16  17
ATOM     17  N   UNL     1       3.503   3.874  17.149  0.00  0.00    +0.000 N 
ATOM     18  H   UNL     1       3.022   3.228  16.530  0.00  0.00    +0.000 HD
BRANCH  17  24
ATOM     19 CL   UNL     1       1.137   8.976  21.166  0.00  0.00    +0.000 Cl
ATOM     20  C   UNL     1       1.656   7.555  20.349  0.00  0.00    +0.000 A 
ATOM     21  C   UNL     1       2.270   7.650  19.107  0.00  0.00    +0.000 A 
ATOM     22  C   UNL     1       2.688   6.487  18.448  0.00  0.00    +0.000 A 
ATOM     23  C   UNL     1       2.489   5.204  19.024  0.00  0.00    +0.000 A 
ATOM     24  C   UNL     1       2.850   3.955  18.423  0.00  0.00    +0.000 A 
ATOM     25  C   UNL     1       2.644   2.794  19.182  0.00  0.00    +0.000 A 
ATOM     26  C   UNL     1       2.025   2.870  20.413  0.00  0.00    +0.000 A 
ATOM     27  N   UNL     1       1.623   4.020  20.968  0.00  0.00    +0.000 NA
ATOM     28  C   UNL     1       1.866   5.152  20.300  0.00  0.00    +0.000 A 
ATOM     29  C   UNL     1       1.462   6.313  20.933  0.00  0.00    +0.000 A 
ENDBRANCH  17  24
ENDBRANCH  16  17
ENDBRANCH   1  16
TORSDOF 7
ENDMDL
MODEL 3
REMARK VINA RESULT:      -7.7      3.152      5.262
REMARK  Name = 
REMARK  7 active torsions:
REMARK  status: ('A' for Active; 'I' for Inactive)
REMARK    1  A    between atoms: C_6  and  N_7
REMARK    2  A    between atoms: N_7  and  C_8
REMARK    3  A    between atoms: C_8  and  C_9
REMARK    4  A    between atoms: C_9  and  N_10
REMARK    5  A    between atoms: C_12  and  C_13
REMARK    6  A    between atoms: C_13  and  O_14
REMARK    7  A    between atoms: O_14  and  C_15
REMARK                            x       y       z     vdW  Elec       q    Type
REMARK                         _______ _______ _______ _____ _____    ______ ____
ROOT
ATOM      1  C   UNL     1       5.757   4.335  16.029  0.00  0.00    +0.000 C 
ENDROOT
BRANCH   1   2
ATOM      2  N   UNL     1       6.294   5.609  16.502  0.00  0.00    +0.000 N 
ATOM      3  C   UNL     1       7.303   5.834  17.388  0.00  0.00    +0.000 A 
ATOM      4  C   UNL     1       7.357   7.212  17.497  0.00  0.00    +0.000 A 
ATOM      5  N   UNL     1       6.395   7.757  16.689  0.00  0.00    +0.000 NA
ATOM      6  N   UNL     1       5.764   6.770  16.074  0.00  0.00    +0.000 NA
BRANCH   4   7
ATOM      7  C   UNL     1       8.238   8.090  18.320  0.00  0.00    +0.000 C 
BRANCH   7   8
ATOM      8  O   UNL     1       8.596   9.271  17.596  0.00  0.00    +0.000 OA
BRANCH   8   9
ATOM      9  C   UNL     1       8.923  10.379  18.329  0.00  0.00    +0.000 A 
ATOM     10  C   UNL     1       8.914  11.700  17.875  0.00  0.00    +0.000 A 
ATOM     11  C   UNL     1       9.244  12.745  18.746  0.00  0.00    +0.000 A 
ATOM     12  C   UNL     1       9.589  12.469  20.067  0.00  0.00    +0.000 A 
ATOM     13 BR   UNL     1      10.020  13.884  21.242  0.00  0.00    +0.000 Br
ATOM     14  C   UNL     1       9.616  11.155  20.526  0.00  0.00    +0.000 A 
ATOM     15  C   UNL     1       9.284  10.115  19.654  0.00  0.00    +0.000 A 
ENDBRANCH   8   9
ENDBRANCH   7   8
ENDBRANCH   4   7
ENDBRANCH   1   2
BRANCH   1  16
ATOM     16  C   UNL     1       4.920   3.656  17.115  0.00  0.00    +0.000 C 
BRANCH  16  17
ATOM     17  N   UNL     1       3.458   3.653  16.890  0.00  0.00    +0.000 N 
ATOM     18  H   UNL     1       3.154   2.935  16.240  0.00  0.00    +0.000 HD
BRANCH  17  24
ATOM     19 CL   UNL     1       1.227   8.345  21.447  0.00  0.00    +0.000 Cl
ATOM     20  C   UNL     1       1.678   7.010  20.462  0.00  0.00    +0.000 A 
ATOM     21  C   UNL     1       2.429   7.214  19.313  0.00  0.00    +0.000 A 
ATOM     22  C   UNL     1       2.789   6.121  18.515  0.00  0.00    +0.000 A 
ATOM     23  C   UNL     1       2.394   4.800  18.856  0.00  0.00    +0.000 A 
ATOM     24  C   UNL     1       2.683   3.621  18.096  0.00  0.00    +0.000 A 
ATOM     25  C   UNL     1       2.274   2.394  18.637  0.00  0.00    +0.000 A 
ATOM     26  C   UNL     1       1.537   2.359  19.803  0.00  0.00    +0.000 A 
ATOM     27  N   UNL     1       1.202   3.453  20.498  0.00  0.00    +0.000 NA
ATOM     28  C   UNL     1       1.635   4.634  20.046  0.00  0.00    +0.000 A 
ATOM     29  C   UNL     1       1.290   5.728  20.819  0.00  0.00    +0.000 A 
ENDBRANCH  17  24
ENDBRANCH  16  17
ENDBRANCH   1  16
TORSDOF 7
ENDMDL
MODEL 4
REMARK VINA RESULT:      -7.6      3.222      5.361
REMARK  Name = 
REMARK  7 active torsions:
REMARK  status: ('A' for Active; 'I' for Inactive)
REMARK    1  A    between atoms: C_6  and  N_7
REMARK    2  A    between atoms: N_7  and  C_8
REMARK    3  A    between atoms: C_8  and  C_9
REMARK    4  A    between atoms: C_9  and  N_10
REMARK    5  A    between atoms: C_12  and  C_13
REMARK    6  A    between atoms: C_13  and  O_14
REMARK    7  A    between atoms: O_14  and  C_15
REMARK                            x       y       z     vdW  Elec       q    Type
REMARK                         _______ _______ _______ _____ _____    ______ ____
ROOT
ATOM      1  C   UNL     1       6.840   4.203  16.229  0.00  0.00    +0.000 C 
ENDROOT
BRANCH   1   2
ATOM      2  N   UNL     1       7.210   5.401  16.978  0.00  0.00    +0.000 N 
ATOM      3  C   UNL     1       7.269   6.693  16.549  0.00  0.00    +0.000 A 
ATOM      4  C   UNL     1       7.715   7.396  17.655  0.00  0.00    +0.000 A 
ATOM      5  N   UNL     1       7.905   6.520  18.689  0.00  0.00    +0.000 NA
ATOM      6  N   UNL     1       7.577   5.308  18.270  0.00  0.00    +0.000 NA
BRANCH   4   7
ATOM      7  C   UNL     1       8.001   8.849  17.833  0.00  0.00    +0.000 C 
BRANCH   7   8
ATOM      8  O   UNL     1       8.949   9.054  18.884  0.00  0.00    +0.000 OA
BRANCH   8   9
ATOM      9  C   UNL     1       9.384  10.334  19.094  0.00  0.00    +0.000 A 
ATOM     10  C   UNL     1       9.734  11.258  18.108  0.00  0.00    +0.000 A 
ATOM     11  C   UNL     1      10.136  12.550  18.467  0.00  0.00    +0.000 A 
ATOM     12  C   UNL     1      10.195  12.915  19.810  0.00  0.00    +0.000 A 
ATOM     13 BR   UNL     1      10.724  14.665  20.288  0.00  0.00    +0.000 Br
ATOM     14  C   UNL     1       9.863  11.996  20.802  0.00  0.00    +0.000 A 
ATOM     15  C   UNL     1       9.460  10.708  20.440  0.00  0.00    +0.000 A 
ENDBRANCH   8   9
ENDBRANCH   7   8
ENDBRANCH   4   7
ENDBRANCH   1   2
BRANCH   1  16
ATOM     16  C   UNL     1       5.391   4.286  15.743  0.00  0.00    +0.000 C 
BRANCH  16  17
ATOM     17  N   UNL     1       4.550   5.306  16.407  0.00  0.00    +0.000 N 
ATOM     18  H   UNL     1       3.877   5.739  15.781  0.00  0.00    +0.000 HD
BRANCH  17  24
ATOM     19 CL   UNL     1       0.730   8.200  21.387  0.00  0.00    +0.000 Cl
ATOM     20  C   UNL     1       1.665   7.272  20.281  0.00  0.00    +0.000 A 
ATOM     21  C   UNL     1       2.205   7.871  19.151  0.00  0.00    +0.000 A 
ATOM     22  C   UNL     1       2.963   7.107  18.254  0.00  0.00    +0.000 A 
ATOM     23  C   UNL     1       3.185   5.722  18.476  0.00  0.00    +0.000 A 
ATOM     24  C   UNL     1       3.917   4.847  17.609  0.00  0.00    +0.000 A 
ATOM     25  C   UNL     1       4.097   3.524  18.037  0.00  0.00    +0.000 A 
ATOM     26  C   UNL     1       3.498   3.082  19.199  0.00  0.00    +0.000 A 
ATOM     27  N   UNL     1       2.759   3.866  19.993  0.00  0.00    +0.000 NA
ATOM     28  C   UNL     1       2.624   5.150  19.649  0.00  0.00    +0.000 A 
ATOM     29  C   UNL     1       1.879   5.924  20.521  0.00  0.00    +0.000 A 
ENDBRANCH  17  24
ENDBRANCH  16  17
ENDBRANCH   1  16
TORSDOF 7
ENDMDL
MODEL 5
REMARK VINA RESULT:      -7.6      3.856      5.810
REMARK  Name = 
REMARK  7 active torsions:
REMARK  status: ('A' for Active; 'I' for Inactive)
REMARK    1  A    between atoms: C_6  and  N_7
REMARK    2  A    between atoms: N_7  and  C_8
REMARK    3  A    between atoms: C_8  and  C_9
REMARK    4  A    between atoms: C_9  and  N_10
REMARK    5  A    between atoms: C_12  and  C_13
REMARK    6  A    between atoms: C_13  and  O_14
REMARK    7  A    between atoms: O_14  and  C_15
REMARK                            x       y       z     vdW  Elec       q    Type
REMARK                         _______ _______ _______ _____ _____    ______ ____
ROOT
ATOM      1  C   UNL     1       7.063   4.516  16.604  0.00  0.00    +0.000 C 
ENDROOT
BRANCH   1   2
ATOM      2  N   UNL     1       7.422   5.768  17.266  0.00  0.00    +0.000 N 
ATOM      3  C   UNL     1       7.375   7.038  16.776  0.00  0.00    +0.000 A 
ATOM      4  C   UNL     1       7.866   7.818  17.808  0.00  0.00    +0.000 A 
ATOM      5  N   UNL     1       8.186   7.006  18.862  0.00  0.00    +0.000 NA
ATOM      6  N   UNL     1       7.895   5.759  18.526  0.00  0.00    +0.000 NA
BRANCH   4   7
ATOM      7  C   UNL     1       8.082   9.291  17.897  0.00  0.00    +0.000 C 
BRANCH   7   8
ATOM      8  O   UNL     1       8.930   9.613  19.002  0.00  0.00    +0.000 OA
BRANCH   8   9
ATOM      9  C   UNL     1       9.513  10.851  19.005  0.00  0.00    +0.000 A 
ATOM     10  C   UNL     1      10.539  11.277  19.851  0.00  0.00    +0.000 A 
ATOM     11  C   UNL     1      11.065  12.568  19.723  0.00  0.00    +0.000 A 
ATOM     12  C   UNL     1      10.562  13.433  18.754  0.00  0.00    +0.000 A 
ATOM     13 BR   UNL     1      11.286  15.169  18.575  0.00  0.00    +0.000 Br
ATOM     14  C   UNL     1       9.530  13.023  17.915  0.00  0.00    +0.000 A 
ATOM     15  C   UNL     1       9.008  11.733  18.045  0.00  0.00    +0.000 A 
ENDBRANCH   8   9
ENDBRANCH   7   8
ENDBRANCH   4   7
ENDBRANCH   1   2
BRANCH   1  16
ATOM     16  C   UNL     1       5.625   4.113  16.939  0.00  0.00    +0.000 C 
BRANCH  16  17
ATOM     17  N   UNL     1       4.575   5.063  16.510  0.00  0.00    +0.000 N 
ATOM     18  H   UNL     1       3.971   4.691  15.784  0.00  0.00    +0.000 HD
BRANCH  17  24
ATOM     19 CL   UNL     1       1.202   2.500  21.971  0.00  0.00    +0.000 Cl
ATOM     20  C   UNL     1       1.957   3.358  20.686  0.00  0.00    +0.000 A 
ATOM     21  C   UNL     1       2.675   2.672  19.716  0.00  0.00    +0.000 A 
ATOM     22  C   UNL     1       3.289   3.379  18.675  0.00  0.00    +0.000 A 
ATOM     23  C   UNL     1       3.197   4.794  18.594  0.00  0.00    +0.000 A 
ATOM     24  C   UNL     1       3.809   5.612  17.591  0.00  0.00    +0.000 A 
ATOM     25  C   UNL     1       3.539   6.988  17.633  0.00  0.00    +0.000 A 
ATOM     26  C   UNL     1       2.793   7.518  18.665  0.00  0.00    +0.000 A 
ATOM     27  N   UNL     1       2.262   6.780  19.648  0.00  0.00    +0.000 NA
ATOM     28  C   UNL     1       2.444   5.457  19.600  0.00  0.00    +0.000 A 
ATOM     29  C   UNL     1       1.846   4.738  20.619  0.00  0.00    +0.000 A 
ENDBRANCH  17  24
ENDBRANCH  16  17
ENDBRANCH   1  16
TORSDOF 7
ENDMDL
MODEL 6
REMARK VINA RESULT:      -7.5      0.790      1.246
REMARK  Name = 
REMARK  7 active torsions:
REMARK  status: ('A' for Active; 'I' for Inactive)
REMARK    1  A    between atoms: C_6  and  N_7
REMARK    2  A    between atoms: N_7  and  C_8
REMARK    3  A    between atoms: C_8  and  C_9
REMARK    4  A    between atoms: C_9  and  N_10
REMARK    5  A    between atoms: C_12  and  C_13
REMARK    6  A    between atoms: C_13  and  O_14
REMARK    7  A    between atoms: O_14  and  C_15
REMARK                            x       y       z     vdW  Elec       q    Type
REMARK                         _______ _______ _______ _____ _____    ______ ____
ROOT
ATOM      1  C   UNL     1       1.868   4.329  20.669  0.00  0.00    +0.000 C 
ENDROOT
BRANCH   1   2
ATOM      2  N   UNL     1       2.576   3.974  19.442  0.00  0.00    +0.000 N 
ATOM      3  C   UNL     1       3.663   4.571  18.879  0.00  0.00    +0.000 A 
ATOM      4  C   UNL     1       3.879   3.853  17.716  0.00  0.00    +0.000 A 
ATOM      5  N   UNL     1       2.932   2.870  17.621  0.00  0.00    +0.000 NA
ATOM      6  N   UNL     1       2.153   2.942  18.688  0.00  0.00    +0.000 NA
BRANCH   4   7
ATOM      7  C   UNL     1       4.908   4.016  16.649  0.00  0.00    +0.000 C 
BRANCH   7   8
ATOM      8  O   UNL     1       6.220   4.086  17.215  0.00  0.00    +0.000 OA
BRANCH   8   9
ATOM      9  C   UNL     1       6.749   5.331  17.418  0.00  0.00    +0.000 A 
ATOM     10  C   UNL     1       6.497   6.470  16.650  0.00  0.00    +0.000 A 
ATOM     11  C   UNL     1       7.086   7.693  16.992  0.00  0.00    +0.000 A 
ATOM     12  C   UNL     1       7.931   7.775  18.097  0.00  0.00    +0.000 A 
ATOM     13 BR   UNL     1       8.711   9.432  18.562  0.00  0.00    +0.000 Br
ATOM     14  C   UNL     1       8.200   6.643  18.861  0.00  0.00    +0.000 A 
ATOM     15  C   UNL     1       7.609   5.425  18.517  0.00  0.00    +0.000 A 
ENDBRANCH   8   9
ENDBRANCH   7   8
ENDBRANCH   4   7
ENDBRANCH   1   2
BRANCH   1  16
ATOM     16  C   UNL     1       1.195   5.697  20.536  0.00  0.00    +0.000 C 
BRANCH  16  17
ATOM     17  N   UNL     1       2.029   6.861  20.909  0.00  0.00    +0.000 N 
ATOM     18  H   UNL     1       3.023   6.702  20.773  0.00  0.00    +0.000 HD
BRANCH  17  24
ATOM     19 CL   UNL     1      -1.563  12.401  22.953  0.00  0.00    +0.000 Cl
ATOM     20  C   UNL     1      -0.661  11.132  22.223  0.00  0.00    +0.000 A 
ATOM     21  C   UNL     1      -0.331  10.000  22.956  0.00  0.00    +0.000 A 
ATOM     22  C   UNL     1       0.407   8.973  22.354  0.00  0.00    +0.000 A 
ATOM     23  C   UNL     1       0.833   9.069  21.003  0.00  0.00    +0.000 A 
ATOM     24  C   UNL     1       1.614   8.093  20.304  0.00  0.00    +0.000 A 
ATOM     25  C   UNL     1       1.871   8.331  18.946  0.00  0.00    +0.000 A 
ATOM     26  C   UNL     1       1.464   9.510  18.357  0.00  0.00    +0.000 A 
ATOM     27  N   UNL     1       0.786  10.465  19.007  0.00  0.00    +0.000 NA
ATOM     28  C   UNL     1       0.466  10.240  20.285  0.00  0.00    +0.000 A 
ATOM     29  C   UNL     1      -0.263  11.241  20.899  0.00  0.00    +0.000 A 
ENDBRANCH  17  24
ENDBRANCH  16  17
ENDBRANCH   1  16
TORSDOF 7
ENDMDL
MODEL 7
REMARK VINA RESULT:      -7.4      2.982      4.386
REMARK  Name = 
REMARK  7 active torsions:
REMARK  status: ('A' for Active; 'I' for Inactive)
REMARK    1  A    between atoms: C_6  and  N_7
REMARK    2  A    between atoms: N_7  and  C_8
REMARK    3  A    between atoms: C_8  and  C_9
REMARK    4  A    between atoms: C_9  and  N_10
REMARK    5  A    between atoms: C_12  and  C_13
REMARK    6  A    between atoms: C_13  and  O_14
REMARK    7  A    between atoms: O_14  and  C_15
REMARK                            x       y       z     vdW  Elec       q    Type
REMARK                         _______ _______ _______ _____ _____    ______ ____
ROOT
ATOM      1  C   UNL     1       5.567   4.274  18.489  0.00  0.00    +0.000 C 
ENDROOT
BRANCH   1   2
ATOM      2  N   UNL     1       6.286   5.405  17.908  0.00  0.00    +0.000 N 
ATOM      3  C   UNL     1       6.970   6.398  18.540  0.00  0.00    +0.000 A 
ATOM      4  C   UNL     1       7.409   7.215  17.512  0.00  0.00    +0.000 A 
ATOM      5  N   UNL     1       6.980   6.694  16.321  0.00  0.00    +0.000 NA
ATOM      6  N   UNL     1       6.311   5.581  16.573  0.00  0.00    +0.000 NA
BRANCH   4   7
ATOM      7  C   UNL     1       8.200   8.478  17.543  0.00  0.00    +0.000 C 
BRANCH   7   8
ATOM      8  O   UNL     1       8.680   8.745  18.863  0.00  0.00    +0.000 OA
BRANCH   8   9
ATOM      9  C   UNL     1       9.197   9.988  19.104  0.00  0.00    +0.000 A 
ATOM     10  C   UNL     1       9.442  10.551  20.358  0.00  0.00    +0.000 A 
ATOM     11  C   UNL     1      10.005  11.829  20.457  0.00  0.00    +0.000 A 
ATOM     12  C   UNL     1      10.317  12.546  19.303  0.00  0.00    +0.000 A 
ATOM     13 BR   UNL     1      11.090  14.264  19.442  0.00  0.00    +0.000 Br
ATOM     14  C   UNL     1      10.063  12.000  18.048  0.00  0.00    +0.000 A 
ATOM     15  C   UNL     1       9.502  10.723  17.953  0.00  0.00    +0.000 A 
ENDBRANCH   8   9
ENDBRANCH   7   8
ENDBRANCH   4   7
ENDBRANCH   1   2
BRANCH   1  16
ATOM     16  C   UNL     1       4.100   4.277  18.056  0.00  0.00    +0.000 C 
BRANCH  16  17
ATOM     17  N   UNL     1       3.525   5.604  17.744  0.00  0.00    +0.000 N 
ATOM     18  H   UNL     1       3.015   5.624  16.866  0.00  0.00    +0.000 HD
BRANCH  17  24
ATOM     19 CL   UNL     1       0.529  11.709  18.974  0.00  0.00    +0.000 Cl
ATOM     20  C   UNL     1       1.195  10.126  18.893  0.00  0.00    +0.000 A 
ATOM     21  C   UNL     1       1.923   9.732  17.779  0.00  0.00    +0.000 A 
ATOM     22  C   UNL     1       2.460   8.440  17.720  0.00  0.00    +0.000 A 
ATOM     23  C   UNL     1       2.267   7.516  18.782  0.00  0.00    +0.000 A 
ATOM     24  C   UNL     1       2.746   6.166  18.809  0.00  0.00    +0.000 A 
ATOM     25  C   UNL     1       2.522   5.430  19.981  0.00  0.00    +0.000 A 
ATOM     26  C   UNL     1       1.782   5.972  21.011  0.00  0.00    +0.000 A 
ATOM     27  N   UNL     1       1.272   7.209  20.983  0.00  0.00    +0.000 NA
ATOM     28  C   UNL     1       1.524   7.962  19.908  0.00  0.00    +0.000 A 
ATOM     29  C   UNL     1       1.004   9.243  19.944  0.00  0.00    +0.000 A 
ENDBRANCH  17  24
ENDBRANCH  16  17
ENDBRANCH   1  16
TORSDOF 7
ENDMDL
MODEL 8
REMARK VINA RESULT:      -7.4      5.408      7.836
REMARK  Name = 
REMARK  7 active torsions:
REMARK  status: ('A' for Active; 'I' for Inactive)
REMARK    1  A    between atoms: C_6  and  N_7
REMARK    2  A    between atoms: N_7  and  C_8
REMARK    3  A    between atoms: C_8  and  C_9
REMARK    4  A    between atoms: C_9  and  N_10
REMARK    5  A    between atoms: C_12  and  C_13
REMARK    6  A    between atoms: C_13  and  O_14
REMARK    7  A    between atoms: O_14  and  C_15
REMARK                            x       y       z     vdW  Elec       q    Type
REMARK                         _______ _______ _______ _____ _____    ______ ____
ROOT
ATOM      1  C   UNL     1       8.385   7.503  18.457  0.00  0.00    +0.000 C 
ENDROOT
BRANCH   1   2
ATOM      2  N   UNL     1       7.359   6.945  17.579  0.00  0.00    +0.000 N 
ATOM      3  C   UNL     1       7.174   5.652  17.196  0.00  0.00    +0.000 A 
ATOM      4  C   UNL     1       6.091   5.706  16.335  0.00  0.00    +0.000 A 
ATOM      5  N   UNL     1       5.673   7.005  16.233  0.00  0.00    +0.000 NA
ATOM      6  N   UNL     1       6.443   7.750  17.010  0.00  0.00    +0.000 NA
BRANCH   4   7
ATOM      7  C   UNL     1       5.403   4.628  15.568  0.00  0.00    +0.000 C 
BRANCH   7   8
ATOM      8  O   UNL     1       5.243   3.456  16.372  0.00  0.00    +0.000 OA
BRANCH   8   9
ATOM      9  C   UNL     1       4.242   3.468  17.305  0.00  0.00    +0.000 A 
ATOM     10  C   UNL     1       2.876   3.601  17.047  0.00  0.00    +0.000 A 
ATOM     11  C   UNL     1       1.955   3.565  18.101  0.00  0.00    +0.000 A 
ATOM     12  C   UNL     1       2.400   3.405  19.411  0.00  0.00    +0.000 A 
ATOM     13 BR   UNL     1       1.152   3.343  20.828  0.00  0.00    +0.000 Br
ATOM     14  C   UNL     1       3.761   3.287  19.681  0.00  0.00    +0.000 A 
ATOM     15  C   UNL     1       4.677   3.320  18.626  0.00  0.00    +0.000 A 
ENDBRANCH   8   9
ENDBRANCH   7   8
ENDBRANCH   4   7
ENDBRANCH   1   2
BRANCH   1  16
ATOM     16  C   UNL     1       8.484   9.021  18.289  0.00  0.00    +0.000 C 
BRANCH  16  17
ATOM     17  N   UNL     1       8.980   9.765  19.467  0.00  0.00    +0.000 N 
ATOM     18  H   UNL     1       9.524   9.191  20.104  0.00  0.00    +0.000 HD
BRANCH  17  24
ATOM     19 CL   UNL     1      10.272  15.735  22.702  0.00  0.00    +0.000 Cl
ATOM     20  C   UNL     1      10.066  14.350  21.703  0.00  0.00    +0.000 A 
ATOM     21  C   UNL     1       9.370  13.247  22.177  0.00  0.00    +0.000 A 
ATOM     22  C   UNL     1       9.209  12.122  21.357  0.00  0.00    +0.000 A 
ATOM     23  C   UNL     1       9.754  12.085  20.046  0.00  0.00    +0.000 A 
ATOM     24  C   UNL     1       9.673  10.978  19.141  0.00  0.00    +0.000 A 
ATOM     25  C   UNL     1      10.206  11.159  17.857  0.00  0.00    +0.000 A 
ATOM     26  C   UNL     1      10.864  12.329  17.537  0.00  0.00    +0.000 A 
ATOM     27  N   UNL     1      11.006  13.353  18.386  0.00  0.00    +0.000 NA
ATOM     28  C   UNL     1      10.451  13.239  19.597  0.00  0.00    +0.000 A 
ATOM     29  C   UNL     1      10.597  14.338  20.423  0.00  0.00    +0.000 A 
ENDBRANCH  17  24
ENDBRANCH  16  17
ENDBRANCH   1  16
TORSDOF 7
ENDMDL
MODEL 9
REMARK VINA RESULT:      -7.4      2.786      4.328
REMARK  Name = 
REMARK  7 active torsions:
REMARK  status: ('A' for Active; 'I' for Inactive)
REMARK    1  A    between atoms: C_6  and  N_7
REMARK    2  A    between atoms: N_7  and  C_8
REMARK    3  A    between atoms: C_8  and  C_9
REMARK    4  A    between atoms: C_9  and  N_10
REMARK    5  A    between atoms: C_12  and  C_13
REMARK    6  A    between atoms: C_13  and  O_14
REMARK    7  A    between atoms: O_14  and  C_15
REMARK                            x       y       z     vdW  Elec       q    Type
REMARK                         _______ _______ _______ _____ _____    ______ ____
ROOT
ATOM      1  C   UNL     1       5.244   3.799  18.122  0.00  0.00    +0.000 C 
ENDROOT
BRANCH   1   2
ATOM      2  N   UNL     1       6.202   4.888  17.953  0.00  0.00    +0.000 N 
ATOM      3  C   UNL     1       6.801   5.654  18.907  0.00  0.00    +0.000 A 
ATOM      4  C   UNL     1       7.572   6.550  18.186  0.00  0.00    +0.000 A 
ATOM      5  N   UNL     1       7.411   6.297  16.851  0.00  0.00    +0.000 NA
ATOM      6  N   UNL     1       6.586   5.270  16.721  0.00  0.00    +0.000 NA
BRANCH   4   7
ATOM      7  C   UNL     1       8.456   7.660  18.644  0.00  0.00    +0.000 C 
BRANCH   7   8
ATOM      8  O   UNL     1       8.270   8.824  17.833  0.00  0.00    +0.000 OA
BRANCH   8   9
ATOM      9  C   UNL     1       8.677  10.022  18.354  0.00  0.00    +0.000 A 
ATOM     10  C   UNL     1       8.512  11.276  17.763  0.00  0.00    +0.000 A 
ATOM     11  C   UNL     1       8.952  12.429  18.426  0.00  0.00    +0.000 A 
ATOM     12  C   UNL     1       9.562  12.325  19.675  0.00  0.00    +0.000 A 
ATOM     13 BR   UNL     1      10.140  13.885  20.571  0.00  0.00    +0.000 Br
ATOM     14  C   UNL     1       9.744  11.078  20.266  0.00  0.00    +0.000 A 
ATOM     15  C   UNL     1       9.302   9.931  19.602  0.00  0.00    +0.000 A 
ENDBRANCH   8   9
ENDBRANCH   7   8
ENDBRANCH   4   7
ENDBRANCH   1   2
BRANCH   1  16
ATOM     16  C   UNL     1       3.876   4.179  17.550  0.00  0.00    +0.000 C 
BRANCH  16  17
ATOM     17  N   UNL     1       3.588   5.628  17.487  0.00  0.00    +0.000 N 
ATOM     18  H   UNL     1       3.170   5.916  16.607  0.00  0.00    +0.000 HD
BRANCH  17  24
ATOM     19 CL   UNL     1       0.600  11.633  19.156  0.00  0.00    +0.000 Cl
ATOM     20  C   UNL     1       1.271  10.061  18.964  0.00  0.00    +0.000 A 
ATOM     21  C   UNL     1       1.970   9.738  17.808  0.00  0.00    +0.000 A 
ATOM     22  C   UNL     1       2.510   8.454  17.659  0.00  0.00    +0.000 A 
ATOM     23  C   UNL     1       2.351   7.469  18.669  0.00  0.00    +0.000 A 
ATOM     24  C   UNL     1       2.836   6.123  18.603  0.00  0.00    +0.000 A 
ATOM     25  C   UNL     1       2.648   5.317  19.736  0.00  0.00    +0.000 A 
ATOM     26  C   UNL     1       1.934   5.794  20.817  0.00  0.00    +0.000 A 
ATOM     27  N   UNL     1       1.418   7.027  20.875  0.00  0.00    +0.000 NA
ATOM     28  C   UNL     1       1.638   7.844  19.840  0.00  0.00    +0.000 A 
ATOM     29  C   UNL     1       1.113   9.117  19.966  0.00  0.00    +0.000 A 
ENDBRANCH  17  24
ENDBRANCH  16  17
ENDBRANCH   1  16
TORSDOF 7
ENDMDL
