MODEL 1
REMARK VINA RESULT:      -7.0      0.000      0.000
REMARK  Name = 
REMARK  5 active torsions:
REMARK  status: ('A' for Active; 'I' for Inactive)
REMARK    1  A    between atoms: C_1  and  C_2
REMARK    2  A    between atoms: N_4  and  C_5
REMARK    3  A    between atoms: C_5  and  C_6
REMARK    4  A    between atoms: C_10  and  C_11
REMARK    5  A    between atoms: C_10  and  C_12
REMARK                            x       y       z     vdW  Elec       q    Type
REMARK                         _______ _______ _______ _____ _____    ______ ____
ROOT
ATOM      1  C   UNL     1       5.402   5.847  16.112  0.00  0.00    +0.000 C 
ATOM      2  O   UNL     1       5.168   6.989  15.717  0.00  0.00    +0.000 OA
ATOM      3  N   UNL     1       4.666   5.202  17.097  0.00  0.00    +0.000 N 
ATOM      4  C   UNL     1       4.840   3.802  17.510  0.00  0.00    +0.000 C 
ATOM      5  C   UNL     1       3.705   3.457  18.496  0.00  0.00    +0.000 C 
ATOM      6  C   UNL     1       2.642   2.592  17.809  0.00  0.00    +0.000 C 
ATOM      7  C   UNL     1       4.269   2.747  19.729  0.00  0.00    +0.000 C 
ATOM      8  C   UNL     1       3.163   4.832  18.799  0.00  0.00    +0.000 A 
ATOM      9  C   UNL     1       2.221   5.189  19.757  0.00  0.00    +0.000 A 
ATOM     10  C   UNL     1       1.832   6.526  19.849  0.00  0.00    +0.000 A 
ATOM     11  C   UNL     1       2.379   7.487  18.982  0.00  0.00    +0.000 A 
ATOM     12  C   UNL     1       3.324   7.121  18.019  0.00  0.00    +0.000 A 
ATOM     13  C   UNL     1       3.708   5.793  17.942  0.00  0.00    +0.000 A 
ENDROOT
BRANCH   1  14
ATOM     14  C   UNL     1       6.555   4.998  15.530  0.00  0.00    +0.000 C 
BRANCH  14  18
ATOM     15  C   UNL     1       4.608   3.677  11.834  0.00  0.00    +0.000 C 
ATOM     16  C   UNL     1       5.898   3.023  12.340  0.00  0.00    +0.000 C 
ATOM     17  C   UNL     1       6.118   3.310  13.848  0.00  0.00    +0.000 C 
ATOM     18  N   UNL     1       6.407   4.736  14.089  0.00  0.00    +0.000 NA
ATOM     19  C   UNL     1       7.611   5.119  13.324  0.00  0.00    +0.000 C 
ATOM     20  C   UNL     1       7.454   4.816  11.818  0.00  0.00    +0.000 C 
ATOM     21  N   UNL     1       7.071   3.420  11.525  0.00  0.00    +0.000 NA
ATOM     22  H   UNL     1       7.853   2.826  11.797  0.00  0.00    +0.000 HD
ENDBRANCH  14  18
ENDBRANCH   1  14
TORSDOF 2
ENDMDL
MODEL 2
REMARK VINA RESULT:      -6.7      3.909      6.910
REMARK  Name = 
REMARK  5 active torsions:
REMARK  status: ('A' for Active; 'I' for Inactive)
REMARK    1  A    between atoms: C_1  and  C_2
REMARK    2  A    between atoms: N_4  and  C_5
REMARK    3  A    between atoms: C_5  and  C_6
REMARK    4  A    between atoms: C_10  and  C_11
REMARK    5  A    between atoms: C_10  and  C_12
REMARK                            x       y       z     vdW  Elec       q    Type
REMARK                         _______ _______ _______ _____ _____    ______ ____
ROOT
ATOM      1  C   UNL     1       1.819   7.946  19.808  0.00  0.00    +0.000 C 
ATOM      2  O   UNL     1       2.044   7.228  20.783  0.00  0.00    +0.000 OA
ATOM      3  N   UNL     1       1.166   9.168  19.881  0.00  0.00    +0.000 N 
ATOM      4  C   UNL     1       0.984  10.104  18.762  0.00  0.00    +0.000 C 
ATOM      5  C   UNL     1       0.367  11.401  19.327  0.00  0.00    +0.000 C 
ATOM      6  C   UNL     1       1.428  12.505  19.415  0.00  0.00    +0.000 C 
ATOM      7  C   UNL     1      -0.813  11.849  18.463  0.00  0.00    +0.000 C 
ATOM      8  C   UNL     1      -0.045  10.943  20.705  0.00  0.00    +0.000 A 
ATOM      9  C   UNL     1      -0.806  11.631  21.643  0.00  0.00    +0.000 A 
ATOM     10  C   UNL     1      -1.045  11.032  22.880  0.00  0.00    +0.000 A 
ATOM     11  C   UNL     1      -0.518   9.762  23.170  0.00  0.00    +0.000 A 
ATOM     12  C   UNL     1       0.248   9.077  22.222  0.00  0.00    +0.000 A 
ATOM     13  C   UNL     1       0.474   9.677  20.996  0.00  0.00    +0.000 A 
ENDROOT
BRANCH   1  14
ATOM     14  C   UNL     1       2.261   7.552  18.380  0.00  0.00    +0.000 C 
BRANCH  14  18
ATOM     15  C   UNL     1       5.976   5.268  18.799  0.00  0.00    +0.000 C 
ATOM     16  C   UNL     1       5.260   5.396  17.450  0.00  0.00    +0.000 C 
ATOM     17  C   UNL     1       4.284   6.601  17.446  0.00  0.00    +0.000 C 
ATOM     18  N   UNL     1       3.144   6.375  18.354  0.00  0.00    +0.000 NA
ATOM     19  C   UNL     1       2.432   5.150  17.937  0.00  0.00    +0.000 C 
ATOM     20  C   UNL     1       3.374   3.927  17.889  0.00  0.00    +0.000 C 
ATOM     21  N   UNL     1       4.583   4.135  17.067  0.00  0.00    +0.000 NA
ATOM     22  H   UNL     1       4.280   4.228  16.098  0.00  0.00    +0.000 HD
ENDBRANCH  14  18
ENDBRANCH   1  14
TORSDOF 2
ENDMDL
MODEL 3
REMARK VINA RESULT:      -6.7      2.939      5.460
REMARK  Name = 
REMARK  5 active torsions:
REMARK  status: ('A' for Active; 'I' for Inactive)
REMARK    1  A    between atoms: C_1  and  C_2
REMARK    2  A    between atoms: N_4  and  C_5
REMARK    3  A    between atoms: C_5  and  C_6
REMARK    4  A    between atoms: C_10  and  C_11
REMARK    5  A    between atoms: C_10  and  C_12
REMARK                            x       y       z     vdW  Elec       q    Type
REMARK                         _______ _______ _______ _____ _____    ______ ____
ROOT
ATOM      1  C   UNL     1       2.926   6.585  19.114  0.00  0.00    +0.000 C 
ATOM      2  O   UNL     1       3.330   6.067  20.155  0.00  0.00    +0.000 OA
ATOM      3  N   UNL     1       2.165   7.745  19.071  0.00  0.00    +0.000 N 
ATOM      4  C   UNL     1       1.765   8.456  17.848  0.00  0.00    +0.000 C 
ATOM      5  C   UNL     1       1.090   9.778  18.271  0.00  0.00    +0.000 C 
ATOM      6  C   UNL     1       2.037  10.961  18.043  0.00  0.00    +0.000 C 
ATOM      7  C   UNL     1      -0.220   9.974  17.504  0.00  0.00    +0.000 C 
ATOM      8  C   UNL     1       0.883   9.533  19.746  0.00  0.00    +0.000 A 
ATOM      9  C   UNL     1       0.168  10.309  20.650  0.00  0.00    +0.000 A 
ATOM     10  C   UNL     1       0.131   9.915  21.988  0.00  0.00    +0.000 A 
ATOM     11  C   UNL     1       0.812   8.761  22.409  0.00  0.00    +0.000 A 
ATOM     12  C   UNL     1       1.532   7.986  21.495  0.00  0.00    +0.000 A 
ATOM     13  C   UNL     1       1.556   8.382  20.169  0.00  0.00    +0.000 A 
ENDROOT
BRANCH   1  14
ATOM     14  C   UNL     1       3.242   5.987  17.724  0.00  0.00    +0.000 C 
BRANCH  14  18
ATOM     15  C   UNL     1       7.555   6.212  18.460  0.00  0.00    +0.000 C 
ATOM     16  C   UNL     1       6.944   6.648  17.124  0.00  0.00    +0.000 C 
ATOM     17  C   UNL     1       5.426   6.929  17.266  0.00  0.00    +0.000 C 
ATOM     18  N   UNL     1       4.670   5.691  17.535  0.00  0.00    +0.000 NA
ATOM     19  C   UNL     1       4.904   4.737  16.432  0.00  0.00    +0.000 C 
ATOM     20  C   UNL     1       6.408   4.454  16.226  0.00  0.00    +0.000 C 
ATOM     21  N   UNL     1       7.226   5.670  16.047  0.00  0.00    +0.000 NA
ATOM     22  H   UNL     1       6.951   6.095  15.162  0.00  0.00    +0.000 HD
ENDBRANCH  14  18
ENDBRANCH   1  14
TORSDOF 2
ENDMDL
MODEL 4
REMARK VINA RESULT:      -6.5      4.099      6.166
REMARK  Name = 
REMARK  5 active torsions:
REMARK  status: ('A' for Active; 'I' for Inactive)
REMARK    1  A    between atoms: C_1  and  C_2
REMARK    2  A    between atoms: N_4  and  C_5
REMARK    3  A    between atoms: C_5  and  C_6
REMARK    4  A    between atoms: C_10  and  C_11
REMARK    5  A    between atoms: C_10  and  C_12
REMARK                            x       y       z     vdW  Elec       q    Type
REMARK                         _______ _______ _______ _____ _____    ______ ____
ROOT
ATOM      1  C   UNL     1       2.792   6.902  18.855  0.00  0.00    +0.000 C 
ATOM      2  O   UNL     1       3.014   7.055  17.654  0.00  0.00    +0.000 OA
ATOM      3  N   UNL     1       2.057   7.793  19.626  0.00  0.00    +0.000 N 
ATOM      4  C   UNL     1       1.672   7.588  21.030  0.00  0.00    +0.000 C 
ATOM      5  C   UNL     1       0.720   8.735  21.430  0.00  0.00    +0.000 C 
ATOM      6  C   UNL     1      -0.728   8.235  21.487  0.00  0.00    +0.000 C 
ATOM      7  C   UNL     1       1.144   9.332  22.774  0.00  0.00    +0.000 C 
ATOM      8  C   UNL     1       0.914   9.683  20.271  0.00  0.00    +0.000 A 
ATOM      9  C   UNL     1       0.437  10.982  20.140  0.00  0.00    +0.000 A 
ATOM     10  C   UNL     1       0.706  11.678  18.961  0.00  0.00    +0.000 A 
ATOM     11  C   UNL     1       1.439  11.070  17.927  0.00  0.00    +0.000 A 
ATOM     12  C   UNL     1       1.914   9.763  18.065  0.00  0.00    +0.000 A 
ATOM     13  C   UNL     1       1.648   9.084  19.242  0.00  0.00    +0.000 A 
ENDROOT
BRANCH   1  14
ATOM     14  C   UNL     1       3.310   5.673  19.636  0.00  0.00    +0.000 C 
BRANCH  14  18
ATOM     15  C   UNL     1       0.637   2.315  18.758  0.00  0.00    +0.000 C 
ATOM     16  C   UNL     1       1.960   2.114  19.504  0.00  0.00    +0.000 C 
ATOM     17  C   UNL     1       2.474   3.449  20.104  0.00  0.00    +0.000 C 
ATOM     18  N   UNL     1       2.882   4.394  19.049  0.00  0.00    +0.000 NA
ATOM     19  C   UNL     1       3.941   3.772  18.229  0.00  0.00    +0.000 C 
ATOM     20  C   UNL     1       3.488   2.418  17.638  0.00  0.00    +0.000 C 
ATOM     21  N   UNL     1       2.980   1.466  18.646  0.00  0.00    +0.000 NA
ATOM     22  H   UNL     1       3.765   1.204  19.241  0.00  0.00    +0.000 HD
ENDBRANCH  14  18
ENDBRANCH   1  14
TORSDOF 2
ENDMDL
MODEL 5
REMARK VINA RESULT:      -6.4      3.093      5.579
REMARK  Name = 
REMARK  5 active torsions:
REMARK  status: ('A' for Active; 'I' for Inactive)
REMARK    1  A    between atoms: C_1  and  C_2
REMARK    2  A    between atoms: N_4  and  C_5
REMARK    3  A    between atoms: C_5  and  C_6
REMARK    4  A    between atoms: C_10  and  C_11
REMARK    5  A    between atoms: C_10  and  C_12
REMARK                            x       y       z     vdW  Elec       q    Type
REMARK                         _______ _______ _______ _____ _____    ______ ____
ROOT
ATOM      1  C   UNL     1       2.444   7.714  18.422  0.00  0.00    +0.000 C 
ATOM      2  O   UNL     1       2.559   8.129  17.269  0.00  0.00    +0.000 OA
ATOM      3  N   UNL     1       1.822   8.422  19.442  0.00  0.00    +0.000 N 
ATOM      4  C   UNL     1       1.562   7.914  20.796  0.00  0.00    +0.000 C 
ATOM      5  C   UNL     1       0.700   8.958  21.535  0.00  0.00    +0.000 C 
ATOM      6  C   UNL     1      -0.755   8.485  21.626  0.00  0.00    +0.000 C 
ATOM      7  C   UNL     1       1.272   9.229  22.929  0.00  0.00    +0.000 C 
ATOM      8  C   UNL     1       0.823  10.139  20.603  0.00  0.00    +0.000 A 
ATOM      9  C   UNL     1       0.388  11.443  20.812  0.00  0.00    +0.000 A 
ATOM     10  C   UNL     1       0.573  12.381  19.796  0.00  0.00    +0.000 A 
ATOM     11  C   UNL     1       1.180  12.008  18.585  0.00  0.00    +0.000 A 
ATOM     12  C   UNL     1       1.613  10.695  18.380  0.00  0.00    +0.000 A 
ATOM     13  C   UNL     1       1.431   9.773  19.397  0.00  0.00    +0.000 A 
ENDROOT
BRANCH   1  14
ATOM     14  C   UNL     1       2.983   6.331  18.854  0.00  0.00    +0.000 C 
BRANCH  14  18
ATOM     15  C   UNL     1       5.520   5.540  15.371  0.00  0.00    +0.000 C 
ATOM     16  C   UNL     1       5.122   4.425  16.345  0.00  0.00    +0.000 C 
ATOM     17  C   UNL     1       3.879   4.828  17.180  0.00  0.00    +0.000 C 
ATOM     18  N   UNL     1       4.189   5.926  18.114  0.00  0.00    +0.000 NA
ATOM     19  C   UNL     1       5.281   5.499  19.012  0.00  0.00    +0.000 C 
ATOM     20  C   UNL     1       6.531   5.052  18.223  0.00  0.00    +0.000 C 
ATOM     21  N   UNL     1       6.258   4.018  17.206  0.00  0.00    +0.000 NA
ATOM     22  H   UNL     1       5.984   3.169  17.699  0.00  0.00    +0.000 HD
ENDBRANCH  14  18
ENDBRANCH   1  14
TORSDOF 2
ENDMDL
MODEL 6
REMARK VINA RESULT:      -6.3      4.646      7.357
REMARK  Name = 
REMARK  5 active torsions:
REMARK  status: ('A' for Active; 'I' for Inactive)
REMARK    1  A    between atoms: C_1  and  C_2
REMARK    2  A    between atoms: N_4  and  C_5
REMARK    3  A    between atoms: C_5  and  C_6
REMARK    4  A    between atoms: C_10  and  C_11
REMARK    5  A    between atoms: C_10  and  C_12
REMARK                            x       y       z     vdW  Elec       q    Type
REMARK                         _______ _______ _______ _____ _____    ______ ____
ROOT
ATOM      1  C   UNL     1       1.730   7.721  20.397  0.00  0.00    +0.000 C 
ATOM      2  O   UNL     1       1.880   7.195  21.500  0.00  0.00    +0.000 OA
ATOM      3  N   UNL     1       1.096   8.941  20.201  0.00  0.00    +0.000 N 
ATOM      4  C   UNL     1       1.001   9.655  18.920  0.00  0.00    +0.000 C 
ATOM      5  C   UNL     1       0.375  11.038  19.196  0.00  0.00    +0.000 C 
ATOM      6  C   UNL     1       1.449  12.132  19.148  0.00  0.00    +0.000 C 
ATOM      7  C   UNL     1      -0.741  11.327  18.189  0.00  0.00    +0.000 C 
ATOM      8  C   UNL     1      -0.131  10.845  20.604  0.00  0.00    +0.000 A 
ATOM      9  C   UNL     1      -0.936  11.699  21.348  0.00  0.00    +0.000 A 
ATOM     10  C   UNL     1      -1.263  11.341  22.657  0.00  0.00    +0.000 A 
ATOM     11  C   UNL     1      -0.779  10.144  23.208  0.00  0.00    +0.000 A 
ATOM     12  C   UNL     1       0.033   9.290  22.455  0.00  0.00    +0.000 A 
ATOM     13  C   UNL     1       0.345   9.651  21.156  0.00  0.00    +0.000 A 
ENDROOT
BRANCH   1  14
ATOM     14  C   UNL     1       2.253   7.067  19.098  0.00  0.00    +0.000 C 
BRANCH  14  18
ATOM     15  C   UNL     1       2.706   3.096  20.891  0.00  0.00    +0.000 C 
ATOM     16  C   UNL     1       3.609   3.568  19.746  0.00  0.00    +0.000 C 
ATOM     17  C   UNL     1       3.587   5.113  19.616  0.00  0.00    +0.000 C 
ATOM     18  N   UNL     1       2.271   5.597  19.159  0.00  0.00    +0.000 NA
ATOM     19  C   UNL     1       1.956   4.978  17.856  0.00  0.00    +0.000 C 
ATOM     20  C   UNL     1       2.003   3.436  17.927  0.00  0.00    +0.000 C 
ATOM     21  N   UNL     1       3.268   2.900  18.468  0.00  0.00    +0.000 NA
ATOM     22  H   UNL     1       4.003   3.120  17.797  0.00  0.00    +0.000 HD
ENDBRANCH  14  18
ENDBRANCH   1  14
TORSDOF 2
ENDMDL
MODEL 7
REMARK VINA RESULT:      -6.2      3.955      7.097
REMARK  Name = 
REMARK  5 active torsions:
REMARK  status: ('A' for Active; 'I' for Inactive)
REMARK    1  A    between atoms: C_1  and  C_2
REMARK    2  A    between atoms: N_4  and  C_5
REMARK    3  A    between atoms: C_5  and  C_6
REMARK    4  A    between atoms: C_10  and  C_11
REMARK    5  A    between atoms: C_10  and  C_12
REMARK                            x       y       z     vdW  Elec       q    Type
REMARK                         _______ _______ _______ _____ _____    ______ ____
ROOT
ATOM      1  C   UNL     1       1.957   7.382  19.432  0.00  0.00    +0.000 C 
ATOM      2  O   UNL     1       1.270   7.564  20.437  0.00  0.00    +0.000 OA
ATOM      3  N   UNL     1       2.499   6.154  19.075  0.00  0.00    +0.000 N 
ATOM      4  C   UNL     1       3.222   5.873  17.827  0.00  0.00    +0.000 C 
ATOM      5  C   UNL     1       3.486   4.354  17.767  0.00  0.00    +0.000 C 
ATOM      6  C   UNL     1       2.533   3.683  16.771  0.00  0.00    +0.000 C 
ATOM      7  C   UNL     1       4.945   4.083  17.390  0.00  0.00    +0.000 C 
ATOM      8  C   UNL     1       3.153   3.951  19.183  0.00  0.00    +0.000 A 
ATOM      9  C   UNL     1       3.352   2.717  19.790  0.00  0.00    +0.000 A 
ATOM     10  C   UNL     1       2.937   2.546  21.111  0.00  0.00    +0.000 A 
ATOM     11  C   UNL     1       2.325   3.601  21.806  0.00  0.00    +0.000 A 
ATOM     12  C   UNL     1       2.126   4.840  21.189  0.00  0.00    +0.000 A 
ATOM     13  C   UNL     1       2.547   5.001  19.880  0.00  0.00    +0.000 A 
ENDROOT
BRANCH   1  14
ATOM     14  C   UNL     1       2.282   8.525  18.443  0.00  0.00    +0.000 C 
BRANCH  14  18
ATOM     15  C   UNL     1      -0.908  11.080  20.021  0.00  0.00    +0.000 C 
ATOM     16  C   UNL     1      -0.580  11.036  18.525  0.00  0.00    +0.000 C 
ATOM     17  C   UNL     1       0.214   9.755  18.162  0.00  0.00    +0.000 C 
ATOM     18  N   UNL     1       1.567   9.773  18.750  0.00  0.00    +0.000 NA
ATOM     19  C   UNL     1       2.287  10.966  18.261  0.00  0.00    +0.000 C 
ATOM     20  C   UNL     1       1.514  12.268  18.567  0.00  0.00    +0.000 C 
ATOM     21  N   UNL     1       0.120  12.264  18.081  0.00  0.00    +0.000 NA
ATOM     22  H   UNL     1       0.152  12.252  17.062  0.00  0.00    +0.000 HD
ENDBRANCH  14  18
ENDBRANCH   1  14
TORSDOF 2
ENDMDL
MODEL 8
REMARK VINA RESULT:      -6.2      4.187      7.601
REMARK  Name = 
REMARK  5 active torsions:
REMARK  status: ('A' for Active; 'I' for Inactive)
REMARK    1  A    between atoms: C_1  and  C_2
REMARK    2  A    between atoms: N_4  and  C_5
REMARK    3  A    between atoms: C_5  and  C_6
REMARK    4  A    between atoms: C_10  and  C_11
REMARK    5  A    between atoms: C_10  and  C_12
REMARK                            x       y       z     vdW  Elec       q    Type
REMARK                         _______ _______ _______ _____ _____    ______ ____
ROOT
ATOM      1  C   UNL     1       1.750   7.024  20.154  0.00  0.00    +0.000 C 
ATOM      2  O   UNL     1       0.840   6.803  20.953  0.00  0.00    +0.000 OA
ATOM      3  N   UNL     1       2.628   6.052  19.693  0.00  0.00    +0.000 N 
ATOM      4  C   UNL     1       3.649   6.251  18.654  0.00  0.00    +0.000 C 
ATOM      5  C   UNL     1       4.269   4.875  18.332  0.00  0.00    +0.000 C 
ATOM      6  C   UNL     1       3.737   4.346  16.995  0.00  0.00    +0.000 C 
ATOM      7  C   UNL     1       5.796   4.972  18.309  0.00  0.00    +0.000 C 
ATOM      8  C   UNL     1       3.743   4.050  19.482  0.00  0.00    +0.000 A 
ATOM      9  C   UNL     1       4.091   2.751  19.832  0.00  0.00    +0.000 A 
ATOM     10  C   UNL     1       3.454   2.158  20.923  0.00  0.00    +0.000 A 
ATOM     11  C   UNL     1       2.476   2.863  21.644  0.00  0.00    +0.000 A 
ATOM     12  C   UNL     1       2.129   4.169  21.286  0.00  0.00    +0.000 A 
ATOM     13  C   UNL     1       2.772   4.750  20.206  0.00  0.00    +0.000 A 
ENDROOT
BRANCH   1  14
ATOM     14  C   UNL     1       2.003   8.431  19.565  0.00  0.00    +0.000 C 
BRANCH  14  18
ATOM     15  C   UNL     1      -1.800  10.232  18.344  0.00  0.00    +0.000 C 
ATOM     16  C   UNL     1      -0.527  11.071  18.498  0.00  0.00    +0.000 C 
ATOM     17  C   UNL     1       0.741  10.178  18.460  0.00  0.00    +0.000 C 
ATOM     18  N   UNL     1       0.826   9.310  19.649  0.00  0.00    +0.000 NA
ATOM     19  C   UNL     1       0.842  10.154  20.861  0.00  0.00    +0.000 C 
ATOM     20  C   UNL     1      -0.385  11.090  20.924  0.00  0.00    +0.000 C 
ATOM     21  N   UNL     1      -0.570  11.916  19.715  0.00  0.00    +0.000 NA
ATOM     22  H   UNL     1       0.212  12.568  19.668  0.00  0.00    +0.000 HD
ENDBRANCH  14  18
ENDBRANCH   1  14
TORSDOF 2
ENDMDL
MODEL 9
REMARK VINA RESULT:      -6.1      3.484      7.579
REMARK  Name = 
REMARK  5 active torsions:
REMARK  status: ('A' for Active; 'I' for Inactive)
REMARK    1  A    between atoms: C_1  and  C_2
REMARK    2  A    between atoms: N_4  and  C_5
REMARK    3  A    between atoms: C_5  and  C_6
REMARK    4  A    between atoms: C_10  and  C_11
REMARK    5  A    between atoms: C_10  and  C_12
REMARK                            x       y       z     vdW  Elec       q    Type
REMARK                         _______ _______ _______ _____ _____    ______ ____
ROOT
ATOM      1  C   UNL     1       2.608   7.972  18.422  0.00  0.00    +0.000 C 
ATOM      2  O   UNL     1       3.291   8.869  17.928  0.00  0.00    +0.000 OA
ATOM      3  N   UNL     1       2.874   6.619  18.264  0.00  0.00    +0.000 N 
ATOM      4  C   UNL     1       2.155   5.526  18.933  0.00  0.00    +0.000 C 
ATOM      5  C   UNL     1       2.891   4.209  18.609  0.00  0.00    +0.000 C 
ATOM      6  C   UNL     1       3.703   3.737  19.820  0.00  0.00    +0.000 C 
ATOM      7  C   UNL     1       1.892   3.135  18.172  0.00  0.00    +0.000 C 
ATOM      8  C   UNL     1       3.803   4.660  17.494  0.00  0.00    +0.000 A 
ATOM      9  C   UNL     1       4.608   3.874  16.677  0.00  0.00    +0.000 A 
ATOM     10  C   UNL     1       5.407   4.503  15.721  0.00  0.00    +0.000 A 
ATOM     11  C   UNL     1       5.400   5.902  15.596  0.00  0.00    +0.000 A 
ATOM     12  C   UNL     1       4.590   6.686  16.423  0.00  0.00    +0.000 A 
ATOM     13  C   UNL     1       3.796   6.052  17.363  0.00  0.00    +0.000 A 
ENDROOT
BRANCH   1  14
ATOM     14  C   UNL     1       1.368   8.272  19.295  0.00  0.00    +0.000 C 
BRANCH  14  18
ATOM     15  C   UNL     1       1.657  12.478  20.489  0.00  0.00    +0.000 C 
ATOM     16  C   UNL     1       0.406  11.643  20.784  0.00  0.00    +0.000 C 
ATOM     17  C   UNL     1       0.715  10.126  20.711  0.00  0.00    +0.000 C 
ATOM     18  N   UNL     1       1.022   9.702  19.333  0.00  0.00    +0.000 NA
ATOM     19  C   UNL     1      -0.128  10.023  18.463  0.00  0.00    +0.000 C 
ATOM     20  C   UNL     1      -0.498  11.521  18.531  0.00  0.00    +0.000 C 
ATOM     21  N   UNL     1      -0.724  12.020  19.902  0.00  0.00    +0.000 NA
ATOM     22  H   UNL     1      -1.562  11.562  20.258  0.00  0.00    +0.000 HD
ENDBRANCH  14  18
ENDBRANCH   1  14
TORSDOF 2
ENDMDL
