MODEL 1
REMARK VINA RESULT:      -6.2      0.000      0.000
REMARK  Name = 
REMARK  8 active torsions:
REMARK  status: ('A' for Active; 'I' for Inactive)
REMARK    1  A    between atoms: C_1  and  C_2
REMARK    2  A    between atoms: C_2  and  C_3
REMARK    3  A    between atoms: C_3  and  C_4
REMARK    4  A    between atoms: C_4  and  C_5
REMARK    5  A    between atoms: C_5  and  C_6
REMARK    6  A    between atoms: C_6  and  C_7
REMARK    7  A    between atoms: C_9  and  C_10
REMARK    8  A    between atoms: C_10  and  C_11
REMARK                            x       y       z     vdW  Elec       q    Type
REMARK                         _______ _______ _______ _____ _____    ______ ____
ROOT
ATOM      1  C   UNL     1       6.595   4.643  13.629  0.00  0.00    +0.000 C 
ATOM      2  C   UNL     1       6.369   3.689  14.773  0.00  0.00    +0.000 C 
ATOM      3  C   UNL     1       6.742   4.556  15.954  0.00  0.00    +0.000 C 
ATOM      4  O   UNL     1       7.753   5.454  15.463  0.00  0.00    +0.000 OA
ATOM      5  O   UNL     1       7.826   5.266  14.000  0.00  0.00    +0.000 OA
ENDROOT
BRANCH   1   6
ATOM      6  C   UNL     1       6.733   3.974  12.269  0.00  0.00    +0.000 C 
BRANCH   6   7
ATOM      7  C   UNL     1       5.593   2.992  12.001  0.00  0.00    +0.000 C 
BRANCH   7   8
ATOM      8  C   UNL     1       4.262   3.720  11.842  0.00  0.00    +0.000 C 
BRANCH   8   9
ATOM      9  C   UNL     1       3.422   3.087  10.734  0.00  0.00    +0.000 C 
BRANCH   9  11
ATOM     10  C   UNL     1       2.274   4.763   9.252  0.00  0.00    +0.000 C 
ATOM     11  C   UNL     1       3.510   3.899   9.443  0.00  0.00    +0.000 C 
ENDBRANCH   9  11
ENDBRANCH   8   9
ENDBRANCH   7   8
ENDBRANCH   6   7
ENDBRANCH   1   6
BRANCH   3  12
ATOM     12  C   UNL     1       5.546   5.377  16.458  0.00  0.00    +0.000 C 
BRANCH  12  13
ATOM     13  C   UNL     1       5.122   5.036  17.863  0.00  0.00    +0.000 C 
ATOM     14  C   UNL     1       5.876   5.188  18.952  0.00  0.00    +0.000 C 
ATOM     15 BR   UNL     1       7.603   5.871  19.019  0.00  0.00    +0.000 Br
ENDBRANCH  12  13
ENDBRANCH   3  12
TORSDOF 7
ENDMDL
MODEL 2
REMARK VINA RESULT:      -6.2      4.518      6.832
REMARK  Name = 
REMARK  8 active torsions:
REMARK  status: ('A' for Active; 'I' for Inactive)
REMARK    1  A    between atoms: C_1  and  C_2
REMARK    2  A    between atoms: C_2  and  C_3
REMARK    3  A    between atoms: C_3  and  C_4
REMARK    4  A    between atoms: C_4  and  C_5
REMARK    5  A    between atoms: C_5  and  C_6
REMARK    6  A    between atoms: C_6  and  C_7
REMARK    7  A    between atoms: C_9  and  C_10
REMARK    8  A    between atoms: C_10  and  C_11
REMARK                            x       y       z     vdW  Elec       q    Type
REMARK                         _______ _______ _______ _____ _____    ______ ____
ROOT
ATOM      1  C   UNL     1       3.683   3.946  17.299  0.00  0.00    +0.000 C 
ATOM      2  C   UNL     1       3.421   5.379  17.684  0.00  0.00    +0.000 C 
ATOM      3  C   UNL     1       4.789   5.804  18.171  0.00  0.00    +0.000 C 
ATOM      4  O   UNL     1       5.383   4.615  18.721  0.00  0.00    +0.000 OA
ATOM      5  O   UNL     1       4.489   3.488  18.386  0.00  0.00    +0.000 OA
ENDROOT
BRANCH   1   6
ATOM      6  C   UNL     1       2.430   3.089  17.176  0.00  0.00    +0.000 C 
BRANCH   6   7
ATOM      7  C   UNL     1       2.185   2.258  18.433  0.00  0.00    +0.000 C 
BRANCH   7   8
ATOM      8  C   UNL     1       0.825   2.574  19.050  0.00  0.00    +0.000 C 
BRANCH   8   9
ATOM      9  C   UNL     1       0.898   3.824  19.924  0.00  0.00    +0.000 C 
BRANCH   9  11
ATOM     10  C   UNL     1       1.781   2.589  21.928  0.00  0.00    +0.000 C 
ATOM     11  C   UNL     1       2.031   3.719  20.943  0.00  0.00    +0.000 C 
ENDBRANCH   9  11
ENDBRANCH   8   9
ENDBRANCH   7   8
ENDBRANCH   6   7
ENDBRANCH   1   6
BRANCH   3  12
ATOM     12  C   UNL     1       5.668   6.317  17.022  0.00  0.00    +0.000 C 
BRANCH  12  13
ATOM     13  C   UNL     1       6.942   5.536  16.835  0.00  0.00    +0.000 C 
ATOM     14  C   UNL     1       7.181   4.680  15.840  0.00  0.00    +0.000 C 
ATOM     15 BR   UNL     1       6.033   4.260  14.440  0.00  0.00    +0.000 Br
ENDBRANCH  12  13
ENDBRANCH   3  12
TORSDOF 7
ENDMDL
MODEL 3
REMARK VINA RESULT:      -6.1      4.169      6.943
REMARK  Name = 
REMARK  8 active torsions:
REMARK  status: ('A' for Active; 'I' for Inactive)
REMARK    1  A    between atoms: C_1  and  C_2
REMARK    2  A    between atoms: C_2  and  C_3
REMARK    3  A    between atoms: C_3  and  C_4
REMARK    4  A    between atoms: C_4  and  C_5
REMARK    5  A    between atoms: C_5  and  C_6
REMARK    6  A    between atoms: C_6  and  C_7
REMARK    7  A    between atoms: C_9  and  C_10
REMARK    8  A    between atoms: C_10  and  C_11
REMARK                            x       y       z     vdW  Elec       q    Type
REMARK                         _______ _______ _______ _____ _____    ______ ____
ROOT
ATOM      1  C   UNL     1       4.245   3.348  17.962  0.00  0.00    +0.000 C 
ATOM      2  C   UNL     1       3.881   4.806  18.062  0.00  0.00    +0.000 C 
ATOM      3  C   UNL     1       5.145   5.381  18.662  0.00  0.00    +0.000 C 
ATOM      4  O   UNL     1       5.688   4.331  19.482  0.00  0.00    +0.000 OA
ATOM      5  O   UNL     1       4.892   3.116  19.214  0.00  0.00    +0.000 OA
ENDROOT
BRANCH   1   6
ATOM      6  C   UNL     1       3.054   2.412  17.804  0.00  0.00    +0.000 C 
BRANCH   6   7
ATOM      7  C   UNL     1       2.526   1.933  19.154  0.00  0.00    +0.000 C 
BRANCH   7   8
ATOM      8  C   UNL     1       1.190   2.589  19.491  0.00  0.00    +0.000 C 
BRANCH   8   9
ATOM      9  C   UNL     1       1.135   2.994  20.963  0.00  0.00    +0.000 C 
BRANCH   9  11
ATOM     10  C   UNL     1       1.709   5.430  20.721  0.00  0.00    +0.000 C 
ATOM     11  C   UNL     1       2.156   4.086  21.274  0.00  0.00    +0.000 C 
ENDBRANCH   9  11
ENDBRANCH   8   9
ENDBRANCH   7   8
ENDBRANCH   6   7
ENDBRANCH   1   6
BRANCH   3  12
ATOM     12  C   UNL     1       6.170   5.754  17.583  0.00  0.00    +0.000 C 
BRANCH  12  13
ATOM     13  C   UNL     1       5.558   6.340  16.338  0.00  0.00    +0.000 C 
ATOM     14  C   UNL     1       5.526   5.747  15.144  0.00  0.00    +0.000 C 
ATOM     15 BR   UNL     1       6.193   4.064  14.723  0.00  0.00    +0.000 Br
ENDBRANCH  12  13
ENDBRANCH   3  12
TORSDOF 7
ENDMDL
MODEL 4
REMARK VINA RESULT:      -6.1      1.563      1.795
REMARK  Name = 
REMARK  8 active torsions:
REMARK  status: ('A' for Active; 'I' for Inactive)
REMARK    1  A    between atoms: C_1  and  C_2
REMARK    2  A    between atoms: C_2  and  C_3
REMARK    3  A    between atoms: C_3  and  C_4
REMARK    4  A    between atoms: C_4  and  C_5
REMARK    5  A    between atoms: C_5  and  C_6
REMARK    6  A    between atoms: C_6  and  C_7
REMARK    7  A    between atoms: C_9  and  C_10
REMARK    8  A    between atoms: C_10  and  C_11
REMARK                            x       y       z     vdW  Elec       q    Type
REMARK                         _______ _______ _______ _____ _____    ______ ____
ROOT
ATOM      1  C   UNL     1       5.755   4.824  14.959  0.00  0.00    +0.000 C 
ATOM      2  C   UNL     1       6.183   4.075  16.194  0.00  0.00    +0.000 C 
ATOM      3  C   UNL     1       7.095   5.089  16.848  0.00  0.00    +0.000 C 
ATOM      4  O   UNL     1       7.678   5.832  15.763  0.00  0.00    +0.000 OA
ATOM      5  O   UNL     1       6.981   5.415  14.529  0.00  0.00    +0.000 OA
ENDROOT
BRANCH   1   6
ATOM      6  C   UNL     1       5.179   3.944  13.858  0.00  0.00    +0.000 C 
BRANCH   6   7
ATOM      7  C   UNL     1       6.189   3.703  12.738  0.00  0.00    +0.000 C 
BRANCH   7   8
ATOM      8  C   UNL     1       5.657   2.702  11.717  0.00  0.00    +0.000 C 
BRANCH   8   9
ATOM      9  C   UNL     1       4.174   2.940  11.440  0.00  0.00    +0.000 C 
BRANCH   9  11
ATOM     10  C   UNL     1       2.763   3.861   9.573  0.00  0.00    +0.000 C 
ATOM     11  C   UNL     1       3.974   4.096  10.462  0.00  0.00    +0.000 C 
ENDBRANCH   9  11
ENDBRANCH   8   9
ENDBRANCH   7   8
ENDBRANCH   6   7
ENDBRANCH   1   6
BRANCH   3  12
ATOM     12  C   UNL     1       6.318   6.053  17.754  0.00  0.00    +0.000 C 
BRANCH  12  13
ATOM     13  C   UNL     1       5.764   5.408  18.997  0.00  0.00    +0.000 C 
ATOM     14  C   UNL     1       4.473   5.166  19.229  0.00  0.00    +0.000 C 
ATOM     15 BR   UNL     1       3.054   5.532  18.087  0.00  0.00    +0.000 Br
ENDBRANCH  12  13
ENDBRANCH   3  12
TORSDOF 7
ENDMDL
MODEL 5
REMARK VINA RESULT:      -6.1      3.019      4.275
REMARK  Name = 
REMARK  8 active torsions:
REMARK  status: ('A' for Active; 'I' for Inactive)
REMARK    1  A    between atoms: C_1  and  C_2
REMARK    2  A    between atoms: C_2  and  C_3
REMARK    3  A    between atoms: C_3  and  C_4
REMARK    4  A    between atoms: C_4  and  C_5
REMARK    5  A    between atoms: C_5  and  C_6
REMARK    6  A    between atoms: C_6  and  C_7
REMARK    7  A    between atoms: C_9  and  C_10
REMARK    8  A    between atoms: C_10  and  C_11
REMARK                            x       y       z     vdW  Elec       q    Type
REMARK                         _______ _______ _______ _____ _____    ______ ____
ROOT
ATOM      1  C   UNL     1       4.659   5.399  16.966  0.00  0.00    +0.000 C 
ATOM      2  C   UNL     1       4.175   3.977  16.846  0.00  0.00    +0.000 C 
ATOM      3  C   UNL     1       3.927   3.630  18.297  0.00  0.00    +0.000 C 
ATOM      4  O   UNL     1       4.889   4.398  19.041  0.00  0.00    +0.000 OA
ATOM      5  O   UNL     1       5.540   5.319  18.088  0.00  0.00    +0.000 OA
ENDROOT
BRANCH   1   6
ATOM      6  C   UNL     1       5.408   5.914  15.745  0.00  0.00    +0.000 C 
BRANCH   6   7
ATOM      7  C   UNL     1       6.746   5.202  15.557  0.00  0.00    +0.000 C 
BRANCH   7   8
ATOM      8  C   UNL     1       6.936   4.751  14.112  0.00  0.00    +0.000 C 
BRANCH   8   9
ATOM      9  C   UNL     1       5.829   3.785  13.691  0.00  0.00    +0.000 C 
BRANCH   9  11
ATOM     10  C   UNL     1       4.629   3.199  11.561  0.00  0.00    +0.000 C 
ATOM     11  C   UNL     1       5.983   3.373  12.229  0.00  0.00    +0.000 C 
ENDBRANCH   9  11
ENDBRANCH   8   9
ENDBRANCH   7   8
ENDBRANCH   6   7
ENDBRANCH   1   6
BRANCH   3  12
ATOM     12  C   UNL     1       2.514   4.029  18.744  0.00  0.00    +0.000 C 
BRANCH  12  13
ATOM     13  C   UNL     1       2.486   4.874  19.991  0.00  0.00    +0.000 C 
ATOM     14  C   UNL     1       2.174   4.435  21.211  0.00  0.00    +0.000 C 
ATOM     15 BR   UNL     1       1.726   2.694  21.682  0.00  0.00    +0.000 Br
ENDBRANCH  12  13
ENDBRANCH   3  12
TORSDOF 7
ENDMDL
MODEL 6
REMARK VINA RESULT:      -6.1      2.877      3.858
REMARK  Name = 
REMARK  8 active torsions:
REMARK  status: ('A' for Active; 'I' for Inactive)
REMARK    1  A    between atoms: C_1  and  C_2
REMARK    2  A    between atoms: C_2  and  C_3
REMARK    3  A    between atoms: C_3  and  C_4
REMARK    4  A    between atoms: C_4  and  C_5
REMARK    5  A    between atoms: C_5  and  C_6
REMARK    6  A    between atoms: C_6  and  C_7
REMARK    7  A    between atoms: C_9  and  C_10
REMARK    8  A    between atoms: C_10  and  C_11
REMARK                            x       y       z     vdW  Elec       q    Type
REMARK                         _______ _______ _______ _____ _____    ______ ____
ROOT
ATOM      1  C   UNL     1       5.290   5.108  16.848  0.00  0.00    +0.000 C 
ATOM      2  C   UNL     1       4.303   3.974  16.942  0.00  0.00    +0.000 C 
ATOM      3  C   UNL     1       4.425   3.602  18.403  0.00  0.00    +0.000 C 
ATOM      4  O   UNL     1       5.787   3.898  18.758  0.00  0.00    +0.000 OA
ATOM      5  O   UNL     1       6.389   4.611  17.613  0.00  0.00    +0.000 OA
ENDROOT
BRANCH   1   6
ATOM      6  C   UNL     1       5.740   5.434  15.430  0.00  0.00    +0.000 C 
BRANCH   6   7
ATOM      7  C   UNL     1       5.517   4.260  14.480  0.00  0.00    +0.000 C 
BRANCH   7   8
ATOM      8  C   UNL     1       6.570   4.232  13.376  0.00  0.00    +0.000 C 
BRANCH   8   9
ATOM      9  C   UNL     1       6.120   3.349  12.214  0.00  0.00    +0.000 C 
BRANCH   9  11
ATOM     10  C   UNL     1       4.028   3.476  10.824  0.00  0.00    +0.000 C 
ATOM     11  C   UNL     1       4.602   3.184  12.201  0.00  0.00    +0.000 C 
ENDBRANCH   9  11
ENDBRANCH   8   9
ENDBRANCH   7   8
ENDBRANCH   6   7
ENDBRANCH   1   6
BRANCH   3  12
ATOM     12  C   UNL     1       3.486   4.438  19.284  0.00  0.00    +0.000 C 
BRANCH  12  13
ATOM     13  C   UNL     1       2.024   4.234  18.981  0.00  0.00    +0.000 C 
ATOM     14  C   UNL     1       1.157   3.597  19.768  0.00  0.00    +0.000 C 
ATOM     15 BR   UNL     1       1.516   2.833  21.424  0.00  0.00    +0.000 Br
ENDBRANCH  12  13
ENDBRANCH   3  12
TORSDOF 7
ENDMDL
MODEL 7
REMARK VINA RESULT:      -6.0      1.985      2.480
REMARK  Name = 
REMARK  8 active torsions:
REMARK  status: ('A' for Active; 'I' for Inactive)
REMARK    1  A    between atoms: C_1  and  C_2
REMARK    2  A    between atoms: C_2  and  C_3
REMARK    3  A    between atoms: C_3  and  C_4
REMARK    4  A    between atoms: C_4  and  C_5
REMARK    5  A    between atoms: C_5  and  C_6
REMARK    6  A    between atoms: C_6  and  C_7
REMARK    7  A    between atoms: C_9  and  C_10
REMARK    8  A    between atoms: C_10  and  C_11
REMARK                            x       y       z     vdW  Elec       q    Type
REMARK                         _______ _______ _______ _____ _____    ______ ____
ROOT
ATOM      1  C   UNL     1       6.350   5.373  15.381  0.00  0.00    +0.000 C 
ATOM      2  C   UNL     1       5.703   4.312  16.232  0.00  0.00    +0.000 C 
ATOM      3  C   UNL     1       5.972   4.848  17.621  0.00  0.00    +0.000 C 
ATOM      4  O   UNL     1       7.219   5.558  17.519  0.00  0.00    +0.000 OA
ATOM      5  O   UNL     1       7.569   5.617  16.085  0.00  0.00    +0.000 OA
ENDROOT
BRANCH   1   6
ATOM      6  C   UNL     1       6.646   4.939  13.952  0.00  0.00    +0.000 C 
BRANCH   6   7
ATOM      7  C   UNL     1       5.774   3.760  13.524  0.00  0.00    +0.000 C 
BRANCH   7   8
ATOM      8  C   UNL     1       6.273   3.146  12.220  0.00  0.00    +0.000 C 
BRANCH   8   9
ATOM      9  C   UNL     1       5.111   2.595  11.396  0.00  0.00    +0.000 C 
BRANCH   9  11
ATOM     10  C   UNL     1       3.176   3.444  10.033  0.00  0.00    +0.000 C 
ATOM     11  C   UNL     1       3.959   3.595  11.328  0.00  0.00    +0.000 C 
ENDBRANCH   9  11
ENDBRANCH   8   9
ENDBRANCH   7   8
ENDBRANCH   6   7
ENDBRANCH   1   6
BRANCH   3  12
ATOM     12  C   UNL     1       4.877   5.822  18.077  0.00  0.00    +0.000 C 
BRANCH  12  13
ATOM     13  C   UNL     1       4.168   5.396  19.336  0.00  0.00    +0.000 C 
ATOM     14  C   UNL     1       2.964   4.825  19.385  0.00  0.00    +0.000 C 
ATOM     15 BR   UNL     1       1.881   4.394  17.937  0.00  0.00    +0.000 Br
ENDBRANCH  12  13
ENDBRANCH   3  12
TORSDOF 7
ENDMDL
MODEL 8
REMARK VINA RESULT:      -6.0      3.029      6.253
REMARK  Name = 
REMARK  8 active torsions:
REMARK  status: ('A' for Active; 'I' for Inactive)
REMARK    1  A    between atoms: C_1  and  C_2
REMARK    2  A    between atoms: C_2  and  C_3
REMARK    3  A    between atoms: C_3  and  C_4
REMARK    4  A    between atoms: C_4  and  C_5
REMARK    5  A    between atoms: C_5  and  C_6
REMARK    6  A    between atoms: C_6  and  C_7
REMARK    7  A    between atoms: C_9  and  C_10
REMARK    8  A    between atoms: C_10  and  C_11
REMARK                            x       y       z     vdW  Elec       q    Type
REMARK                         _______ _______ _______ _____ _____    ______ ____
ROOT
ATOM      1  C   UNL     1       5.828   4.358  17.447  0.00  0.00    +0.000 C 
ATOM      2  C   UNL     1       5.332   5.487  16.581  0.00  0.00    +0.000 C 
ATOM      3  C   UNL     1       6.202   5.318  15.356  0.00  0.00    +0.000 C 
ATOM      4  O   UNL     1       7.444   4.778  15.843  0.00  0.00    +0.000 OA
ATOM      5  O   UNL     1       7.242   4.445  17.268  0.00  0.00    +0.000 OA
ENDROOT
BRANCH   1   6
ATOM      6  C   UNL     1       5.475   4.495  18.922  0.00  0.00    +0.000 C 
BRANCH   6   7
ATOM      7  C   UNL     1       4.498   5.643  19.167  0.00  0.00    +0.000 C 
BRANCH   7   8
ATOM      8  C   UNL     1       3.138   5.124  19.625  0.00  0.00    +0.000 C 
BRANCH   8   9
ATOM      9  C   UNL     1       2.077   5.344  18.548  0.00  0.00    +0.000 C 
BRANCH   9  11
ATOM     10  C   UNL     1       1.569   2.885  18.422  0.00  0.00    +0.000 C 
ATOM     11  C   UNL     1       1.957   4.127  17.635  0.00  0.00    +0.000 C 
ENDBRANCH   9  11
ENDBRANCH   8   9
ENDBRANCH   7   8
ENDBRANCH   6   7
ENDBRANCH   1   6
BRANCH   3  12
ATOM     12  C   UNL     1       5.588   4.333  14.351  0.00  0.00    +0.000 C 
BRANCH  12  13
ATOM     13  C   UNL     1       6.535   3.906  13.261  0.00  0.00    +0.000 C 
ATOM     14  C   UNL     1       6.172   3.405  12.079  0.00  0.00    +0.000 C 
ATOM     15 BR   UNL     1       4.435   3.135  11.476  0.00  0.00    +0.000 Br
ENDBRANCH  12  13
ENDBRANCH   3  12
TORSDOF 7
ENDMDL
MODEL 9
REMARK VINA RESULT:      -6.0      5.046      6.715
REMARK  Name = 
REMARK  8 active torsions:
REMARK  status: ('A' for Active; 'I' for Inactive)
REMARK    1  A    between atoms: C_1  and  C_2
REMARK    2  A    between atoms: C_2  and  C_3
REMARK    3  A    between atoms: C_3  and  C_4
REMARK    4  A    between atoms: C_4  and  C_5
REMARK    5  A    between atoms: C_5  and  C_6
REMARK    6  A    between atoms: C_6  and  C_7
REMARK    7  A    between atoms: C_9  and  C_10
REMARK    8  A    between atoms: C_10  and  C_11
REMARK                            x       y       z     vdW  Elec       q    Type
REMARK                         _______ _______ _______ _____ _____    ______ ____
ROOT
ATOM      1  C   UNL     1       4.188   3.797  17.710  0.00  0.00    +0.000 C 
ATOM      2  C   UNL     1       3.201   4.927  17.573  0.00  0.00    +0.000 C 
ATOM      3  C   UNL     1       4.010   6.086  18.110  0.00  0.00    +0.000 C 
ATOM      4  O   UNL     1       4.887   5.514  19.096  0.00  0.00    +0.000 OA
ATOM      5  O   UNL     1       4.750   4.046  18.999  0.00  0.00    +0.000 OA
ENDROOT
BRANCH   1   6
ATOM      6  C   UNL     1       3.564   2.408  17.667  0.00  0.00    +0.000 C 
BRANCH   6   7
ATOM      7  C   UNL     1       3.143   1.933  19.056  0.00  0.00    +0.000 C 
BRANCH   7   8
ATOM      8  C   UNL     1       1.629   2.017  19.235  0.00  0.00    +0.000 C 
BRANCH   8   9
ATOM      9  C   UNL     1       1.271   2.642  20.581  0.00  0.00    +0.000 C 
BRANCH   9  11
ATOM     10  C   UNL     1       2.034   4.994  21.038  0.00  0.00    +0.000 C 
ATOM     11  C   UNL     1       0.944   4.126  20.431  0.00  0.00    +0.000 C 
ENDBRANCH   9  11
ENDBRANCH   8   9
ENDBRANCH   7   8
ENDBRANCH   6   7
ENDBRANCH   1   6
BRANCH   3  12
ATOM     12  C   UNL     1       4.855   6.748  17.013  0.00  0.00    +0.000 C 
BRANCH  12  13
ATOM     13  C   UNL     1       6.336   6.722  17.286  0.00  0.00    +0.000 C 
ATOM     14  C   UNL     1       7.220   5.947  16.657  0.00  0.00    +0.000 C 
ATOM     15 BR   UNL     1       6.864   4.742  15.288  0.00  0.00    +0.000 Br
ENDBRANCH  12  13
ENDBRANCH   3  12
TORSDOF 7
ENDMDL
