MODEL 1
REMARK VINA RESULT:     -10.3      0.000      0.000
REMARK  Name = 
REMARK  7 active torsions:
REMARK  status: ('A' for Active; 'I' for Inactive)
REMARK    1  A    between atoms: C_1  and  O_2
REMARK    2  A    between atoms: O_2  and  C_3
REMARK    3  A    between atoms: C_9  and  C_10
REMARK    4  A    between atoms: C_10  and  N_11
REMARK    5  A    between atoms: C_15  and  N_16
REMARK    6  A    between atoms: C_17  and  C_19
REMARK    7  A    between atoms: C_25  and  C_26
REMARK                            x       y       z     vdW  Elec       q    Type
REMARK                         _______ _______ _______ _____ _____    ______ ____
ROOT
ATOM      1  N   UNL     1       1.163   7.527  21.284  0.00  0.00    +0.000 N 
ATOM      2  C   UNL     1       1.864   7.171  20.153  0.00  0.00    +0.000 C 
ATOM      3  O   UNL     1       2.347   7.983  19.374  0.00  0.00    +0.000 OA
ATOM      4  H   UNL     1       1.022   6.836  22.006  0.00  0.00    +0.000 HD
ENDROOT
BRANCH   2   5
ATOM      5  C   UNL     1       2.036   5.709  19.914  0.00  0.00    +0.000 A 
ATOM      6  C   UNL     1       1.274   4.744  20.585  0.00  0.00    +0.000 A 
ATOM      7  C   UNL     1       1.422   3.375  20.302  0.00  0.00    +0.000 A 
ATOM      8  C   UNL     1       2.358   3.025  19.323  0.00  0.00    +0.000 A 
ATOM      9  N   UNL     1       2.707   1.811  18.799  0.00  0.00    +0.000 N 
ATOM     10  N   UNL     1       3.654   1.868  17.849  0.00  0.00    +0.000 NA
ATOM     11  C   UNL     1       3.956   3.175  17.757  0.00  0.00    +0.000 A 
ATOM     12  C   UNL     1       3.142   3.951  18.643  0.00  0.00    +0.000 A 
ATOM     13  C   UNL     1       2.961   5.320  18.934  0.00  0.00    +0.000 A 
ATOM     14  H   UNL     1       2.322   0.902  19.034  0.00  0.00    +0.000 HD
BRANCH  11  15
ATOM     15  C   UNL     1       4.954   3.691  16.846  0.00  0.00    +0.000 A 
ATOM     16  C   UNL     1       6.066   4.539  17.313  0.00  0.00    +0.000 A 
ATOM     17  C   UNL     1       6.981   5.073  16.480  0.00  0.00    +0.000 A 
ATOM     18  C   UNL     1       6.901   4.780  15.096  0.00  0.00    +0.000 A 
ATOM     19  C   UNL     1       7.607   5.105  13.961  0.00  0.00    +0.000 A 
ATOM     20  N   UNL     1       7.065   4.496  12.858  0.00  0.00    +0.000 NA
ATOM     21  C   UNL     1       6.040   3.807  13.315  0.00  0.00    +0.000 A 
ATOM     22  N   UNL     1       5.882   3.947  14.672  0.00  0.00    +0.000 N 
ATOM     23  C   UNL     1       4.925   3.407  15.524  0.00  0.00    +0.000 A 
ENDBRANCH  11  15
ENDBRANCH   2   5
BRANCH   1  28
ATOM     24  N   UNL     1       0.102  11.097  20.570  0.00  0.00    +0.000 NA
ATOM     25  C   UNL     1      -0.872  11.254  21.651  0.00  0.00    +0.000 C 
ATOM     26  C   UNL     1      -0.512  10.501  22.931  0.00  0.00    +0.000 C 
ATOM     27  C   UNL     1      -0.240   9.032  22.635  0.00  0.00    +0.000 C 
ATOM     28  C   UNL     1       0.908   8.924  21.632  0.00  0.00    +0.000 C 
ATOM     29  C   UNL     1       0.582   9.730  20.356  0.00  0.00    +0.000 C 
BRANCH  24  30
ATOM     30  C   UNL     1      -0.327  11.750  19.309  0.00  0.00    +0.000 C 
BRANCH  30  37
ATOM     31  C   UNL     1      -2.871  11.981  19.059  0.00  0.00    +0.000 A 
ATOM     32  C   UNL     1      -4.081  11.580  18.473  0.00  0.00    +0.000 A 
ATOM     33  C   UNL     1      -4.115  10.524  17.562  0.00  0.00    +0.000 A 
ATOM     34  C   UNL     1      -2.936   9.873  17.223  0.00  0.00    +0.000 A 
ATOM     35  C   UNL     1      -1.731  10.284  17.791  0.00  0.00    +0.000 A 
ATOM     36  F   UNL     1      -0.613   9.640  17.424  0.00  0.00    +0.000 F 
ATOM     37  C   UNL     1      -1.665  11.334  18.717  0.00  0.00    +0.000 A 
BRANCH  31  39
ATOM     38  C   UNL     1      -4.004  13.394  20.584  0.00  0.00    +0.000 C 
ATOM     39  O   UNL     1      -2.787  13.034  19.934  0.00  0.00    +0.000 OA
ENDBRANCH  31  39
ENDBRANCH  30  37
ENDBRANCH  24  30
ENDBRANCH   1  28
TORSDOF 6
ENDMDL
MODEL 2
REMARK VINA RESULT:      -9.7      1.744      2.585
REMARK  Name = 
REMARK  7 active torsions:
REMARK  status: ('A' for Active; 'I' for Inactive)
REMARK    1  A    between atoms: C_1  and  O_2
REMARK    2  A    between atoms: O_2  and  C_3
REMARK    3  A    between atoms: C_9  and  C_10
REMARK    4  A    between atoms: C_10  and  N_11
REMARK    5  A    between atoms: C_15  and  N_16
REMARK    6  A    between atoms: C_17  and  C_19
REMARK    7  A    between atoms: C_25  and  C_26
REMARK                            x       y       z     vdW  Elec       q    Type
REMARK                         _______ _______ _______ _____ _____    ______ ____
ROOT
ATOM      1  N   UNL     1       1.227   7.575  21.281  0.00  0.00    +0.000 N 
ATOM      2  C   UNL     1       1.872   7.208  20.122  0.00  0.00    +0.000 C 
ATOM      3  O   UNL     1       2.308   8.013  19.307  0.00  0.00    +0.000 OA
ATOM      4  H   UNL     1       1.129   6.894  22.020  0.00  0.00    +0.000 HD
ENDROOT
BRANCH   2   5
ATOM      5  C   UNL     1       2.045   5.744  19.896  0.00  0.00    +0.000 A 
ATOM      6  C   UNL     1       1.285   4.784  20.576  0.00  0.00    +0.000 A 
ATOM      7  C   UNL     1       1.434   3.413  20.305  0.00  0.00    +0.000 A 
ATOM      8  C   UNL     1       2.369   3.055  19.329  0.00  0.00    +0.000 A 
ATOM      9  N   UNL     1       2.719   1.837  18.815  0.00  0.00    +0.000 N 
ATOM     10  N   UNL     1       3.665   1.887  17.864  0.00  0.00    +0.000 NA
ATOM     11  C   UNL     1       3.966   3.193  17.760  0.00  0.00    +0.000 A 
ATOM     12  C   UNL     1       3.152   3.976  18.640  0.00  0.00    +0.000 A 
ATOM     13  C   UNL     1       2.970   5.347  18.918  0.00  0.00    +0.000 A 
ATOM     14  H   UNL     1       2.336   0.930  19.059  0.00  0.00    +0.000 HD
BRANCH  11  15
ATOM     15  C   UNL     1       4.962   3.701  16.843  0.00  0.00    +0.000 A 
ATOM     16  C   UNL     1       6.078   4.550  17.302  0.00  0.00    +0.000 A 
ATOM     17  C   UNL     1       6.991   5.077  16.464  0.00  0.00    +0.000 A 
ATOM     18  C   UNL     1       6.907   4.777  15.082  0.00  0.00    +0.000 A 
ATOM     19  C   UNL     1       7.611   5.093  13.943  0.00  0.00    +0.000 A 
ATOM     20  N   UNL     1       7.065   4.479  12.845  0.00  0.00    +0.000 NA
ATOM     21  C   UNL     1       6.039   3.794  13.309  0.00  0.00    +0.000 A 
ATOM     22  N   UNL     1       5.886   3.943  14.665  0.00  0.00    +0.000 N 
ATOM     23  C   UNL     1       4.929   3.410  15.522  0.00  0.00    +0.000 A 
ENDBRANCH  11  15
ENDBRANCH   2   5
BRANCH   1  28
ATOM     24  N   UNL     1       0.351  11.184  20.514  0.00  0.00    +0.000 NA
ATOM     25  C   UNL     1      -0.727  11.358  21.488  0.00  0.00    +0.000 C 
ATOM     26  C   UNL     1      -0.526  10.579  22.787  0.00  0.00    +0.000 C 
ATOM     27  C   UNL     1      -0.268   9.106  22.500  0.00  0.00    +0.000 C 
ATOM     28  C   UNL     1       0.977   8.975  21.622  0.00  0.00    +0.000 C 
ATOM     29  C   UNL     1       0.812   9.806  20.331  0.00  0.00    +0.000 C 
BRANCH  24  30
ATOM     30  C   UNL     1       0.078  11.865  19.224  0.00  0.00    +0.000 C 
BRANCH  30  37
ATOM     31  C   UNL     1       0.323  14.419  19.166  0.00  0.00    +0.000 A 
ATOM     32  C   UNL     1       1.082  15.566  18.889  0.00  0.00    +0.000 A 
ATOM     33  C   UNL     1       2.362  15.457  18.343  0.00  0.00    +0.000 A 
ATOM     34  C   UNL     1       2.893  14.201  18.086  0.00  0.00    +0.000 A 
ATOM     35  C   UNL     1       2.147  13.061  18.380  0.00  0.00    +0.000 A 
ATOM     36  F   UNL     1       2.704  11.866  18.132  0.00  0.00    +0.000 F 
ATOM     37  C   UNL     1       0.855  13.136  18.918  0.00  0.00    +0.000 A 
BRANCH  31  39
ATOM     38  C   UNL     1      -1.079  15.424  20.788  0.00  0.00    +0.000 C 
ATOM     39  O   UNL     1      -0.925  14.479  19.732  0.00  0.00    +0.000 OA
ENDBRANCH  31  39
ENDBRANCH  30  37
ENDBRANCH  24  30
ENDBRANCH   1  28
TORSDOF 6
ENDMDL
MODEL 3
REMARK VINA RESULT:      -9.6      3.606      9.930
REMARK  Name = 
REMARK  7 active torsions:
REMARK  status: ('A' for Active; 'I' for Inactive)
REMARK    1  A    between atoms: C_1  and  O_2
REMARK    2  A    between atoms: O_2  and  C_3
REMARK    3  A    between atoms: C_9  and  C_10
REMARK    4  A    between atoms: C_10  and  N_11
REMARK    5  A    between atoms: C_15  and  N_16
REMARK    6  A    between atoms: C_17  and  C_19
REMARK    7  A    between atoms: C_25  and  C_26
REMARK                            x       y       z     vdW  Elec       q    Type
REMARK                         _______ _______ _______ _____ _____    ______ ____
ROOT
ATOM      1  N   UNL     1       3.014   8.116  17.429  0.00  0.00    +0.000 N 
ATOM      2  C   UNL     1       2.220   8.358  18.527  0.00  0.00    +0.000 C 
ATOM      3  O   UNL     1       2.328   7.752  19.586  0.00  0.00    +0.000 OA
ATOM      4  H   UNL     1       3.054   8.808  16.695  0.00  0.00    +0.000 HD
ENDROOT
BRANCH   2   5
ATOM      5  C   UNL     1       1.200   9.437  18.381  0.00  0.00    +0.000 A 
ATOM      6  C   UNL     1      -0.110   9.179  17.957  0.00  0.00    +0.000 A 
ATOM      7  C   UNL     1      -1.064  10.208  17.879  0.00  0.00    +0.000 A 
ATOM      8  C   UNL     1      -0.647  11.492  18.243  0.00  0.00    +0.000 A 
ATOM      9  N   UNL     1      -1.326  12.677  18.314  0.00  0.00    +0.000 N 
ATOM     10  N   UNL     1      -0.584  13.718  18.724  0.00  0.00    +0.000 NA
ATOM     11  C   UNL     1       0.641  13.200  18.916  0.00  0.00    +0.000 A 
ATOM     12  C   UNL     1       0.647  11.792  18.658  0.00  0.00    +0.000 A 
ATOM     13  C   UNL     1       1.580  10.738  18.745  0.00  0.00    +0.000 A 
ATOM     14  H   UNL     1      -2.306  12.842  18.109  0.00  0.00    +0.000 HD
BRANCH  11  15
ATOM     15  C   UNL     1       1.770  13.989  19.358  0.00  0.00    +0.000 A 
ATOM     16  C   UNL     1       2.405  13.765  20.670  0.00  0.00    +0.000 A 
ATOM     17  C   UNL     1       3.425  14.516  21.129  0.00  0.00    +0.000 A 
ATOM     18  C   UNL     1       3.943  15.545  20.304  0.00  0.00    +0.000 A 
ATOM     19  C   UNL     1       4.936  16.493  20.389  0.00  0.00    +0.000 A 
ATOM     20  N   UNL     1       5.003  17.236  19.238  0.00  0.00    +0.000 NA
ATOM     21  C   UNL     1       4.060  16.747  18.459  0.00  0.00    +0.000 A 
ATOM     22  N   UNL     1       3.373  15.720  19.056  0.00  0.00    +0.000 N 
ATOM     23  C   UNL     1       2.308  14.959  18.584  0.00  0.00    +0.000 A 
ENDBRANCH  11  15
ENDBRANCH   2   5
BRANCH   1  28
ATOM     24  N   UNL     1       4.277   4.544  17.595  0.00  0.00    +0.000 NA
ATOM     25  C   UNL     1       5.102   4.549  16.387  0.00  0.00    +0.000 C 
ATOM     26  C   UNL     1       5.776   5.889  16.096  0.00  0.00    +0.000 C 
ATOM     27  C   UNL     1       4.752   7.016  16.075  0.00  0.00    +0.000 C 
ATOM     28  C   UNL     1       4.044   7.077  17.428  0.00  0.00    +0.000 C 
ATOM     29  C   UNL     1       3.408   5.710  17.763  0.00  0.00    +0.000 C 
BRANCH  24  30
ATOM     30  C   UNL     1       3.552   3.265  17.793  0.00  0.00    +0.000 C 
BRANCH  30  37
ATOM     31  C   UNL     1       3.408   2.670  20.285  0.00  0.00    +0.000 A 
ATOM     32  C   UNL     1       2.663   2.536  21.467  0.00  0.00    +0.000 A 
ATOM     33  C   UNL     1       1.289   2.785  21.474  0.00  0.00    +0.000 A 
ATOM     34  C   UNL     1       0.659   3.183  20.303  0.00  0.00    +0.000 A 
ATOM     35  C   UNL     1       1.403   3.336  19.134  0.00  0.00    +0.000 A 
ATOM     36  F   UNL     1       0.758   3.739  18.029  0.00  0.00    +0.000 F 
ATOM     37  C   UNL     1       2.781   3.083  19.091  0.00  0.00    +0.000 A 
BRANCH  31  39
ATOM     38  C   UNL     1       5.231   1.282  20.881  0.00  0.00    +0.000 C 
ATOM     39  O   UNL     1       4.763   2.467  20.241  0.00  0.00    +0.000 OA
ENDBRANCH  31  39
ENDBRANCH  30  37
ENDBRANCH  24  30
ENDBRANCH   1  28
TORSDOF 6
ENDMDL
MODEL 4
REMARK VINA RESULT:      -9.5      3.655      9.814
REMARK  Name = 
REMARK  7 active torsions:
REMARK  status: ('A' for Active; 'I' for Inactive)
REMARK    1  A    between atoms: C_1  and  O_2
REMARK    2  A    between atoms: O_2  and  C_3
REMARK    3  A    between atoms: C_9  and  C_10
REMARK    4  A    between atoms: C_10  and  N_11
REMARK    5  A    between atoms: C_15  and  N_16
REMARK    6  A    between atoms: C_17  and  C_19
REMARK    7  A    between atoms: C_25  and  C_26
REMARK                            x       y       z     vdW  Elec       q    Type
REMARK                         _______ _______ _______ _____ _____    ______ ____
ROOT
ATOM      1  N   UNL     1       3.183   8.126  17.406  0.00  0.00    +0.000 N 
ATOM      2  C   UNL     1       2.307   8.292  18.454  0.00  0.00    +0.000 C 
ATOM      3  O   UNL     1       2.299   7.576  19.448  0.00  0.00    +0.000 OA
ATOM      4  H   UNL     1       3.313   8.887  16.756  0.00  0.00    +0.000 HD
ENDROOT
BRANCH   2   5
ATOM      5  C   UNL     1       1.347   9.427  18.341  0.00  0.00    +0.000 A 
ATOM      6  C   UNL     1      -0.014   9.235  18.069  0.00  0.00    +0.000 A 
ATOM      7  C   UNL     1      -0.906  10.320  18.019  0.00  0.00    +0.000 A 
ATOM      8  C   UNL     1      -0.375  11.592  18.254  0.00  0.00    +0.000 A 
ATOM      9  N   UNL     1      -0.967  12.824  18.315  0.00  0.00    +0.000 N 
ATOM     10  N   UNL     1      -0.124  13.834  18.579  0.00  0.00    +0.000 NA
ATOM     11  C   UNL     1       1.081  13.245  18.680  0.00  0.00    +0.000 A 
ATOM     12  C   UNL     1       0.972  11.827  18.516  0.00  0.00    +0.000 A 
ATOM     13  C   UNL     1       1.842  10.719  18.578  0.00  0.00    +0.000 A 
ATOM     14  H   UNL     1      -1.951  13.042  18.200  0.00  0.00    +0.000 HD
BRANCH  11  15
ATOM     15  C   UNL     1       2.296  13.980  18.954  0.00  0.00    +0.000 A 
ATOM     16  C   UNL     1       2.958  14.796  17.919  0.00  0.00    +0.000 A 
ATOM     17  C   UNL     1       4.116  15.451  18.132  0.00  0.00    +0.000 A 
ATOM     18  C   UNL     1       4.712  15.391  19.416  0.00  0.00    +0.000 A 
ATOM     19  C   UNL     1       5.838  15.897  20.023  0.00  0.00    +0.000 A 
ATOM     20  N   UNL     1       5.898  15.513  21.339  0.00  0.00    +0.000 NA
ATOM     21  C   UNL     1       4.820  14.780  21.532  0.00  0.00    +0.000 A 
ATOM     22  N   UNL     1       4.061  14.661  20.395  0.00  0.00    +0.000 N 
ATOM     23  C   UNL     1       2.875  13.968  20.176  0.00  0.00    +0.000 A 
ENDBRANCH  11  15
ENDBRANCH   2   5
BRANCH   1  28
ATOM     24  N   UNL     1       4.297   4.503  17.521  0.00  0.00    +0.000 NA
ATOM     25  C   UNL     1       5.102   4.484  16.299  0.00  0.00    +0.000 C 
ATOM     26  C   UNL     1       5.827   5.797  16.008  0.00  0.00    +0.000 C 
ATOM     27  C   UNL     1       4.851   6.967  16.014  0.00  0.00    +0.000 C 
ATOM     28  C   UNL     1       4.168   7.045  17.379  0.00  0.00    +0.000 C 
ATOM     29  C   UNL     1       3.480   5.703  17.712  0.00  0.00    +0.000 C 
BRANCH  24  30
ATOM     30  C   UNL     1       3.522   3.254  17.719  0.00  0.00    +0.000 C 
BRANCH  30  37
ATOM     31  C   UNL     1       3.416   2.664  20.215  0.00  0.00    +0.000 A 
ATOM     32  C   UNL     1       2.692   2.545  21.411  0.00  0.00    +0.000 A 
ATOM     33  C   UNL     1       1.325   2.820  21.446  0.00  0.00    +0.000 A 
ATOM     34  C   UNL     1       0.678   3.229  20.287  0.00  0.00    +0.000 A 
ATOM     35  C   UNL     1       1.401   3.367  19.103  0.00  0.00    +0.000 A 
ATOM     36  F   UNL     1       0.742   3.781  18.011  0.00  0.00    +0.000 F 
ATOM     37  C   UNL     1       2.773   3.088  19.033  0.00  0.00    +0.000 A 
BRANCH  31  39
ATOM     38  C   UNL     1       5.240   1.308  20.876  0.00  0.00    +0.000 C 
ATOM     39  O   UNL     1       4.766   2.435  20.143  0.00  0.00    +0.000 OA
ENDBRANCH  31  39
ENDBRANCH  30  37
ENDBRANCH  24  30
ENDBRANCH   1  28
TORSDOF 6
ENDMDL
MODEL 5
REMARK VINA RESULT:      -9.5      1.229      1.788
REMARK  Name = 
REMARK  7 active torsions:
REMARK  status: ('A' for Active; 'I' for Inactive)
REMARK    1  A    between atoms: C_1  and  O_2
REMARK    2  A    between atoms: O_2  and  C_3
REMARK    3  A    between atoms: C_9  and  C_10
REMARK    4  A    between atoms: C_10  and  N_11
REMARK    5  A    between atoms: C_15  and  N_16
REMARK    6  A    between atoms: C_17  and  C_19
REMARK    7  A    between atoms: C_25  and  C_26
REMARK                            x       y       z     vdW  Elec       q    Type
REMARK                         _______ _______ _______ _____ _____    ______ ____
ROOT
ATOM      1  N   UNL     1       0.859   7.666  21.103  0.00  0.00    +0.000 N 
ATOM      2  C   UNL     1       1.816   7.283  20.192  0.00  0.00    +0.000 C 
ATOM      3  O   UNL     1       2.553   8.073  19.613  0.00  0.00    +0.000 OA
ATOM      4  H   UNL     1       0.474   6.970  21.726  0.00  0.00    +0.000 HD
ENDROOT
BRANCH   2   5
ATOM      5  C   UNL     1       1.942   5.819  19.939  0.00  0.00    +0.000 A 
ATOM      6  C   UNL     1       1.133   4.874  20.582  0.00  0.00    +0.000 A 
ATOM      7  C   UNL     1       1.239   3.504  20.286  0.00  0.00    +0.000 A 
ATOM      8  C   UNL     1       2.184   3.132  19.324  0.00  0.00    +0.000 A 
ATOM      9  N   UNL     1       2.502   1.912  18.793  0.00  0.00    +0.000 N 
ATOM     10  N   UNL     1       3.472   1.947  17.866  0.00  0.00    +0.000 NA
ATOM     11  C   UNL     1       3.822   3.243  17.796  0.00  0.00    +0.000 A 
ATOM     12  C   UNL     1       3.015   4.037  18.673  0.00  0.00    +0.000 A 
ATOM     13  C   UNL     1       2.876   5.408  18.975  0.00  0.00    +0.000 A 
ATOM     14  H   UNL     1       2.081   1.015  19.010  0.00  0.00    +0.000 HD
BRANCH  11  15
ATOM     15  C   UNL     1       4.857   3.733  16.912  0.00  0.00    +0.000 A 
ATOM     16  C   UNL     1       5.988   4.534  17.415  0.00  0.00    +0.000 A 
ATOM     17  C   UNL     1       6.940   5.045  16.609  0.00  0.00    +0.000 A 
ATOM     18  C   UNL     1       6.880   4.772  15.220  0.00  0.00    +0.000 A 
ATOM     19  C   UNL     1       7.621   5.085  14.104  0.00  0.00    +0.000 A 
ATOM     20  N   UNL     1       7.082   4.510  12.982  0.00  0.00    +0.000 NA
ATOM     21  C   UNL     1       6.022   3.853  13.408  0.00  0.00    +0.000 A 
ATOM     22  N   UNL     1       5.841   3.982  14.762  0.00  0.00    +0.000 N 
ATOM     23  C   UNL     1       4.846   3.467  15.586  0.00  0.00    +0.000 A 
ENDBRANCH  11  15
ENDBRANCH   2   5
BRANCH   1  28
ATOM     24  N   UNL     1      -0.364  11.188  20.412  0.00  0.00    +0.000 NA
ATOM     25  C   UNL     1      -1.198  11.366  21.601  0.00  0.00    +0.000 C 
ATOM     26  C   UNL     1      -0.663  10.666  22.850  0.00  0.00    +0.000 C 
ATOM     27  C   UNL     1      -0.398   9.192  22.571  0.00  0.00    +0.000 C 
ATOM     28  C   UNL     1       0.617   9.070  21.435  0.00  0.00    +0.000 C 
ATOM     29  C   UNL     1       0.116   9.824  20.185  0.00  0.00    +0.000 C 
BRANCH  24  30
ATOM     30  C   UNL     1      -0.962  11.788  19.194  0.00  0.00    +0.000 C 
BRANCH  30  37
ATOM     31  C   UNL     1      -3.092  10.733  18.226  0.00  0.00    +0.000 A 
ATOM     32  C   UNL     1      -4.491  10.681  18.124  0.00  0.00    +0.000 A 
ATOM     33  C   UNL     1      -5.288  11.604  18.802  0.00  0.00    +0.000 A 
ATOM     34  C   UNL     1      -4.690  12.574  19.596  0.00  0.00    +0.000 A 
ATOM     35  C   UNL     1      -3.302  12.614  19.712  0.00  0.00    +0.000 A 
ATOM     36  F   UNL     1      -2.766  13.556  20.502  0.00  0.00    +0.000 F 
ATOM     37  C   UNL     1      -2.473  11.708  19.035  0.00  0.00    +0.000 A 
BRANCH  31  39
ATOM     38  C   UNL     1      -2.310   9.839  16.178  0.00  0.00    +0.000 C 
ATOM     39  O   UNL     1      -2.273   9.827  17.603  0.00  0.00    +0.000 OA
ENDBRANCH  31  39
ENDBRANCH  30  37
ENDBRANCH  24  30
ENDBRANCH   1  28
TORSDOF 6
ENDMDL
MODEL 6
REMARK VINA RESULT:      -9.3      1.858      2.432
REMARK  Name = 
REMARK  7 active torsions:
REMARK  status: ('A' for Active; 'I' for Inactive)
REMARK    1  A    between atoms: C_1  and  O_2
REMARK    2  A    between atoms: O_2  and  C_3
REMARK    3  A    between atoms: C_9  and  C_10
REMARK    4  A    between atoms: C_10  and  N_11
REMARK    5  A    between atoms: C_15  and  N_16
REMARK    6  A    between atoms: C_17  and  C_19
REMARK    7  A    between atoms: C_25  and  C_26
REMARK                            x       y       z     vdW  Elec       q    Type
REMARK                         _______ _______ _______ _____ _____    ______ ____
ROOT
ATOM      1  N   UNL     1       0.931   9.360  19.219  0.00  0.00    +0.000 N 
ATOM      2  C   UNL     1       1.818   8.677  18.418  0.00  0.00    +0.000 C 
ATOM      3  O   UNL     1       2.218   9.099  17.340  0.00  0.00    +0.000 OA
ATOM      4  H   UNL     1       0.845   9.092  20.189  0.00  0.00    +0.000 HD
ENDROOT
BRANCH   2   5
ATOM      5  C   UNL     1       2.305   7.367  18.938  0.00  0.00    +0.000 A 
ATOM      6  C   UNL     1       1.819   6.802  20.124  0.00  0.00    +0.000 A 
ATOM      7  C   UNL     1       2.260   5.542  20.563  0.00  0.00    +0.000 A 
ATOM      8  C   UNL     1       3.198   4.882  19.763  0.00  0.00    +0.000 A 
ATOM      9  N   UNL     1       3.787   3.653  19.886  0.00  0.00    +0.000 N 
ATOM     10  N   UNL     1       4.646   3.348  18.900  0.00  0.00    +0.000 NA
ATOM     11  C   UNL     1       4.637   4.430  18.103  0.00  0.00    +0.000 A 
ATOM     12  C   UNL     1       3.715   5.413  18.586  0.00  0.00    +0.000 A 
ATOM     13  C   UNL     1       3.243   6.672  18.159  0.00  0.00    +0.000 A 
ATOM     14  H   UNL     1       3.632   2.964  20.614  0.00  0.00    +0.000 HD
BRANCH  11  15
ATOM     15  C   UNL     1       5.442   4.533  16.906  0.00  0.00    +0.000 A 
ATOM     16  C   UNL     1       6.716   5.276  16.890  0.00  0.00    +0.000 A 
ATOM     17  C   UNL     1       7.462   5.430  15.778  0.00  0.00    +0.000 A 
ATOM     18  C   UNL     1       7.030   4.820  14.574  0.00  0.00    +0.000 A 
ATOM     19  C   UNL     1       7.481   4.732  13.278  0.00  0.00    +0.000 A 
ATOM     20  N   UNL     1       6.635   3.966  12.517  0.00  0.00    +0.000 NA
ATOM     21  C   UNL     1       5.678   3.589  13.340  0.00  0.00    +0.000 A 
ATOM     22  N   UNL     1       5.858   4.086  14.607  0.00  0.00    +0.000 N 
ATOM     23  C   UNL     1       5.075   3.939  15.748  0.00  0.00    +0.000 A 
ENDBRANCH  11  15
ENDBRANCH   2   5
BRANCH   1  28
ATOM     24  N   UNL     1      -1.649  12.138  19.315  0.00  0.00    +0.000 NA
ATOM     25  C   UNL     1      -0.747  13.265  19.553  0.00  0.00    +0.000 C 
ATOM     26  C   UNL     1       0.620  13.123  18.884  0.00  0.00    +0.000 C 
ATOM     27  C   UNL     1       1.271  11.799  19.261  0.00  0.00    +0.000 C 
ATOM     28  C   UNL     1       0.362  10.650  18.827  0.00  0.00    +0.000 C 
ATOM     29  C   UNL     1      -1.042  10.812  19.449  0.00  0.00    +0.000 C 
BRANCH  24  30
ATOM     30  C   UNL     1      -2.925  12.254  20.062  0.00  0.00    +0.000 C 
BRANCH  30  37
ATOM     31  C   UNL     1      -5.455  12.613  19.820  0.00  0.00    +0.000 A 
ATOM     32  C   UNL     1      -6.621  12.597  19.039  0.00  0.00    +0.000 A 
ATOM     33  C   UNL     1      -6.580  12.179  17.708  0.00  0.00    +0.000 A 
ATOM     34  C   UNL     1      -5.370  11.790  17.149  0.00  0.00    +0.000 A 
ATOM     35  C   UNL     1      -4.209  11.825  17.919  0.00  0.00    +0.000 A 
ATOM     36  F   UNL     1      -3.059  11.457  17.335  0.00  0.00    +0.000 F 
ATOM     37  C   UNL     1      -4.218  12.229  19.261  0.00  0.00    +0.000 A 
BRANCH  31  39
ATOM     38  C   UNL     1      -6.544  12.622  21.922  0.00  0.00    +0.000 C 
ATOM     39  O   UNL     1      -5.444  13.046  21.121  0.00  0.00    +0.000 OA
ENDBRANCH  31  39
ENDBRANCH  30  37
ENDBRANCH  24  30
ENDBRANCH   1  28
TORSDOF 6
ENDMDL
MODEL 7
REMARK VINA RESULT:      -9.2      4.831      9.790
REMARK  Name = 
REMARK  7 active torsions:
REMARK  status: ('A' for Active; 'I' for Inactive)
REMARK    1  A    between atoms: C_1  and  O_2
REMARK    2  A    between atoms: O_2  and  C_3
REMARK    3  A    between atoms: C_9  and  C_10
REMARK    4  A    between atoms: C_10  and  N_11
REMARK    5  A    between atoms: C_15  and  N_16
REMARK    6  A    between atoms: C_17  and  C_19
REMARK    7  A    between atoms: C_25  and  C_26
REMARK                            x       y       z     vdW  Elec       q    Type
REMARK                         _______ _______ _______ _____ _____    ______ ____
ROOT
ATOM      1  N   UNL     1       1.189  11.015  19.195  0.00  0.00    +0.000 N 
ATOM      2  C   UNL     1       0.288  11.970  19.608  0.00  0.00    +0.000 C 
ATOM      3  O   UNL     1      -0.722  11.712  20.252  0.00  0.00    +0.000 OA
ATOM      4  H   UNL     1       2.111  11.309  18.906  0.00  0.00    +0.000 HD
ENDROOT
BRANCH   2   5
ATOM      5  C   UNL     1       0.607  13.382  19.249  0.00  0.00    +0.000 A 
ATOM      6  C   UNL     1      -0.379  14.302  18.873  0.00  0.00    +0.000 A 
ATOM      7  C   UNL     1      -0.056  15.640  18.590  0.00  0.00    +0.000 A 
ATOM      8  C   UNL     1       1.289  16.007  18.701  0.00  0.00    +0.000 A 
ATOM      9  N   UNL     1       1.915  17.212  18.536  0.00  0.00    +0.000 N 
ATOM     10  N   UNL     1       3.241  17.181  18.742  0.00  0.00    +0.000 NA
ATOM     11  C   UNL     1       3.504  15.897  19.039  0.00  0.00    +0.000 A 
ATOM     12  C   UNL     1       2.300  15.121  19.059  0.00  0.00    +0.000 A 
ATOM     13  C   UNL     1       1.946  13.788  19.356  0.00  0.00    +0.000 A 
ATOM     14  H   UNL     1       1.490  18.101  18.297  0.00  0.00    +0.000 HD
BRANCH  11  15
ATOM     15  C   UNL     1       4.835  15.412  19.329  0.00  0.00    +0.000 A 
ATOM     16  C   UNL     1       5.349  15.335  20.709  0.00  0.00    +0.000 A 
ATOM     17  C   UNL     1       6.601  14.934  21.004  0.00  0.00    +0.000 A 
ATOM     18  C   UNL     1       7.457  14.528  19.951  0.00  0.00    +0.000 A 
ATOM     19  C   UNL     1       8.747  14.067  19.829  0.00  0.00    +0.000 A 
ATOM     20  N   UNL     1       9.051  13.805  18.517  0.00  0.00    +0.000 NA
ATOM     21  C   UNL     1       7.957  14.104  17.845  0.00  0.00    +0.000 A 
ATOM     22  N   UNL     1       6.953  14.559  18.663  0.00  0.00    +0.000 N 
ATOM     23  C   UNL     1       5.668  14.989  18.350  0.00  0.00    +0.000 A 
ENDBRANCH  11  15
ENDBRANCH   2   5
BRANCH   1  28
ATOM     24  N   UNL     1       2.005   7.325  18.885  0.00  0.00    +0.000 NA
ATOM     25  C   UNL     1       2.061   6.994  20.310  0.00  0.00    +0.000 C 
ATOM     26  C   UNL     1       1.078   7.784  21.173  0.00  0.00    +0.000 C 
ATOM     27  C   UNL     1       1.237   9.281  20.942  0.00  0.00    +0.000 C 
ATOM     28  C   UNL     1       0.993   9.591  19.466  0.00  0.00    +0.000 C 
ATOM     29  C   UNL     1       1.940   8.755  18.578  0.00  0.00    +0.000 C 
BRANCH  24  30
ATOM     30  C   UNL     1       3.042   6.622  18.090  0.00  0.00    +0.000 C 
BRANCH  30  37
ATOM     31  C   UNL     1       4.277   4.528  18.912  0.00  0.00    +0.000 A 
ATOM     32  C   UNL     1       4.345   3.136  19.075  0.00  0.00    +0.000 A 
ATOM     33  C   UNL     1       3.332   2.312  18.583  0.00  0.00    +0.000 A 
ATOM     34  C   UNL     1       2.240   2.878  17.939  0.00  0.00    +0.000 A 
ATOM     35  C   UNL     1       2.163   4.263  17.795  0.00  0.00    +0.000 A 
ATOM     36  F   UNL     1       1.083   4.770  17.182  0.00  0.00    +0.000 F 
ATOM     37  C   UNL     1       3.169   5.117  18.268  0.00  0.00    +0.000 A 
BRANCH  31  39
ATOM     38  C   UNL     1       6.515   5.292  18.786  0.00  0.00    +0.000 C 
ATOM     39  O   UNL     1       5.234   5.376  19.408  0.00  0.00    +0.000 OA
ENDBRANCH  31  39
ENDBRANCH  30  37
ENDBRANCH  24  30
ENDBRANCH   1  28
TORSDOF 6
ENDMDL
MODEL 8
REMARK VINA RESULT:      -9.2      4.777      9.829
REMARK  Name = 
REMARK  7 active torsions:
REMARK  status: ('A' for Active; 'I' for Inactive)
REMARK    1  A    between atoms: C_1  and  O_2
REMARK    2  A    between atoms: O_2  and  C_3
REMARK    3  A    between atoms: C_9  and  C_10
REMARK    4  A    between atoms: C_10  and  N_11
REMARK    5  A    between atoms: C_15  and  N_16
REMARK    6  A    between atoms: C_17  and  C_19
REMARK    7  A    between atoms: C_25  and  C_26
REMARK                            x       y       z     vdW  Elec       q    Type
REMARK                         _______ _______ _______ _____ _____    ______ ____
ROOT
ATOM      1  N   UNL     1       1.132  11.188  19.530  0.00  0.00    +0.000 N 
ATOM      2  C   UNL     1       0.236  11.981  18.851  0.00  0.00    +0.000 C 
ATOM      3  O   UNL     1      -0.793  11.555  18.341  0.00  0.00    +0.000 OA
ATOM      4  H   UNL     1       1.808  11.628  20.138  0.00  0.00    +0.000 HD
ENDROOT
BRANCH   2   5
ATOM      5  C   UNL     1       0.564  13.434  18.772  0.00  0.00    +0.000 A 
ATOM      6  C   UNL     1      -0.424  14.424  18.690  0.00  0.00    +0.000 A 
ATOM      7  C   UNL     1      -0.087  15.788  18.670  0.00  0.00    +0.000 A 
ATOM      8  C   UNL     1       1.273  16.108  18.736  0.00  0.00    +0.000 A 
ATOM      9  N   UNL     1       1.917  17.315  18.775  0.00  0.00    +0.000 N 
ATOM     10  N   UNL     1       3.254  17.227  18.850  0.00  0.00    +0.000 NA
ATOM     11  C   UNL     1       3.504  15.906  18.843  0.00  0.00    +0.000 A 
ATOM     12  C   UNL     1       2.285  15.156  18.805  0.00  0.00    +0.000 A 
ATOM     13  C   UNL     1       1.918  13.795  18.843  0.00  0.00    +0.000 A 
ATOM     14  H   UNL     1       1.499  18.239  18.769  0.00  0.00    +0.000 HD
BRANCH  11  15
ATOM     15  C   UNL     1       4.841  15.357  18.902  0.00  0.00    +0.000 A 
ATOM     16  C   UNL     1       5.515  14.828  17.702  0.00  0.00    +0.000 A 
ATOM     17  C   UNL     1       6.739  14.266  17.736  0.00  0.00    +0.000 A 
ATOM     18  C   UNL     1       7.434  14.212  18.970  0.00  0.00    +0.000 A 
ATOM     19  C   UNL     1       8.649  13.748  19.415  0.00  0.00    +0.000 A 
ATOM     20  N   UNL     1       8.803  13.990  20.757  0.00  0.00    +0.000 NA
ATOM     21  C   UNL     1       7.693  14.596  21.126  0.00  0.00    +0.000 A 
ATOM     22  N   UNL     1       6.815  14.752  20.082  0.00  0.00    +0.000 N 
ATOM     23  C   UNL     1       5.544  15.317  20.057  0.00  0.00    +0.000 A 
ENDBRANCH  11  15
ENDBRANCH   2   5
BRANCH   1  28
ATOM     24  N   UNL     1       2.028   7.545  18.979  0.00  0.00    +0.000 NA
ATOM     25  C   UNL     1       1.994   7.099  20.372  0.00  0.00    +0.000 C 
ATOM     26  C   UNL     1       0.943   7.805  21.228  0.00  0.00    +0.000 C 
ATOM     27  C   UNL     1       1.093   9.317  21.130  0.00  0.00    +0.000 C 
ATOM     28  C   UNL     1       0.942   9.744  19.671  0.00  0.00    +0.000 C 
ATOM     29  C   UNL     1       1.960   8.994  18.784  0.00  0.00    +0.000 C 
BRANCH  24  30
ATOM     30  C   UNL     1       3.126   6.921  18.201  0.00  0.00    +0.000 C 
BRANCH  30  37
ATOM     31  C   UNL     1       4.421   4.805  18.861  0.00  0.00    +0.000 A 
ATOM     32  C   UNL     1       4.517   3.408  18.940  0.00  0.00    +0.000 A 
ATOM     33  C   UNL     1       3.501   2.595  18.432  0.00  0.00    +0.000 A 
ATOM     34  C   UNL     1       2.380   3.178  17.856  0.00  0.00    +0.000 A 
ATOM     35  C   UNL     1       2.277   4.567  17.796  0.00  0.00    +0.000 A 
ATOM     36  F   UNL     1       1.170   5.090  17.247  0.00  0.00    +0.000 F 
ATOM     37  C   UNL     1       3.284   5.410  18.287  0.00  0.00    +0.000 A 
BRANCH  31  39
ATOM     38  C   UNL     1       6.693   5.472  18.847  0.00  0.00    +0.000 C 
ATOM     39  O   UNL     1       5.380   5.640  19.375  0.00  0.00    +0.000 OA
ENDBRANCH  31  39
ENDBRANCH  30  37
ENDBRANCH  24  30
ENDBRANCH   1  28
TORSDOF 6
ENDMDL
MODEL 9
REMARK VINA RESULT:      -9.2      3.122     10.948
REMARK  Name = 
REMARK  7 active torsions:
REMARK  status: ('A' for Active; 'I' for Inactive)
REMARK    1  A    between atoms: C_1  and  O_2
REMARK    2  A    between atoms: O_2  and  C_3
REMARK    3  A    between atoms: C_9  and  C_10
REMARK    4  A    between atoms: C_10  and  N_11
REMARK    5  A    between atoms: C_15  and  N_16
REMARK    6  A    between atoms: C_17  and  C_19
REMARK    7  A    between atoms: C_25  and  C_26
REMARK                            x       y       z     vdW  Elec       q    Type
REMARK                         _______ _______ _______ _____ _____    ______ ____
ROOT
ATOM      1  N   UNL     1       2.088   8.696  19.341  0.00  0.00    +0.000 N 
ATOM      2  C   UNL     1       1.401   9.484  18.445  0.00  0.00    +0.000 C 
ATOM      3  O   UNL     1       0.701   9.033  17.546  0.00  0.00    +0.000 OA
ATOM      4  H   UNL     1       2.425   9.113  20.197  0.00  0.00    +0.000 HD
ENDROOT
BRANCH   2   5
ATOM      5  C   UNL     1       1.530  10.959  18.626  0.00  0.00    +0.000 A 
ATOM      6  C   UNL     1       2.473  11.722  17.925  0.00  0.00    +0.000 A 
ATOM      7  C   UNL     1       2.536  13.117  18.077  0.00  0.00    +0.000 A 
ATOM      8  C   UNL     1       1.619  13.705  18.954  0.00  0.00    +0.000 A 
ATOM      9  N   UNL     1       1.397  15.012  19.289  0.00  0.00    +0.000 N 
ATOM     10  N   UNL     1       0.404  15.198  20.173  0.00  0.00    +0.000 NA
ATOM     11  C   UNL     1      -0.037  13.957  20.446  0.00  0.00    +0.000 A 
ATOM     12  C   UNL     1       0.676  12.982  19.677  0.00  0.00    +0.000 A 
ATOM     13  C   UNL     1       0.621  11.584  19.493  0.00  0.00    +0.000 A 
ATOM     14  H   UNL     1       1.880  15.831  18.936  0.00  0.00    +0.000 HD
BRANCH  11  15
ATOM     15  C   UNL     1      -1.113  13.691  21.374  0.00  0.00    +0.000 A 
ATOM     16  C   UNL     1      -0.922  13.792  22.833  0.00  0.00    +0.000 A 
ATOM     17  C   UNL     1      -1.892  13.502  23.722  0.00  0.00    +0.000 A 
ATOM     18  C   UNL     1      -3.169  13.119  23.242  0.00  0.00    +0.000 A 
ATOM     19  C   UNL     1      -4.379  12.761  23.789  0.00  0.00    +0.000 A 
ATOM     20  N   UNL     1      -5.302  12.503  22.807  0.00  0.00    +0.000 NA
ATOM     21  C   UNL     1      -4.662  12.702  21.673  0.00  0.00    +0.000 A 
ATOM     22  N   UNL     1      -3.354  13.071  21.872  0.00  0.00    +0.000 N 
ATOM     23  C   UNL     1      -2.352  13.352  20.950  0.00  0.00    +0.000 A 
ENDBRANCH  11  15
ENDBRANCH   2   5
BRANCH   1  28
ATOM     24  N   UNL     1       3.647   5.255  19.018  0.00  0.00    +0.000 NA
ATOM     25  C   UNL     1       3.040   4.630  20.194  0.00  0.00    +0.000 C 
ATOM     26  C   UNL     1       1.625   5.118  20.500  0.00  0.00    +0.000 C 
ATOM     27  C   UNL     1       1.585   6.637  20.593  0.00  0.00    +0.000 C 
ATOM     28  C   UNL     1       2.063   7.235  19.271  0.00  0.00    +0.000 C 
ATOM     29  C   UNL     1       3.470   6.705  18.920  0.00  0.00    +0.000 C 
BRANCH  24  30
ATOM     30  C   UNL     1       5.057   4.842  18.809  0.00  0.00    +0.000 C 
BRANCH  30  37
ATOM     31  C   UNL     1       6.778   5.353  16.975  0.00  0.00    +0.000 A 
ATOM     32  C   UNL     1       7.220   5.233  15.649  0.00  0.00    +0.000 A 
ATOM     33  C   UNL     1       6.458   4.545  14.704  0.00  0.00    +0.000 A 
ATOM     34  C   UNL     1       5.256   3.962  15.086  0.00  0.00    +0.000 A 
ATOM     35  C   UNL     1       4.827   4.065  16.408  0.00  0.00    +0.000 A 
ATOM     36  F   UNL     1       3.669   3.473  16.738  0.00  0.00    +0.000 F 
ATOM     37  C   UNL     1       5.564   4.758  17.378  0.00  0.00    +0.000 A 
BRANCH  31  39
ATOM     38  C   UNL     1       7.655   7.400  17.778  0.00  0.00    +0.000 C 
ATOM     39  O   UNL     1       7.511   5.992  17.943  0.00  0.00    +0.000 OA
ENDBRANCH  31  39
ENDBRANCH  30  37
ENDBRANCH  24  30
ENDBRANCH   1  28
TORSDOF 6
ENDMDL
