MODEL 1
REMARK VINA RESULT:      -6.6      0.000      0.000
REMARK  Name = 
REMARK  7 active torsions:
REMARK  status: ('A' for Active; 'I' for Inactive)
REMARK    1  A    between atoms: C_1  and  C_2
REMARK    2  A    between atoms: C_2  and  N_3
REMARK    3  A    between atoms: N_3  and  C_4
REMARK    4  A    between atoms: N_3  and  C_6
REMARK    5  A    between atoms: C_4  and  C_5
REMARK    6  A    between atoms: C_9  and  C_10
REMARK    7  A    between atoms: C_16  and  C_17
REMARK                            x       y       z     vdW  Elec       q    Type
REMARK                         _______ _______ _______ _____ _____    ______ ____
ROOT
ATOM      1  C   UNL     1       4.629   5.122  18.018  0.00  0.00    +0.000 A 
ATOM      2  C   UNL     1       4.073   6.373  17.628  0.00  0.00    +0.000 A 
ATOM      3  F   UNL     1       4.538   6.998  16.534  0.00  0.00    +0.000 F 
ATOM      4  C   UNL     1       3.066   7.014  18.350  0.00  0.00    +0.000 A 
ATOM      5  C   UNL     1       2.586   6.424  19.506  0.00  0.00    +0.000 A 
ATOM      6  F   UNL     1       1.620   7.021  20.221  0.00  0.00    +0.000 F 
ATOM      7  C   UNL     1       3.096   5.205  19.924  0.00  0.00    +0.000 A 
ATOM      8  F   UNL     1       2.603   4.656  21.046  0.00  0.00    +0.000 F 
ATOM      9  C   UNL     1       4.095   4.544  19.199  0.00  0.00    +0.000 A 
ENDROOT
BRANCH   4  10
ATOM     10  C   UNL     1       2.540   8.260  17.896  0.00  0.00    +0.000 C 
ATOM     11  N   UNL     1       2.106   9.273  17.535  0.00  0.00    +0.000 NA
ENDBRANCH   4  10
BRANCH   9  12
ATOM     12  C   UNL     1       4.497   3.258  19.694  0.00  0.00    +0.000 C 
ATOM     13  N   UNL     1       4.855   2.217  20.066  0.00  0.00    +0.000 NA
ENDBRANCH   9  12
BRANCH   1  14
ATOM     14  N   UNL     1       5.625   4.489  17.241  0.00  0.00    +0.000 N 
BRANCH  14  16
ATOM     15  C   UNL     1       6.331   4.423  14.825  0.00  0.00    +0.000 C 
ATOM     16  C   UNL     1       5.278   4.072  15.866  0.00  0.00    +0.000 C 
ENDBRANCH  14  16
BRANCH  14  17
ATOM     17  C   UNL     1       7.042   4.678  17.624  0.00  0.00    +0.000 C 
ATOM     18  C   UNL     1       7.411   6.090  18.052  0.00  0.00    +0.000 C 
ENDBRANCH  14  17
ENDBRANCH   1  14
TORSDOF 5
ENDMDL
MODEL 2
REMARK VINA RESULT:      -6.5      0.245      1.618
REMARK  Name = 
REMARK  7 active torsions:
REMARK  status: ('A' for Active; 'I' for Inactive)
REMARK    1  A    between atoms: C_1  and  C_2
REMARK    2  A    between atoms: C_2  and  N_3
REMARK    3  A    between atoms: N_3  and  C_4
REMARK    4  A    between atoms: N_3  and  C_6
REMARK    5  A    between atoms: C_4  and  C_5
REMARK    6  A    between atoms: C_9  and  C_10
REMARK    7  A    between atoms: C_16  and  C_17
REMARK                            x       y       z     vdW  Elec       q    Type
REMARK                         _______ _______ _______ _____ _____    ______ ____
ROOT
ATOM      1  C   UNL     1       4.647   5.317  17.969  0.00  0.00    +0.000 A 
ATOM      2  C   UNL     1       4.058   6.559  17.603  0.00  0.00    +0.000 A 
ATOM      3  F   UNL     1       4.516   7.227  16.531  0.00  0.00    +0.000 F 
ATOM      4  C   UNL     1       3.022   7.151  18.328  0.00  0.00    +0.000 A 
ATOM      5  C   UNL     1       2.547   6.517  19.462  0.00  0.00    +0.000 A 
ATOM      6  F   UNL     1       1.554   7.065  20.179  0.00  0.00    +0.000 F 
ATOM      7  C   UNL     1       3.090   5.304  19.856  0.00  0.00    +0.000 A 
ATOM      8  F   UNL     1       2.601   4.712  20.957  0.00  0.00    +0.000 F 
ATOM      9  C   UNL     1       4.118   4.692  19.127  0.00  0.00    +0.000 A 
ENDROOT
BRANCH   4  10
ATOM     10  C   UNL     1       2.463   8.391  17.898  0.00  0.00    +0.000 C 
ATOM     11  N   UNL     1       2.018   9.404  17.550  0.00  0.00    +0.000 NA
ENDBRANCH   4  10
BRANCH   9  12
ATOM     12  C   UNL     1       4.554   3.408  19.596  0.00  0.00    +0.000 C 
ATOM     13  N   UNL     1       4.945   2.386  19.984  0.00  0.00    +0.000 NA
ENDBRANCH   9  12
BRANCH   1  14
ATOM     14  N   UNL     1       5.672   4.735  17.188  0.00  0.00    +0.000 N 
BRANCH  14  16
ATOM     15  C   UNL     1       7.545   5.997  18.299  0.00  0.00    +0.000 C 
ATOM     16  C   UNL     1       7.033   4.669  17.760  0.00  0.00    +0.000 C 
ENDBRANCH  14  16
BRANCH  14  17
ATOM     17  C   UNL     1       5.286   3.828  16.084  0.00  0.00    +0.000 C 
ATOM     18  C   UNL     1       5.684   4.299  14.694  0.00  0.00    +0.000 C 
ENDBRANCH  14  17
ENDBRANCH   1  14
TORSDOF 5
ENDMDL
MODEL 3
REMARK VINA RESULT:      -6.0      2.338      4.763
REMARK  Name = 
REMARK  7 active torsions:
REMARK  status: ('A' for Active; 'I' for Inactive)
REMARK    1  A    between atoms: C_1  and  C_2
REMARK    2  A    between atoms: C_2  and  N_3
REMARK    3  A    between atoms: N_3  and  C_4
REMARK    4  A    between atoms: N_3  and  C_6
REMARK    5  A    between atoms: C_4  and  C_5
REMARK    6  A    between atoms: C_9  and  C_10
REMARK    7  A    between atoms: C_16  and  C_17
REMARK                            x       y       z     vdW  Elec       q    Type
REMARK                         _______ _______ _______ _____ _____    ______ ____
ROOT
ATOM      1  C   UNL     1       3.483   4.117  18.308  0.00  0.00    +0.000 A 
ATOM      2  C   UNL     1       4.306   3.747  17.208  0.00  0.00    +0.000 A 
ATOM      3  F   UNL     1       4.550   2.449  16.963  0.00  0.00    +0.000 F 
ATOM      4  C   UNL     1       4.909   4.680  16.363  0.00  0.00    +0.000 A 
ATOM      5  C   UNL     1       4.717   6.029  16.604  0.00  0.00    +0.000 A 
ATOM      6  F   UNL     1       5.288   6.947  15.810  0.00  0.00    +0.000 F 
ATOM      7  C   UNL     1       3.922   6.437  17.664  0.00  0.00    +0.000 A 
ATOM      8  F   UNL     1       3.750   7.753  17.865  0.00  0.00    +0.000 F 
ATOM      9  C   UNL     1       3.298   5.509  18.508  0.00  0.00    +0.000 A 
ENDROOT
BRANCH   4  10
ATOM     10  C   UNL     1       5.711   4.242  15.267  0.00  0.00    +0.000 C 
ATOM     11  N   UNL     1       6.354   3.883  14.372  0.00  0.00    +0.000 NA
ENDBRANCH   4  10
BRANCH   9  12
ATOM     12  C   UNL     1       2.448   6.050  19.529  0.00  0.00    +0.000 C 
ATOM     13  N   UNL     1       1.763   6.450  20.378  0.00  0.00    +0.000 NA
ENDBRANCH   9  12
BRANCH   1  14
ATOM     14  N   UNL     1       2.862   3.140  19.120  0.00  0.00    +0.000 N 
BRANCH  14  16
ATOM     15  C   UNL     1       0.412   2.676  18.780  0.00  0.00    +0.000 C 
ATOM     16  C   UNL     1       1.849   2.260  18.502  0.00  0.00    +0.000 C 
ENDBRANCH  14  16
BRANCH  14  17
ATOM     17  C   UNL     1       3.543   2.727  20.368  0.00  0.00    +0.000 C 
ATOM     18  C   UNL     1       2.659   2.703  21.606  0.00  0.00    +0.000 C 
ENDBRANCH  14  17
ENDBRANCH   1  14
TORSDOF 5
ENDMDL
MODEL 4
REMARK VINA RESULT:      -5.9      2.300      5.067
REMARK  Name = 
REMARK  7 active torsions:
REMARK  status: ('A' for Active; 'I' for Inactive)
REMARK    1  A    between atoms: C_1  and  C_2
REMARK    2  A    between atoms: C_2  and  N_3
REMARK    3  A    between atoms: N_3  and  C_4
REMARK    4  A    between atoms: N_3  and  C_6
REMARK    5  A    between atoms: C_4  and  C_5
REMARK    6  A    between atoms: C_9  and  C_10
REMARK    7  A    between atoms: C_16  and  C_17
REMARK                            x       y       z     vdW  Elec       q    Type
REMARK                         _______ _______ _______ _____ _____    ______ ____
ROOT
ATOM      1  C   UNL     1       3.368   4.439  18.386  0.00  0.00    +0.000 A 
ATOM      2  C   UNL     1       4.150   3.942  17.307  0.00  0.00    +0.000 A 
ATOM      3  F   UNL     1       4.271   2.616  17.126  0.00  0.00    +0.000 F 
ATOM      4  C   UNL     1       4.835   4.772  16.419  0.00  0.00    +0.000 A 
ATOM      5  C   UNL     1       4.770   6.143  16.594  0.00  0.00    +0.000 A 
ATOM      6  F   UNL     1       5.422   6.965  15.757  0.00  0.00    +0.000 F 
ATOM      7  C   UNL     1       4.019   6.674  17.631  0.00  0.00    +0.000 A 
ATOM      8  F   UNL     1       3.970   8.009  17.768  0.00  0.00    +0.000 F 
ATOM      9  C   UNL     1       3.313   5.851  18.518  0.00  0.00    +0.000 A 
ENDROOT
BRANCH   4  10
ATOM     10  C   UNL     1       5.590   4.210  15.347  0.00  0.00    +0.000 C 
ATOM     11  N   UNL     1       6.212   3.757  14.480  0.00  0.00    +0.000 NA
ENDBRANCH   4  10
BRANCH   9  12
ATOM     12  C   UNL     1       2.519   6.516  19.510  0.00  0.00    +0.000 C 
ATOM     13  N   UNL     1       1.840   7.047  20.290  0.00  0.00    +0.000 NA
ENDBRANCH   9  12
BRANCH   1  14
ATOM     14  N   UNL     1       2.661   3.564  19.243  0.00  0.00    +0.000 N 
BRANCH  14  16
ATOM     15  C   UNL     1       2.376   2.976  21.674  0.00  0.00    +0.000 C 
ATOM     16  C   UNL     1       3.320   3.125  20.490  0.00  0.00    +0.000 C 
ENDBRANCH  14  16
BRANCH  14  17
ATOM     17  C   UNL     1       1.187   3.496  19.118  0.00  0.00    +0.000 C 
ATOM     18  C   UNL     1       0.642   2.152  18.658  0.00  0.00    +0.000 C 
ENDBRANCH  14  17
ENDBRANCH   1  14
TORSDOF 5
ENDMDL
MODEL 5
REMARK VINA RESULT:      -5.8      1.643      3.565
REMARK  Name = 
REMARK  7 active torsions:
REMARK  status: ('A' for Active; 'I' for Inactive)
REMARK    1  A    between atoms: C_1  and  C_2
REMARK    2  A    between atoms: C_2  and  N_3
REMARK    3  A    between atoms: N_3  and  C_4
REMARK    4  A    between atoms: N_3  and  C_6
REMARK    5  A    between atoms: C_4  and  C_5
REMARK    6  A    between atoms: C_9  and  C_10
REMARK    7  A    between atoms: C_16  and  C_17
REMARK                            x       y       z     vdW  Elec       q    Type
REMARK                         _______ _______ _______ _____ _____    ______ ____
ROOT
ATOM      1  C   UNL     1       4.794   4.642  18.135  0.00  0.00    +0.000 A 
ATOM      2  C   UNL     1       4.255   3.928  19.241  0.00  0.00    +0.000 A 
ATOM      3  F   UNL     1       4.799   2.757  19.610  0.00  0.00    +0.000 F 
ATOM      4  C   UNL     1       3.149   4.374  19.967  0.00  0.00    +0.000 A 
ATOM      5  C   UNL     1       2.533   5.556  19.596  0.00  0.00    +0.000 A 
ATOM      6  F   UNL     1       1.467   6.007  20.274  0.00  0.00    +0.000 F 
ATOM      7  C   UNL     1       3.025   6.287  18.525  0.00  0.00    +0.000 A 
ATOM      8  F   UNL     1       2.408   7.433  18.196  0.00  0.00    +0.000 F 
ATOM      9  C   UNL     1       4.144   5.857  17.800  0.00  0.00    +0.000 A 
ENDROOT
BRANCH   4  10
ATOM     10  C   UNL     1       2.667   3.619  21.077  0.00  0.00    +0.000 C 
ATOM     11  N   UNL     1       2.269   3.012  21.981  0.00  0.00    +0.000 NA
ENDBRANCH   4  10
BRANCH   9  12
ATOM     12  C   UNL     1       4.599   6.729  16.756  0.00  0.00    +0.000 C 
ATOM     13  N   UNL     1       4.958   7.404  15.881  0.00  0.00    +0.000 NA
ENDBRANCH   9  12
BRANCH   1  14
ATOM     14  N   UNL     1       5.937   4.173  17.447  0.00  0.00    +0.000 N 
BRANCH  14  16
ATOM     15  C   UNL     1       6.588   4.212  15.016  0.00  0.00    +0.000 C 
ATOM     16  C   UNL     1       5.749   3.571  16.111  0.00  0.00    +0.000 C 
ENDBRANCH  14  16
BRANCH  14  17
ATOM     17  C   UNL     1       7.262   4.697  17.846  0.00  0.00    +0.000 C 
ATOM     18  C   UNL     1       7.263   5.562  19.097  0.00  0.00    +0.000 C 
ENDBRANCH  14  17
ENDBRANCH   1  14
TORSDOF 5
ENDMDL
MODEL 6
REMARK VINA RESULT:      -5.8      1.298      4.088
REMARK  Name = 
REMARK  7 active torsions:
REMARK  status: ('A' for Active; 'I' for Inactive)
REMARK    1  A    between atoms: C_1  and  C_2
REMARK    2  A    between atoms: C_2  and  N_3
REMARK    3  A    between atoms: N_3  and  C_4
REMARK    4  A    between atoms: N_3  and  C_6
REMARK    5  A    between atoms: C_4  and  C_5
REMARK    6  A    between atoms: C_9  and  C_10
REMARK    7  A    between atoms: C_16  and  C_17
REMARK                            x       y       z     vdW  Elec       q    Type
REMARK                         _______ _______ _______ _____ _____    ______ ____
ROOT
ATOM      1  C   UNL     1       4.563   5.799  17.804  0.00  0.00    +0.000 A 
ATOM      2  C   UNL     1       4.906   4.556  18.404  0.00  0.00    +0.000 A 
ATOM      3  F   UNL     1       5.960   3.861  17.946  0.00  0.00    +0.000 F 
ATOM      4  C   UNL     1       4.176   3.992  19.452  0.00  0.00    +0.000 A 
ATOM      5  C   UNL     1       3.059   4.655  19.928  0.00  0.00    +0.000 A 
ATOM      6  F   UNL     1       2.338   4.133  20.931  0.00  0.00    +0.000 F 
ATOM      7  C   UNL     1       2.687   5.870  19.374  0.00  0.00    +0.000 A 
ATOM      8  F   UNL     1       1.603   6.491  19.864  0.00  0.00    +0.000 F 
ATOM      9  C   UNL     1       3.422   6.455  18.334  0.00  0.00    +0.000 A 
ENDROOT
BRANCH   4  10
ATOM     10  C   UNL     1       4.583   2.748  20.021  0.00  0.00    +0.000 C 
ATOM     11  N   UNL     1       4.913   1.733  20.474  0.00  0.00    +0.000 NA
ENDBRANCH   4  10
BRANCH   9  12
ATOM     12  C   UNL     1       2.978   7.744  17.888  0.00  0.00    +0.000 C 
ATOM     13  N   UNL     1       2.581   8.770  17.515  0.00  0.00    +0.000 NA
ENDBRANCH   9  12
BRANCH   1  14
ATOM     14  N   UNL     1       5.348   6.354  16.767  0.00  0.00    +0.000 N 
BRANCH  14  16
ATOM     15  C   UNL     1       7.486   6.595  18.074  0.00  0.00    +0.000 C 
ATOM     16  C   UNL     1       6.472   7.238  17.139  0.00  0.00    +0.000 C 
ENDBRANCH  14  16
BRANCH  14  17
ATOM     17  C   UNL     1       5.328   5.696  15.441  0.00  0.00    +0.000 C 
ATOM     18  C   UNL     1       6.627   5.013  15.041  0.00  0.00    +0.000 C 
ENDBRANCH  14  17
ENDBRANCH   1  14
TORSDOF 5
ENDMDL
MODEL 7
REMARK VINA RESULT:      -5.8      1.404      3.869
REMARK  Name = 
REMARK  7 active torsions:
REMARK  status: ('A' for Active; 'I' for Inactive)
REMARK    1  A    between atoms: C_1  and  C_2
REMARK    2  A    between atoms: C_2  and  N_3
REMARK    3  A    between atoms: N_3  and  C_4
REMARK    4  A    between atoms: N_3  and  C_6
REMARK    5  A    between atoms: C_4  and  C_5
REMARK    6  A    between atoms: C_9  and  C_10
REMARK    7  A    between atoms: C_16  and  C_17
REMARK                            x       y       z     vdW  Elec       q    Type
REMARK                         _______ _______ _______ _____ _____    ______ ____
ROOT
ATOM      1  C   UNL     1       4.684   5.773  17.916  0.00  0.00    +0.000 A 
ATOM      2  C   UNL     1       5.028   4.532  18.519  0.00  0.00    +0.000 A 
ATOM      3  F   UNL     1       6.146   3.891  18.137  0.00  0.00    +0.000 F 
ATOM      4  C   UNL     1       4.239   3.913  19.489  0.00  0.00    +0.000 A 
ATOM      5  C   UNL     1       3.059   4.519  19.882  0.00  0.00    +0.000 A 
ATOM      6  F   UNL     1       2.279   3.945  20.811  0.00  0.00    +0.000 F 
ATOM      7  C   UNL     1       2.683   5.731  19.324  0.00  0.00    +0.000 A 
ATOM      8  F   UNL     1       1.536   6.295  19.733  0.00  0.00    +0.000 F 
ATOM      9  C   UNL     1       3.476   6.369  18.361  0.00  0.00    +0.000 A 
ENDROOT
BRANCH   4  10
ATOM     10  C   UNL     1       4.649   2.675  20.066  0.00  0.00    +0.000 C 
ATOM     11  N   UNL     1       4.977   1.663  20.528  0.00  0.00    +0.000 NA
ENDBRANCH   4  10
BRANCH   9  12
ATOM     12  C   UNL     1       3.016   7.649  17.905  0.00  0.00    +0.000 C 
ATOM     13  N   UNL     1       2.655   8.674  17.494  0.00  0.00    +0.000 NA
ENDBRANCH   9  12
BRANCH   1  14
ATOM     14  N   UNL     1       5.529   6.384  16.960  0.00  0.00    +0.000 N 
BRANCH  14  16
ATOM     15  C   UNL     1       5.614   4.939  14.901  0.00  0.00    +0.000 C 
ATOM     16  C   UNL     1       5.175   6.252  15.531  0.00  0.00    +0.000 C 
ENDBRANCH  14  16
BRANCH  14  17
ATOM     17  C   UNL     1       6.423   7.475  17.407  0.00  0.00    +0.000 C 
ATOM     18  C   UNL     1       7.757   7.021  17.980  0.00  0.00    +0.000 C 
ENDBRANCH  14  17
ENDBRANCH   1  14
TORSDOF 5
ENDMDL
MODEL 8
REMARK VINA RESULT:      -5.7      1.452      1.580
REMARK  Name = 
REMARK  7 active torsions:
REMARK  status: ('A' for Active; 'I' for Inactive)
REMARK    1  A    between atoms: C_1  and  C_2
REMARK    2  A    between atoms: C_2  and  N_3
REMARK    3  A    between atoms: N_3  and  C_4
REMARK    4  A    between atoms: N_3  and  C_6
REMARK    5  A    between atoms: C_4  and  C_5
REMARK    6  A    between atoms: C_9  and  C_10
REMARK    7  A    between atoms: C_16  and  C_17
REMARK                            x       y       z     vdW  Elec       q    Type
REMARK                         _______ _______ _______ _____ _____    ______ ____
ROOT
ATOM      1  C   UNL     1       4.112   4.638  18.345  0.00  0.00    +0.000 A 
ATOM      2  C   UNL     1       3.615   5.932  18.668  0.00  0.00    +0.000 A 
ATOM      3  F   UNL     1       4.244   7.024  18.204  0.00  0.00    +0.000 F 
ATOM      4  C   UNL     1       2.499   6.135  19.480  0.00  0.00    +0.000 A 
ATOM      5  C   UNL     1       1.845   5.038  20.013  0.00  0.00    +0.000 A 
ATOM      6  F   UNL     1       0.771   5.205  20.799  0.00  0.00    +0.000 F 
ATOM      7  C   UNL     1       2.292   3.758  19.724  0.00  0.00    +0.000 A 
ATOM      8  F   UNL     1       1.631   2.716  20.250  0.00  0.00    +0.000 F 
ATOM      9  C   UNL     1       3.401   3.541  18.896  0.00  0.00    +0.000 A 
ENDROOT
BRANCH   4  10
ATOM     10  C   UNL     1       2.042   7.459  19.753  0.00  0.00    +0.000 C 
ATOM     11  N   UNL     1       1.661   8.531  19.975  0.00  0.00    +0.000 NA
ENDBRANCH   4  10
BRANCH   9  12
ATOM     12  C   UNL     1       3.730   2.173  18.617  0.00  0.00    +0.000 C 
ATOM     13  N   UNL     1       3.983   1.071  18.351  0.00  0.00    +0.000 NA
ENDBRANCH   9  12
BRANCH   1  14
ATOM     14  N   UNL     1       5.226   4.474  17.490  0.00  0.00    +0.000 N 
BRANCH  14  16
ATOM     15  C   UNL     1       5.951   3.815  15.171  0.00  0.00    +0.000 C 
ATOM     16  C   UNL     1       5.024   4.655  16.037  0.00  0.00    +0.000 C 
ENDBRANCH  14  16
BRANCH  14  17
ATOM     17  C   UNL     1       6.582   4.591  18.072  0.00  0.00    +0.000 C 
ATOM     18  C   UNL     1       7.276   5.922  17.827  0.00  0.00    +0.000 C 
ENDBRANCH  14  17
ENDBRANCH   1  14
TORSDOF 5
ENDMDL
MODEL 9
REMARK VINA RESULT:      -5.6      1.577      3.973
REMARK  Name = 
REMARK  7 active torsions:
REMARK  status: ('A' for Active; 'I' for Inactive)
REMARK    1  A    between atoms: C_1  and  C_2
REMARK    2  A    between atoms: C_2  and  N_3
REMARK    3  A    between atoms: N_3  and  C_4
REMARK    4  A    between atoms: N_3  and  C_6
REMARK    5  A    between atoms: C_4  and  C_5
REMARK    6  A    between atoms: C_9  and  C_10
REMARK    7  A    between atoms: C_16  and  C_17
REMARK                            x       y       z     vdW  Elec       q    Type
REMARK                         _______ _______ _______ _____ _____    ______ ____
ROOT
ATOM      1  C   UNL     1       4.520   4.775  18.340  0.00  0.00    +0.000 A 
ATOM      2  C   UNL     1       4.128   3.878  19.372  0.00  0.00    +0.000 A 
ATOM      3  F   UNL     1       4.798   2.727  19.548  0.00  0.00    +0.000 F 
ATOM      4  C   UNL     1       3.043   4.120  20.217  0.00  0.00    +0.000 A 
ATOM      5  C   UNL     1       2.300   5.274  20.044  0.00  0.00    +0.000 A 
ATOM      6  F   UNL     1       1.251   5.530  20.840  0.00  0.00    +0.000 F 
ATOM      7  C   UNL     1       2.646   6.179  19.052  0.00  0.00    +0.000 A 
ATOM      8  F   UNL     1       1.909   7.292  18.916  0.00  0.00    +0.000 F 
ATOM      9  C   UNL     1       3.743   5.955  18.210  0.00  0.00    +0.000 A 
ENDROOT
BRANCH   4  10
ATOM     10  C   UNL     1       2.712   3.187  21.244  0.00  0.00    +0.000 C 
ATOM     11  N   UNL     1       2.432   2.430  22.077  0.00  0.00    +0.000 NA
ENDBRANCH   4  10
BRANCH   9  12
ATOM     12  C   UNL     1       4.042   6.992  17.265  0.00  0.00    +0.000 C 
ATOM     13  N   UNL     1       4.318   7.843  16.524  0.00  0.00    +0.000 NA
ENDBRANCH   9  12
BRANCH   1  14
ATOM     14  N   UNL     1       5.646   4.509  17.527  0.00  0.00    +0.000 N 
BRANCH  14  16
ATOM     15  C   UNL     1       7.472   6.066  18.288  0.00  0.00    +0.000 C 
ATOM     16  C   UNL     1       6.989   4.632  18.133  0.00  0.00    +0.000 C 
ENDBRANCH  14  16
BRANCH  14  17
ATOM     17  C   UNL     1       5.454   3.700  16.303  0.00  0.00    +0.000 C 
ATOM     18  C   UNL     1       5.630   4.457  14.996  0.00  0.00    +0.000 C 
ENDBRANCH  14  17
ENDBRANCH   1  14
TORSDOF 5
ENDMDL
