MODEL 1
REMARK VINA RESULT:      -8.4      0.000      0.000
REMARK  Name = 
REMARK  6 active torsions:
REMARK  status: ('A' for Active; 'I' for Inactive)
REMARK    1  A    between atoms: C_1  and  C_2
REMARK    2  A    between atoms: C_5  and  S_6
REMARK    3  A    between atoms: S_6  and  N_9
REMARK    4  A    between atoms: N_9  and  C_10
REMARK    5  A    between atoms: N_17  and  C_18
REMARK    6  A    between atoms: C_18  and  C_19
REMARK                            x       y       z     vdW  Elec       q    Type
REMARK                         _______ _______ _______ _____ _____    ______ ____
ROOT
ATOM      1  C   UNL     1       2.655   5.740  18.991  0.00  0.00    +0.000 A 
ATOM      2  C   UNL     1       2.818   6.705  18.014  0.00  0.00    +0.000 A 
ATOM      3  C   UNL     1       2.301   7.984  18.223  0.00  0.00    +0.000 A 
ATOM      4  C   UNL     1       1.649   8.302  19.419  0.00  0.00    +0.000 A 
ATOM      5  N   UNL     1       1.244   9.635  19.624  0.00  0.00    +0.000 N 
ATOM      6  C   UNL     1       1.073  10.028  21.031  0.00  0.00    +0.000 C 
ATOM      7  C   UNL     1       0.790  11.553  21.135  0.00  0.00    +0.000 C 
ATOM      8  N   UNL     1      -0.318  12.105  20.318  0.00  0.00    +0.000 NA
ATOM      9  C   UNL     1      -0.160  11.578  18.929  0.00  0.00    +0.000 C 
ATOM     10  C   UNL     1       0.129  10.058  18.760  0.00  0.00    +0.000 C 
ATOM     11  N   UNL     1       1.485   7.363  20.380  0.00  0.00    +0.000 NA
ATOM     12  C   UNL     1       1.976   6.112  20.144  0.00  0.00    +0.000 A 
ENDROOT
BRANCH   1  13
ATOM     13  N   UNL     1       3.297   4.475  18.828  0.00  0.00    +0.000 N 
ATOM     14  H   UNL     1       2.839   3.653  19.220  0.00  0.00    +0.000 HD
BRANCH  13  15
ATOM     15  S   UNL     1       4.980   4.418  19.075  0.00  0.00    +0.000 S 
ATOM     16  O   UNL     1       5.344   3.147  19.663  0.00  0.00    +0.000 OA
ATOM     17  O   UNL     1       5.340   5.670  19.707  0.00  0.00    +0.000 OA
BRANCH  15  22
ATOM     18  C   UNL     1       7.150   4.646  13.409  0.00  0.00    +0.000 C 
ATOM     19  C   UNL     1       6.619   4.586  14.812  0.00  0.00    +0.000 A 
ATOM     20  C   UNL     1       7.445   4.886  15.902  0.00  0.00    +0.000 A 
ATOM     21  C   UNL     1       6.946   4.824  17.203  0.00  0.00    +0.000 A 
ATOM     22  C   UNL     1       5.611   4.467  17.413  0.00  0.00    +0.000 A 
ATOM     23  C   UNL     1       4.783   4.137  16.338  0.00  0.00    +0.000 A 
ATOM     24  C   UNL     1       5.286   4.212  15.039  0.00  0.00    +0.000 A 
ENDBRANCH  15  22
ENDBRANCH  13  15
ENDBRANCH   1  13
BRANCH   8  25
ATOM     25  C   UNL     1      -1.670  11.824  20.837  0.00  0.00    +0.000 C 
BRANCH  25  26
ATOM     26  C   UNL     1      -2.345  12.854  21.741  0.00  0.00    +0.000 A 
ATOM     27  C   UNL     1      -2.779  14.137  21.358  0.00  0.00    +0.000 A 
ATOM     28  C   UNL     1      -3.380  14.998  22.290  0.00  0.00    +0.000 A 
ATOM     29  C   UNL     1      -3.580  14.575  23.601  0.00  0.00    +0.000 A 
ATOM     30  F   UNL     1      -4.166  15.397  24.483  0.00  0.00    +0.000 F 
ATOM     31  C   UNL     1      -3.190  13.308  24.001  0.00  0.00    +0.000 A 
ATOM     32  C   UNL     1      -2.580  12.469  23.076  0.00  0.00    +0.000 A 
ATOM     33  F   UNL     1      -2.226  11.235  23.471  0.00  0.00    +0.000 F 
ENDBRANCH  25  26
ENDBRANCH   8  25
TORSDOF 5
ENDMDL
MODEL 2
REMARK VINA RESULT:      -8.3      1.610      1.836
REMARK  Name = 
REMARK  6 active torsions:
REMARK  status: ('A' for Active; 'I' for Inactive)
REMARK    1  A    between atoms: C_1  and  C_2
REMARK    2  A    between atoms: C_5  and  S_6
REMARK    3  A    between atoms: S_6  and  N_9
REMARK    4  A    between atoms: N_9  and  C_10
REMARK    5  A    between atoms: N_17  and  C_18
REMARK    6  A    between atoms: C_18  and  C_19
REMARK                            x       y       z     vdW  Elec       q    Type
REMARK                         _______ _______ _______ _____ _____    ______ ____
ROOT
ATOM      1  C   UNL     1       2.341   7.199  19.848  0.00  0.00    +0.000 A 
ATOM      2  C   UNL     1       2.349   7.914  18.664  0.00  0.00    +0.000 A 
ATOM      3  C   UNL     1       1.573   9.069  18.558  0.00  0.00    +0.000 A 
ATOM      4  C   UNL     1       0.815   9.521  19.643  0.00  0.00    +0.000 A 
ATOM      5  N   UNL     1       0.138  10.749  19.519  0.00  0.00    +0.000 N 
ATOM      6  C   UNL     1      -0.175  11.422  20.790  0.00  0.00    +0.000 C 
ATOM      7  C   UNL     1      -0.767  12.834  20.520  0.00  0.00    +0.000 C 
ATOM      8  N   UNL     1      -1.925  12.930  19.599  0.00  0.00    +0.000 NA
ATOM      9  C   UNL     1      -1.599  12.132  18.380  0.00  0.00    +0.000 C 
ATOM     10  C   UNL     1      -0.999  10.710  18.584  0.00  0.00    +0.000 C 
ATOM     11  N   UNL     1       0.802   8.826  20.805  0.00  0.00    +0.000 NA
ATOM     12  C   UNL     1       1.547   7.686  20.879  0.00  0.00    +0.000 A 
ENDROOT
BRANCH   1  13
ATOM     13  N   UNL     1       3.234   6.095  19.995  0.00  0.00    +0.000 N 
ATOM     14  H   UNL     1       4.235   6.288  20.003  0.00  0.00    +0.000 HD
BRANCH  13  15
ATOM     15  S   UNL     1       2.886   4.688  19.103  0.00  0.00    +0.000 S 
ATOM     16  O   UNL     1       1.582   4.810  18.488  0.00  0.00    +0.000 OA
ATOM     17  O   UNL     1       3.210   3.570  19.965  0.00  0.00    +0.000 OA
BRANCH  15  22
ATOM     18  C   UNL     1       7.067   4.915  14.705  0.00  0.00    +0.000 C 
ATOM     19  C   UNL     1       6.038   4.859  15.797  0.00  0.00    +0.000 A 
ATOM     20  C   UNL     1       6.042   5.803  16.831  0.00  0.00    +0.000 A 
ATOM     21  C   UNL     1       5.086   5.744  17.844  0.00  0.00    +0.000 A 
ATOM     22  C   UNL     1       4.117   4.737  17.819  0.00  0.00    +0.000 A 
ATOM     23  C   UNL     1       4.117   3.771  16.811  0.00  0.00    +0.000 A 
ATOM     24  C   UNL     1       5.070   3.844  15.794  0.00  0.00    +0.000 A 
ENDBRANCH  15  22
ENDBRANCH  13  15
ENDBRANCH   1  13
BRANCH   8  25
ATOM     25  C   UNL     1      -3.214  12.506  20.178  0.00  0.00    +0.000 C 
BRANCH  25  26
ATOM     26  C   UNL     1      -3.885  13.395  21.224  0.00  0.00    +0.000 A 
ATOM     27  C   UNL     1      -4.639  14.554  20.968  0.00  0.00    +0.000 A 
ATOM     28  C   UNL     1      -5.199  15.293  22.023  0.00  0.00    +0.000 A 
ATOM     29  C   UNL     1      -5.036  14.863  23.336  0.00  0.00    +0.000 A 
ATOM     30  F   UNL     1      -5.583  15.566  24.338  0.00  0.00    +0.000 F 
ATOM     31  C   UNL     1      -4.323  13.711  23.619  0.00  0.00    +0.000 A 
ATOM     32  C   UNL     1      -3.757  12.995  22.570  0.00  0.00    +0.000 A 
ATOM     33  F   UNL     1      -3.087  11.868  22.855  0.00  0.00    +0.000 F 
ENDBRANCH  25  26
ENDBRANCH   8  25
TORSDOF 5
ENDMDL
MODEL 3
REMARK VINA RESULT:      -8.2      1.684      2.152
REMARK  Name = 
REMARK  6 active torsions:
REMARK  status: ('A' for Active; 'I' for Inactive)
REMARK    1  A    between atoms: C_1  and  C_2
REMARK    2  A    between atoms: C_5  and  S_6
REMARK    3  A    between atoms: S_6  and  N_9
REMARK    4  A    between atoms: N_9  and  C_10
REMARK    5  A    between atoms: N_17  and  C_18
REMARK    6  A    between atoms: C_18  and  C_19
REMARK                            x       y       z     vdW  Elec       q    Type
REMARK                         _______ _______ _______ _____ _____    ______ ____
ROOT
ATOM      1  C   UNL     1       2.369   7.254  19.558  0.00  0.00    +0.000 A 
ATOM      2  C   UNL     1       2.217   7.956  18.375  0.00  0.00    +0.000 A 
ATOM      3  C   UNL     1       1.454   9.124  18.367  0.00  0.00    +0.000 A 
ATOM      4  C   UNL     1       0.871   9.603  19.545  0.00  0.00    +0.000 A 
ATOM      5  N   UNL     1       0.205  10.843  19.504  0.00  0.00    +0.000 N 
ATOM      6  C   UNL     1       0.093  11.536  20.797  0.00  0.00    +0.000 C 
ATOM      7  C   UNL     1      -0.508  12.956  20.597  0.00  0.00    +0.000 C 
ATOM      8  N   UNL     1      -1.786  13.064  19.853  0.00  0.00    +0.000 NA
ATOM      9  C   UNL     1      -1.656  12.246  18.610  0.00  0.00    +0.000 C 
ATOM     10  C   UNL     1      -1.057  10.816  18.745  0.00  0.00    +0.000 C 
ATOM     11  N   UNL     1       1.015   8.921  20.706  0.00  0.00    +0.000 NA
ATOM     12  C   UNL     1       1.743   7.768  20.686  0.00  0.00    +0.000 A 
ENDROOT
BRANCH   1  13
ATOM     13  N   UNL     1       3.255   6.134  19.588  0.00  0.00    +0.000 N 
ATOM     14  H   UNL     1       4.257   6.317  19.545  0.00  0.00    +0.000 HD
BRANCH  13  15
ATOM     15  S   UNL     1       2.834   4.783  18.643  0.00  0.00    +0.000 S 
ATOM     16  O   UNL     1       1.541   5.000  18.030  0.00  0.00    +0.000 OA
ATOM     17  O   UNL     1       3.091   3.618  19.464  0.00  0.00    +0.000 OA
BRANCH  15  22
ATOM     18  C   UNL     1       7.017   4.912  14.243  0.00  0.00    +0.000 C 
ATOM     19  C   UNL     1       5.986   4.885  15.335  0.00  0.00    +0.000 A 
ATOM     20  C   UNL     1       5.461   6.075  15.852  0.00  0.00    +0.000 A 
ATOM     21  C   UNL     1       4.507   6.043  16.868  0.00  0.00    +0.000 A 
ATOM     22  C   UNL     1       4.071   4.811  17.365  0.00  0.00    +0.000 A 
ATOM     23  C   UNL     1       4.606   3.616  16.881  0.00  0.00    +0.000 A 
ATOM     24  C   UNL     1       5.553   3.657  15.856  0.00  0.00    +0.000 A 
ENDBRANCH  15  22
ENDBRANCH  13  15
ENDBRANCH   1  13
BRANCH   8  25
ATOM     25  C   UNL     1      -2.984  12.672  20.619  0.00  0.00    +0.000 C 
BRANCH  25  26
ATOM     26  C   UNL     1      -3.313  13.416  21.912  0.00  0.00    +0.000 A 
ATOM     27  C   UNL     1      -3.284  12.876  23.211  0.00  0.00    +0.000 A 
ATOM     28  C   UNL     1      -3.619  13.665  24.323  0.00  0.00    +0.000 A 
ATOM     29  C   UNL     1      -3.955  15.004  24.150  0.00  0.00    +0.000 A 
ATOM     30  F   UNL     1      -4.262  15.756  25.217  0.00  0.00    +0.000 F 
ATOM     31  C   UNL     1      -3.965  15.573  22.887  0.00  0.00    +0.000 A 
ATOM     32  C   UNL     1      -3.649  14.779  21.790  0.00  0.00    +0.000 A 
ATOM     33  F   UNL     1      -3.641  15.347  20.574  0.00  0.00    +0.000 F 
ENDBRANCH  25  26
ENDBRANCH   8  25
TORSDOF 5
ENDMDL
MODEL 4
REMARK VINA RESULT:      -8.0      0.748      1.162
REMARK  Name = 
REMARK  6 active torsions:
REMARK  status: ('A' for Active; 'I' for Inactive)
REMARK    1  A    between atoms: C_1  and  C_2
REMARK    2  A    between atoms: C_5  and  S_6
REMARK    3  A    between atoms: S_6  and  N_9
REMARK    4  A    between atoms: N_9  and  C_10
REMARK    5  A    between atoms: N_17  and  C_18
REMARK    6  A    between atoms: C_18  and  C_19
REMARK                            x       y       z     vdW  Elec       q    Type
REMARK                         _______ _______ _______ _____ _____    ______ ____
ROOT
ATOM      1  C   UNL     1       2.567   5.785  19.025  0.00  0.00    +0.000 A 
ATOM      2  C   UNL     1       2.543   6.763  18.047  0.00  0.00    +0.000 A 
ATOM      3  C   UNL     1       2.026   8.022  18.352  0.00  0.00    +0.000 A 
ATOM      4  C   UNL     1       1.560   8.309  19.640  0.00  0.00    +0.000 A 
ATOM      5  N   UNL     1       1.152   9.626  19.923  0.00  0.00    +0.000 N 
ATOM      6  C   UNL     1       1.192  10.001  21.345  0.00  0.00    +0.000 C 
ATOM      7  C   UNL     1       0.881  11.516  21.512  0.00  0.00    +0.000 C 
ATOM      8  N   UNL     1      -0.358  12.037  20.887  0.00  0.00    +0.000 NA
ATOM      9  C   UNL     1      -0.405  11.527  19.484  0.00  0.00    +0.000 C 
ATOM     10  C   UNL     1      -0.099  10.019  19.251  0.00  0.00    +0.000 C 
ATOM     11  N   UNL     1       1.580   7.357  20.602  0.00  0.00    +0.000 NA
ATOM     12  C   UNL     1       2.066   6.125  20.276  0.00  0.00    +0.000 A 
ENDROOT
BRANCH   1  13
ATOM     13  N   UNL     1       3.214   4.543  18.747  0.00  0.00    +0.000 N 
ATOM     14  H   UNL     1       2.743   3.685  19.030  0.00  0.00    +0.000 HD
BRANCH  13  15
ATOM     15  S   UNL     1       4.887   4.453  19.045  0.00  0.00    +0.000 S 
ATOM     16  O   UNL     1       5.212   3.165  19.621  0.00  0.00    +0.000 OA
ATOM     17  O   UNL     1       5.248   5.688  19.710  0.00  0.00    +0.000 OA
BRANCH  15  22
ATOM     18  C   UNL     1       7.202   4.621  13.434  0.00  0.00    +0.000 C 
ATOM     19  C   UNL     1       6.624   4.584  14.819  0.00  0.00    +0.000 A 
ATOM     20  C   UNL     1       5.266   4.310  15.020  0.00  0.00    +0.000 A 
ATOM     21  C   UNL     1       4.736   4.280  16.309  0.00  0.00    +0.000 A 
ATOM     22  C   UNL     1       5.571   4.520  17.404  0.00  0.00    +0.000 A 
ATOM     23  C   UNL     1       6.921   4.824  17.218  0.00  0.00    +0.000 A 
ATOM     24  C   UNL     1       7.447   4.840  15.926  0.00  0.00    +0.000 A 
ENDBRANCH  15  22
ENDBRANCH  13  15
ENDBRANCH   1  13
BRANCH   8  25
ATOM     25  C   UNL     1      -1.602  11.708  21.609  0.00  0.00    +0.000 C 
BRANCH  25  26
ATOM     26  C   UNL     1      -2.684  12.777  21.747  0.00  0.00    +0.000 A 
ATOM     27  C   UNL     1      -2.957  13.805  20.826  0.00  0.00    +0.000 A 
ATOM     28  C   UNL     1      -3.978  14.737  21.074  0.00  0.00    +0.000 A 
ATOM     29  C   UNL     1      -4.752  14.631  22.226  0.00  0.00    +0.000 A 
ATOM     30  F   UNL     1      -5.733  15.516  22.451  0.00  0.00    +0.000 F 
ATOM     31  C   UNL     1      -4.527  13.614  23.138  0.00  0.00    +0.000 A 
ATOM     32  C   UNL     1      -3.502  12.706  22.892  0.00  0.00    +0.000 A 
ATOM     33  F   UNL     1      -3.307  11.712  23.772  0.00  0.00    +0.000 F 
ENDBRANCH  25  26
ENDBRANCH   8  25
TORSDOF 5
ENDMDL
MODEL 5
REMARK VINA RESULT:      -8.0      2.345      2.969
REMARK  Name = 
REMARK  6 active torsions:
REMARK  status: ('A' for Active; 'I' for Inactive)
REMARK    1  A    between atoms: C_1  and  C_2
REMARK    2  A    between atoms: C_5  and  S_6
REMARK    3  A    between atoms: S_6  and  N_9
REMARK    4  A    between atoms: N_9  and  C_10
REMARK    5  A    between atoms: N_17  and  C_18
REMARK    6  A    between atoms: C_18  and  C_19
REMARK                            x       y       z     vdW  Elec       q    Type
REMARK                         _______ _______ _______ _____ _____    ______ ____
ROOT
ATOM      1  C   UNL     1       2.741   5.768  19.289  0.00  0.00    +0.000 A 
ATOM      2  C   UNL     1       2.000   5.756  20.457  0.00  0.00    +0.000 A 
ATOM      3  C   UNL     1       1.321   6.910  20.849  0.00  0.00    +0.000 A 
ATOM      4  C   UNL     1       1.360   8.063  20.057  0.00  0.00    +0.000 A 
ATOM      5  N   UNL     1       0.569   9.162  20.440  0.00  0.00    +0.000 N 
ATOM      6  C   UNL     1       0.225  10.094  19.356  0.00  0.00    +0.000 C 
ATOM      7  C   UNL     1      -0.780  11.166  19.863  0.00  0.00    +0.000 C 
ATOM      8  N   UNL     1      -0.418  11.925  21.085  0.00  0.00    +0.000 NA
ATOM      9  C   UNL     1       0.035  10.939  22.111  0.00  0.00    +0.000 C 
ATOM     10  C   UNL     1       1.039   9.837  21.662  0.00  0.00    +0.000 C 
ATOM     11  N   UNL     1       2.083   8.083  18.912  0.00  0.00    +0.000 NA
ATOM     12  C   UNL     1       2.760   6.952  18.562  0.00  0.00    +0.000 A 
ENDROOT
BRANCH   1  13
ATOM     13  N   UNL     1       3.326   4.550  18.828  0.00  0.00    +0.000 N 
ATOM     14  H   UNL     1       2.824   3.681  19.008  0.00  0.00    +0.000 HD
BRANCH  13  15
ATOM     15  S   UNL     1       5.000   4.354  19.059  0.00  0.00    +0.000 S 
ATOM     16  O   UNL     1       5.269   3.032  19.584  0.00  0.00    +0.000 OA
ATOM     17  O   UNL     1       5.457   5.544  19.747  0.00  0.00    +0.000 OA
BRANCH  15  22
ATOM     18  C   UNL     1       7.159   4.686  13.393  0.00  0.00    +0.000 C 
ATOM     19  C   UNL     1       6.630   4.600  14.796  0.00  0.00    +0.000 A 
ATOM     20  C   UNL     1       7.478   4.797  15.892  0.00  0.00    +0.000 A 
ATOM     21  C   UNL     1       6.981   4.712  17.192  0.00  0.00    +0.000 A 
ATOM     22  C   UNL     1       5.627   4.434  17.396  0.00  0.00    +0.000 A 
ATOM     23  C   UNL     1       4.775   4.206  16.313  0.00  0.00    +0.000 A 
ATOM     24  C   UNL     1       5.277   4.304  15.015  0.00  0.00    +0.000 A 
ENDBRANCH  15  22
ENDBRANCH  13  15
ENDBRANCH   1  13
BRANCH   8  25
ATOM     25  C   UNL     1       0.594  12.978  20.883  0.00  0.00    +0.000 C 
BRANCH  25  26
ATOM     26  C   UNL     1       0.136  14.380  20.486  0.00  0.00    +0.000 A 
ATOM     27  C   UNL     1      -0.277  15.398  21.365  0.00  0.00    +0.000 A 
ATOM     28  C   UNL     1      -0.686  16.648  20.872  0.00  0.00    +0.000 A 
ATOM     29  C   UNL     1      -0.657  16.900  19.504  0.00  0.00    +0.000 A 
ATOM     30  F   UNL     1      -1.037  18.099  19.040  0.00  0.00    +0.000 F 
ATOM     31  C   UNL     1      -0.228  15.928  18.615  0.00  0.00    +0.000 A 
ATOM     32  C   UNL     1       0.158  14.688  19.111  0.00  0.00    +0.000 A 
ATOM     33  F   UNL     1       0.592  13.761  18.242  0.00  0.00    +0.000 F 
ENDBRANCH  25  26
ENDBRANCH   8  25
TORSDOF 5
ENDMDL
MODEL 6
REMARK VINA RESULT:      -8.0      0.981      1.491
REMARK  Name = 
REMARK  6 active torsions:
REMARK  status: ('A' for Active; 'I' for Inactive)
REMARK    1  A    between atoms: C_1  and  C_2
REMARK    2  A    between atoms: C_5  and  S_6
REMARK    3  A    between atoms: S_6  and  N_9
REMARK    4  A    between atoms: N_9  and  C_10
REMARK    5  A    between atoms: N_17  and  C_18
REMARK    6  A    between atoms: C_18  and  C_19
REMARK                            x       y       z     vdW  Elec       q    Type
REMARK                         _______ _______ _______ _____ _____    ______ ____
ROOT
ATOM      1  C   UNL     1       2.609   5.700  19.041  0.00  0.00    +0.000 A 
ATOM      2  C   UNL     1       2.686   6.657  18.045  0.00  0.00    +0.000 A 
ATOM      3  C   UNL     1       2.174   7.933  18.282  0.00  0.00    +0.000 A 
ATOM      4  C   UNL     1       1.614   8.258  19.522  0.00  0.00    +0.000 A 
ATOM      5  N   UNL     1       1.214   9.589  19.745  0.00  0.00    +0.000 N 
ATOM      6  C   UNL     1       1.148   9.994  21.158  0.00  0.00    +0.000 C 
ATOM      7  C   UNL     1       0.859  11.517  21.269  0.00  0.00    +0.000 C 
ATOM      8  N   UNL     1      -0.314  12.051  20.536  0.00  0.00    +0.000 NA
ATOM      9  C   UNL     1      -0.260  11.512  19.145  0.00  0.00    +0.000 C 
ATOM     10  C   UNL     1       0.030   9.993  18.967  0.00  0.00    +0.000 C 
ATOM     11  N   UNL     1       1.535   7.327  20.501  0.00  0.00    +0.000 NA
ATOM     12  C   UNL     1       2.018   6.078  20.240  0.00  0.00    +0.000 A 
ENDROOT
BRANCH   1  13
ATOM     13  N   UNL     1       3.249   4.440  18.840  0.00  0.00    +0.000 N 
ATOM     14  H   UNL     1       2.789   3.607  19.207  0.00  0.00    +0.000 HD
BRANCH  13  15
ATOM     15  S   UNL     1       4.931   4.372  19.087  0.00  0.00    +0.000 S 
ATOM     16  O   UNL     1       5.290   3.092  19.658  0.00  0.00    +0.000 OA
ATOM     17  O   UNL     1       5.297   5.614  19.735  0.00  0.00    +0.000 OA
BRANCH  15  22
ATOM     18  C   UNL     1       7.070   4.540  13.406  0.00  0.00    +0.000 C 
ATOM     19  C   UNL     1       6.536   4.502  14.808  0.00  0.00    +0.000 A 
ATOM     20  C   UNL     1       5.192   4.197  15.053  0.00  0.00    +0.000 A 
ATOM     21  C   UNL     1       4.701   4.167  16.359  0.00  0.00    +0.000 A 
ATOM     22  C   UNL     1       5.563   4.439  17.425  0.00  0.00    +0.000 A 
ATOM     23  C   UNL     1       6.899   4.774  17.195  0.00  0.00    +0.000 A 
ATOM     24  C   UNL     1       7.385   4.790  15.887  0.00  0.00    +0.000 A 
ENDBRANCH  15  22
ENDBRANCH  13  15
ENDBRANCH   1  13
BRANCH   8  25
ATOM     25  C   UNL     1      -1.619  11.763  21.162  0.00  0.00    +0.000 C 
BRANCH  25  26
ATOM     26  C   UNL     1      -2.477  12.927  21.654  0.00  0.00    +0.000 A 
ATOM     27  C   UNL     1      -2.300  13.640  22.853  0.00  0.00    +0.000 A 
ATOM     28  C   UNL     1      -3.167  14.690  23.199  0.00  0.00    +0.000 A 
ATOM     29  C   UNL     1      -4.197  15.053  22.336  0.00  0.00    +0.000 A 
ATOM     30  F   UNL     1      -5.014  16.064  22.665  0.00  0.00    +0.000 F 
ATOM     31  C   UNL     1      -4.380  14.389  21.135  0.00  0.00    +0.000 A 
ATOM     32  C   UNL     1      -3.527  13.340  20.810  0.00  0.00    +0.000 A 
ATOM     33  F   UNL     1      -3.702  12.718  19.633  0.00  0.00    +0.000 F 
ENDBRANCH  25  26
ENDBRANCH   8  25
TORSDOF 5
ENDMDL
MODEL 7
REMARK VINA RESULT:      -8.0      3.088      3.795
REMARK  Name = 
REMARK  6 active torsions:
REMARK  status: ('A' for Active; 'I' for Inactive)
REMARK    1  A    between atoms: C_1  and  C_2
REMARK    2  A    between atoms: C_5  and  S_6
REMARK    3  A    between atoms: S_6  and  N_9
REMARK    4  A    between atoms: N_9  and  C_10
REMARK    5  A    between atoms: N_17  and  C_18
REMARK    6  A    between atoms: C_18  and  C_19
REMARK                            x       y       z     vdW  Elec       q    Type
REMARK                         _______ _______ _______ _____ _____    ______ ____
ROOT
ATOM      1  C   UNL     1       2.655   5.992  19.213  0.00  0.00    +0.000 A 
ATOM      2  C   UNL     1       1.871   6.201  20.334  0.00  0.00    +0.000 A 
ATOM      3  C   UNL     1       1.311   7.461  20.551  0.00  0.00    +0.000 A 
ATOM      4  C   UNL     1       1.512   8.497  19.634  0.00  0.00    +0.000 A 
ATOM      5  N   UNL     1       0.835   9.714  19.843  0.00  0.00    +0.000 N 
ATOM      6  C   UNL     1       0.643  10.538  18.640  0.00  0.00    +0.000 C 
ATOM      7  C   UNL     1      -0.255  11.765  18.965  0.00  0.00    +0.000 C 
ATOM      8  N   UNL     1       0.140  12.624  20.108  0.00  0.00    +0.000 NA
ATOM      9  C   UNL     1       0.438  11.727  21.264  0.00  0.00    +0.000 C 
ATOM     10  C   UNL     1       1.329  10.478  21.001  0.00  0.00    +0.000 C 
ATOM     11  N   UNL     1       2.278   8.300  18.535  0.00  0.00    +0.000 NA
ATOM     12  C   UNL     1       2.837   7.069  18.356  0.00  0.00    +0.000 A 
ENDROOT
BRANCH   1  13
ATOM     13  N   UNL     1       3.117   4.671  18.929  0.00  0.00    +0.000 N 
ATOM     14  H   UNL     1       2.546   3.887  19.244  0.00  0.00    +0.000 HD
BRANCH  13  15
ATOM     15  S   UNL     1       4.774   4.358  19.163  0.00  0.00    +0.000 S 
ATOM     16  O   UNL     1       4.953   2.999  19.627  0.00  0.00    +0.000 OA
ATOM     17  O   UNL     1       5.297   5.483  19.910  0.00  0.00    +0.000 OA
BRANCH  15  22
ATOM     18  C   UNL     1       6.976   4.822  13.523  0.00  0.00    +0.000 C 
ATOM     19  C   UNL     1       6.437   4.706  14.920  0.00  0.00    +0.000 A 
ATOM     20  C   UNL     1       7.049   5.387  15.980  0.00  0.00    +0.000 A 
ATOM     21  C   UNL     1       6.546   5.272  17.276  0.00  0.00    +0.000 A 
ATOM     22  C   UNL     1       5.421   4.476  17.510  0.00  0.00    +0.000 A 
ATOM     23  C   UNL     1       4.818   3.767  16.469  0.00  0.00    +0.000 A 
ATOM     24  C   UNL     1       5.320   3.897  15.173  0.00  0.00    +0.000 A 
ENDBRANCH  15  22
ENDBRANCH  13  15
ENDBRANCH   1  13
BRANCH   8  25
ATOM     25  C   UNL     1       1.272  13.530  19.839  0.00  0.00    +0.000 C 
BRANCH  25  26
ATOM     26  C   UNL     1       1.003  14.871  19.159  0.00  0.00    +0.000 A 
ATOM     27  C   UNL     1      -0.261  15.416  18.870  0.00  0.00    +0.000 A 
ATOM     28  C   UNL     1      -0.376  16.661  18.229  0.00  0.00    +0.000 A 
ATOM     29  C   UNL     1       0.767  17.383  17.902  0.00  0.00    +0.000 A 
ATOM     30  F   UNL     1       0.651  18.576  17.302  0.00  0.00    +0.000 F 
ATOM     31  C   UNL     1       2.025  16.887  18.200  0.00  0.00    +0.000 A 
ATOM     32  C   UNL     1       2.130  15.646  18.818  0.00  0.00    +0.000 A 
ATOM     33  F   UNL     1       3.354  15.186  19.121  0.00  0.00    +0.000 F 
ENDBRANCH  25  26
ENDBRANCH   8  25
TORSDOF 5
ENDMDL
MODEL 8
REMARK VINA RESULT:      -7.9      1.821      2.201
REMARK  Name = 
REMARK  6 active torsions:
REMARK  status: ('A' for Active; 'I' for Inactive)
REMARK    1  A    between atoms: C_1  and  C_2
REMARK    2  A    between atoms: C_5  and  S_6
REMARK    3  A    between atoms: S_6  and  N_9
REMARK    4  A    between atoms: N_9  and  C_10
REMARK    5  A    between atoms: N_17  and  C_18
REMARK    6  A    between atoms: C_18  and  C_19
REMARK                            x       y       z     vdW  Elec       q    Type
REMARK                         _______ _______ _______ _____ _____    ______ ____
ROOT
ATOM      1  C   UNL     1       2.316   7.065  20.000  0.00  0.00    +0.000 A 
ATOM      2  C   UNL     1       2.383   7.763  18.807  0.00  0.00    +0.000 A 
ATOM      3  C   UNL     1       1.632   8.929  18.655  0.00  0.00    +0.000 A 
ATOM      4  C   UNL     1       0.840   9.409  19.703  0.00  0.00    +0.000 A 
ATOM      5  N   UNL     1       0.191  10.647  19.536  0.00  0.00    +0.000 N 
ATOM      6  C   UNL     1      -0.159  11.344  20.783  0.00  0.00    +0.000 C 
ATOM      7  C   UNL     1      -0.715  12.762  20.471  0.00  0.00    +0.000 C 
ATOM      8  N   UNL     1      -1.835  12.865  19.503  0.00  0.00    +0.000 NA
ATOM      9  C   UNL     1      -1.475  12.043  18.309  0.00  0.00    +0.000 C 
ATOM     10  C   UNL     1      -0.909  10.615  18.557  0.00  0.00    +0.000 C 
ATOM     11  N   UNL     1       0.769   8.731  20.873  0.00  0.00    +0.000 NA
ATOM     12  C   UNL     1       1.491   7.580  20.991  0.00  0.00    +0.000 A 
ENDROOT
BRANCH   1  13
ATOM     13  N   UNL     1       3.182   5.947  20.197  0.00  0.00    +0.000 N 
ATOM     14  H   UNL     1       4.182   6.127  20.280  0.00  0.00    +0.000 HD
BRANCH  13  15
ATOM     15  S   UNL     1       2.883   4.556  19.264  0.00  0.00    +0.000 S 
ATOM     16  O   UNL     1       1.592   4.668  18.620  0.00  0.00    +0.000 OA
ATOM     17  O   UNL     1       3.208   3.424  20.107  0.00  0.00    +0.000 OA
BRANCH  15  22
ATOM     18  C   UNL     1       7.187   4.841  14.990  0.00  0.00    +0.000 C 
ATOM     19  C   UNL     1       6.118   4.772  16.043  0.00  0.00    +0.000 A 
ATOM     20  C   UNL     1       4.937   4.055  15.815  0.00  0.00    +0.000 A 
ATOM     21  C   UNL     1       3.947   3.999  16.795  0.00  0.00    +0.000 A 
ATOM     22  C   UNL     1       4.143   4.658  18.012  0.00  0.00    +0.000 A 
ATOM     23  C   UNL     1       5.302   5.401  18.243  0.00  0.00    +0.000 A 
ATOM     24  C   UNL     1       6.294   5.443  17.261  0.00  0.00    +0.000 A 
ENDBRANCH  15  22
ENDBRANCH  13  15
ENDBRANCH   1  13
BRANCH   8  25
ATOM     25  C   UNL     1      -3.152  12.471  20.036  0.00  0.00    +0.000 C 
BRANCH  25  26
ATOM     26  C   UNL     1      -3.835  13.372  21.064  0.00  0.00    +0.000 A 
ATOM     27  C   UNL     1      -3.321  14.572  21.587  0.00  0.00    +0.000 A 
ATOM     28  C   UNL     1      -4.046  15.308  22.539  0.00  0.00    +0.000 A 
ATOM     29  C   UNL     1      -5.299  14.867  22.952  0.00  0.00    +0.000 A 
ATOM     30  F   UNL     1      -5.992  15.580  23.852  0.00  0.00    +0.000 F 
ATOM     31  C   UNL     1      -5.845  13.704  22.435  0.00  0.00    +0.000 A 
ATOM     32  C   UNL     1      -5.113  12.973  21.506  0.00  0.00    +0.000 A 
ATOM     33  F   UNL     1      -5.661  11.860  20.996  0.00  0.00    +0.000 F 
ENDBRANCH  25  26
ENDBRANCH   8  25
TORSDOF 5
ENDMDL
MODEL 9
REMARK VINA RESULT:      -7.9      2.082      2.771
REMARK  Name = 
REMARK  6 active torsions:
REMARK  status: ('A' for Active; 'I' for Inactive)
REMARK    1  A    between atoms: C_1  and  C_2
REMARK    2  A    between atoms: C_5  and  S_6
REMARK    3  A    between atoms: S_6  and  N_9
REMARK    4  A    between atoms: N_9  and  C_10
REMARK    5  A    between atoms: N_17  and  C_18
REMARK    6  A    between atoms: C_18  and  C_19
REMARK                            x       y       z     vdW  Elec       q    Type
REMARK                         _______ _______ _______ _____ _____    ______ ____
ROOT
ATOM      1  C   UNL     1       2.738   5.774  19.282  0.00  0.00    +0.000 A 
ATOM      2  C   UNL     1       2.012   5.720  20.458  0.00  0.00    +0.000 A 
ATOM      3  C   UNL     1       1.319   6.854  20.886  0.00  0.00    +0.000 A 
ATOM      4  C   UNL     1       1.331   8.026  20.124  0.00  0.00    +0.000 A 
ATOM      5  N   UNL     1       0.527   9.103  20.544  0.00  0.00    +0.000 N 
ATOM      6  C   UNL     1       0.156  10.057  19.487  0.00  0.00    +0.000 C 
ATOM      7  C   UNL     1      -0.860  11.099  20.034  0.00  0.00    +0.000 C 
ATOM      8  N   UNL     1      -0.495  11.832  21.270  0.00  0.00    +0.000 NA
ATOM      9  C   UNL     1      -0.015  10.828  22.265  0.00  0.00    +0.000 C 
ATOM     10  C   UNL     1       1.001   9.754  21.777  0.00  0.00    +0.000 C 
ATOM     11  N   UNL     1       2.040   8.087  18.972  0.00  0.00    +0.000 NA
ATOM     12  C   UNL     1       2.731   6.976  18.585  0.00  0.00    +0.000 A 
ENDROOT
BRANCH   1  13
ATOM     13  N   UNL     1       3.336   4.577  18.783  0.00  0.00    +0.000 N 
ATOM     14  H   UNL     1       2.838   3.699  18.924  0.00  0.00    +0.000 HD
BRANCH  13  15
ATOM     15  S   UNL     1       5.009   4.382  19.030  0.00  0.00    +0.000 S 
ATOM     16  O   UNL     1       5.273   3.060  19.557  0.00  0.00    +0.000 OA
ATOM     17  O   UNL     1       5.459   5.572  19.721  0.00  0.00    +0.000 OA
BRANCH  15  22
ATOM     18  C   UNL     1       7.218   4.714  13.384  0.00  0.00    +0.000 C 
ATOM     19  C   UNL     1       6.677   4.628  14.782  0.00  0.00    +0.000 A 
ATOM     20  C   UNL     1       7.512   4.839  15.885  0.00  0.00    +0.000 A 
ATOM     21  C   UNL     1       7.004   4.754  17.181  0.00  0.00    +0.000 A 
ATOM     22  C   UNL     1       5.650   4.461  17.372  0.00  0.00    +0.000 A 
ATOM     23  C   UNL     1       4.811   4.220  16.283  0.00  0.00    +0.000 A 
ATOM     24  C   UNL     1       5.325   4.318  14.989  0.00  0.00    +0.000 A 
ENDBRANCH  15  22
ENDBRANCH  13  15
ENDBRANCH   1  13
BRANCH   8  25
ATOM     25  C   UNL     1       0.498  12.906  21.084  0.00  0.00    +0.000 C 
BRANCH  25  26
ATOM     26  C   UNL     1       0.087  14.175  20.339  0.00  0.00    +0.000 A 
ATOM     27  C   UNL     1       0.691  14.688  19.177  0.00  0.00    +0.000 A 
ATOM     28  C   UNL     1       0.224  15.875  18.590  0.00  0.00    +0.000 A 
ATOM     29  C   UNL     1      -0.867  16.540  19.140  0.00  0.00    +0.000 A 
ATOM     30  F   UNL     1      -1.316  17.666  18.567  0.00  0.00    +0.000 F 
ATOM     31  C   UNL     1      -1.502  16.046  20.267  0.00  0.00    +0.000 A 
ATOM     32  C   UNL     1      -1.021  14.879  20.851  0.00  0.00    +0.000 A 
ATOM     33  F   UNL     1      -1.657  14.398  21.931  0.00  0.00    +0.000 F 
ENDBRANCH  25  26
ENDBRANCH   8  25
TORSDOF 5
ENDMDL
