MODEL 1
REMARK VINA RESULT:      -8.0      0.000      0.000
REMARK  Name = 
REMARK  5 active torsions:
REMARK  status: ('A' for Active; 'I' for Inactive)
REMARK    1  A    between atoms: C_2  and  C_12
REMARK    2  A    between atoms: N_3  and  C_4
REMARK    3  A    between atoms: C_4  and  C_5
REMARK    4  A    between atoms: C_16  and  N_17
REMARK    5  A    between atoms: C_27  and  O_28
REMARK                            x       y       z     vdW  Elec       q    Type
REMARK                         _______ _______ _______ _____ _____    ______ ____
ROOT
ATOM      1  C   UNL     1       1.377   9.127  19.496  0.00  0.00    +0.000 A 
ATOM      2  N   UNL     1       0.815   9.026  20.761  0.00  0.00    +0.000 NA
ATOM      3  C   UNL     1       0.195  10.080  21.170  0.00  0.00    +0.000 A 
ATOM      4  S   UNL     1      -0.565  10.214  22.732  0.00  0.00    +0.000 S 
ATOM      5  C   UNL     1      -1.095  11.881  22.405  0.00  0.00    +0.000 A 
ATOM      6  C   UNL     1      -0.676  12.223  21.170  0.00  0.00    +0.000 A 
ATOM      7  N   UNL     1       0.026  11.255  20.489  0.00  0.00    +0.000 N 
ATOM      8  C   UNL     1       0.555  11.407  19.237  0.00  0.00    +0.000 A 
ATOM      9  O   UNL     1       0.480  12.419  18.538  0.00  0.00    +0.000 OA
ATOM     10  C   UNL     1       1.295  10.225  18.708  0.00  0.00    +0.000 A 
ENDROOT
BRANCH   5  11
ATOM     11  N   UNL     1      -1.811  12.683  23.286  0.00  0.00    +0.000 N 
ATOM     12  C   UNL     1      -3.193  12.371  23.725  0.00  0.00    +0.000 C 
ATOM     13  C   UNL     1      -4.172  13.426  23.191  0.00  0.00    +0.000 C 
ATOM     14  O   UNL     1      -3.784  14.749  23.592  0.00  0.00    +0.000 OA
ATOM     15  C   UNL     1      -2.473  15.052  23.091  0.00  0.00    +0.000 C 
ATOM     16  C   UNL     1      -1.425  14.068  23.635  0.00  0.00    +0.000 C 
ENDBRANCH   5  11
BRANCH   1  18
ATOM     17  O   UNL     1       2.401   7.736  17.794  0.00  0.00    +0.000 OA
ATOM     18  C   UNL     1       2.156   7.936  18.986  0.00  0.00    +0.000 C 
ATOM     19  N   UNL     1       2.602   7.086  19.969  0.00  0.00    +0.000 N 
ATOM     20  H   UNL     1       2.400   7.324  20.932  0.00  0.00    +0.000 HD
BRANCH  19  21
ATOM     21  C   UNL     1       3.418   5.940  19.642  0.00  0.00    +0.000 C 
BRANCH  21  22
ATOM     22  C   UNL     1       2.589   4.719  19.337  0.00  0.00    +0.000 A 
ATOM     23  C   UNL     1       1.571   4.317  20.221  0.00  0.00    +0.000 A 
ATOM     24  C   UNL     1       0.790   3.194  19.939  0.00  0.00    +0.000 A 
ATOM     25  C   UNL     1       1.030   2.469  18.779  0.00  0.00    +0.000 A 
ATOM     26  F   UNL     1       0.283   1.390  18.507  0.00  0.00    +0.000 F 
ATOM     27  C   UNL     1       2.035   2.845  17.896  0.00  0.00    +0.000 A 
ATOM     28  C   UNL     1       2.818   3.967  18.175  0.00  0.00    +0.000 A 
ENDBRANCH  21  22
ENDBRANCH  19  21
ENDBRANCH   1  18
BRANCH  10  29
ATOM     29  O   UNL     1       1.863  10.355  17.458  0.00  0.00    +0.000 OA
ATOM     30  H   UNL     1       1.294  10.971  16.953  0.00  0.00    +0.000 HD
ENDBRANCH  10  29
TORSDOF 5
ENDMDL
MODEL 2
REMARK VINA RESULT:      -8.0      2.700      3.391
REMARK  Name = 
REMARK  5 active torsions:
REMARK  status: ('A' for Active; 'I' for Inactive)
REMARK    1  A    between atoms: C_2  and  C_12
REMARK    2  A    between atoms: N_3  and  C_4
REMARK    3  A    between atoms: C_4  and  C_5
REMARK    4  A    between atoms: C_16  and  N_17
REMARK    5  A    between atoms: C_27  and  O_28
REMARK                            x       y       z     vdW  Elec       q    Type
REMARK                         _______ _______ _______ _____ _____    ______ ____
ROOT
ATOM      1  C   UNL     1       1.986   7.201  19.865  0.00  0.00    +0.000 A 
ATOM      2  N   UNL     1       1.340   7.485  21.060  0.00  0.00    +0.000 NA
ATOM      3  C   UNL     1       0.873   8.683  21.158  0.00  0.00    +0.000 A 
ATOM      4  S   UNL     1       0.051   9.292  22.568  0.00  0.00    +0.000 S 
ATOM      5  C   UNL     1      -0.185  10.890  21.823  0.00  0.00    +0.000 A 
ATOM      6  C   UNL     1       0.358  10.866  20.589  0.00  0.00    +0.000 A 
ATOM      7  N   UNL     1       0.936   9.673  20.216  0.00  0.00    +0.000 N 
ATOM      8  C   UNL     1       1.558   9.446  19.018  0.00  0.00    +0.000 A 
ATOM      9  O   UNL     1       1.688  10.262  18.105  0.00  0.00    +0.000 OA
ATOM     10  C   UNL     1       2.129   8.079  18.845  0.00  0.00    +0.000 A 
ENDROOT
BRANCH   5  11
ATOM     11  N   UNL     1      -0.815  11.973  22.426  0.00  0.00    +0.000 N 
ATOM     12  C   UNL     1      -2.113  11.862  23.134  0.00  0.00    +0.000 C 
ATOM     13  C   UNL     1      -3.198  12.645  22.382  0.00  0.00    +0.000 C 
ATOM     14  O   UNL     1      -2.819  14.018  22.199  0.00  0.00    +0.000 OA
ATOM     15  C   UNL     1      -1.598  14.097  21.447  0.00  0.00    +0.000 C 
ATOM     16  C   UNL     1      -0.447  13.383  22.173  0.00  0.00    +0.000 C 
ENDBRANCH   5  11
BRANCH   1  18
ATOM     17  O   UNL     1       1.932   4.787  19.635  0.00  0.00    +0.000 OA
ATOM     18  C   UNL     1       2.594   5.824  19.715  0.00  0.00    +0.000 C 
ATOM     19  N   UNL     1       3.967   5.814  19.649  0.00  0.00    +0.000 N 
ATOM     20  H   UNL     1       4.452   6.702  19.684  0.00  0.00    +0.000 HD
BRANCH  19  21
ATOM     21  C   UNL     1       4.688   4.580  19.437  0.00  0.00    +0.000 C 
BRANCH  21  22
ATOM     22  C   UNL     1       5.342   4.530  18.080  0.00  0.00    +0.000 A 
ATOM     23  C   UNL     1       6.733   4.700  17.960  0.00  0.00    +0.000 A 
ATOM     24  C   UNL     1       7.348   4.643  16.707  0.00  0.00    +0.000 A 
ATOM     25  C   UNL     1       6.574   4.423  15.575  0.00  0.00    +0.000 A 
ATOM     26  F   UNL     1       7.162   4.369  14.372  0.00  0.00    +0.000 F 
ATOM     27  C   UNL     1       5.197   4.260  15.671  0.00  0.00    +0.000 A 
ATOM     28  C   UNL     1       4.579   4.317  16.922  0.00  0.00    +0.000 A 
ENDBRANCH  21  22
ENDBRANCH  19  21
ENDBRANCH   1  18
BRANCH  10  29
ATOM     29  O   UNL     1       2.785   7.825  17.658  0.00  0.00    +0.000 OA
ATOM     30  H   UNL     1       3.741   7.792  17.867  0.00  0.00    +0.000 HD
ENDBRANCH  10  29
TORSDOF 5
ENDMDL
MODEL 3
REMARK VINA RESULT:      -7.8      1.431      1.519
REMARK  Name = 
REMARK  5 active torsions:
REMARK  status: ('A' for Active; 'I' for Inactive)
REMARK    1  A    between atoms: C_2  and  C_12
REMARK    2  A    between atoms: N_3  and  C_4
REMARK    3  A    between atoms: C_4  and  C_5
REMARK    4  A    between atoms: C_16  and  N_17
REMARK    5  A    between atoms: C_27  and  O_28
REMARK                            x       y       z     vdW  Elec       q    Type
REMARK                         _______ _______ _______ _____ _____    ______ ____
ROOT
ATOM      1  C   UNL     1       0.276   9.854  19.703  0.00  0.00    +0.000 A 
ATOM      2  N   UNL     1       0.142  10.055  21.070  0.00  0.00    +0.000 NA
ATOM      3  C   UNL     1      -0.767  10.904  21.411  0.00  0.00    +0.000 A 
ATOM      4  S   UNL     1      -1.106  11.352  23.060  0.00  0.00    +0.000 S 
ATOM      5  C   UNL     1      -2.390  12.478  22.560  0.00  0.00    +0.000 A 
ATOM      6  C   UNL     1      -2.480  12.446  21.216  0.00  0.00    +0.000 A 
ATOM      7  N   UNL     1      -1.604  11.596  20.580  0.00  0.00    +0.000 N 
ATOM      8  C   UNL     1      -1.519  11.432  19.223  0.00  0.00    +0.000 A 
ATOM      9  O   UNL     1      -2.206  12.010  18.380  0.00  0.00    +0.000 OA
ATOM     10  C   UNL     1      -0.478  10.469  18.762  0.00  0.00    +0.000 A 
ENDROOT
BRANCH   5  11
ATOM     11  N   UNL     1      -3.154  13.257  23.422  0.00  0.00    +0.000 N 
ATOM     12  C   UNL     1      -4.200  12.694  24.309  0.00  0.00    +0.000 C 
ATOM     13  C   UNL     1      -5.588  13.190  23.878  0.00  0.00    +0.000 C 
ATOM     14  O   UNL     1      -5.643  14.626  23.852  0.00  0.00    +0.000 OA
ATOM     15  C   UNL     1      -4.670  15.140  22.930  0.00  0.00    +0.000 C 
ATOM     16  C   UNL     1      -3.245  14.731  23.334  0.00  0.00    +0.000 C 
ENDBRANCH   5  11
BRANCH   1  18
ATOM     17  O   UNL     1       1.995   9.042  18.197  0.00  0.00    +0.000 OA
ATOM     18  C   UNL     1       1.359   8.903  19.244  0.00  0.00    +0.000 C 
ATOM     19  N   UNL     1       1.606   7.865  20.109  0.00  0.00    +0.000 N 
ATOM     20  H   UNL     1       1.075   7.826  20.971  0.00  0.00    +0.000 HD
BRANCH  19  21
ATOM     21  C   UNL     1       2.658   6.913  19.841  0.00  0.00    +0.000 C 
BRANCH  21  22
ATOM     22  C   UNL     1       2.118   5.546  19.507  0.00  0.00    +0.000 A 
ATOM     23  C   UNL     1       1.548   4.745  20.513  0.00  0.00    +0.000 A 
ATOM     24  C   UNL     1       1.034   3.483  20.208  0.00  0.00    +0.000 A 
ATOM     25  C   UNL     1       1.095   3.018  18.901  0.00  0.00    +0.000 A 
ATOM     26  F   UNL     1       0.604   1.806  18.607  0.00  0.00    +0.000 F 
ATOM     27  C   UNL     1       1.660   3.790  17.893  0.00  0.00    +0.000 A 
ATOM     28  C   UNL     1       2.175   5.052  18.194  0.00  0.00    +0.000 A 
ENDBRANCH  21  22
ENDBRANCH  19  21
ENDBRANCH   1  18
BRANCH  10  29
ATOM     29  O   UNL     1      -0.348  10.300  17.399  0.00  0.00    +0.000 OA
ATOM     30  H   UNL     1      -0.026  11.152  17.039  0.00  0.00    +0.000 HD
ENDBRANCH  10  29
TORSDOF 5
ENDMDL
MODEL 4
REMARK VINA RESULT:      -7.8      3.917      9.483
REMARK  Name = 
REMARK  5 active torsions:
REMARK  status: ('A' for Active; 'I' for Inactive)
REMARK    1  A    between atoms: C_2  and  C_12
REMARK    2  A    between atoms: N_3  and  C_4
REMARK    3  A    between atoms: C_4  and  C_5
REMARK    4  A    between atoms: C_16  and  N_17
REMARK    5  A    between atoms: C_27  and  O_28
REMARK                            x       y       z     vdW  Elec       q    Type
REMARK                         _______ _______ _______ _____ _____    ______ ____
ROOT
ATOM      1  C   UNL     1       0.992   8.450  20.421  0.00  0.00    +0.000 A 
ATOM      2  N   UNL     1       1.661   7.253  20.632  0.00  0.00    +0.000 NA
ATOM      3  C   UNL     1       2.452   6.893  19.678  0.00  0.00    +0.000 A 
ATOM      4  S   UNL     1       3.377   5.417  19.689  0.00  0.00    +0.000 S 
ATOM      5  C   UNL     1       4.085   5.771  18.096  0.00  0.00    +0.000 A 
ATOM      6  C   UNL     1       3.592   6.950  17.666  0.00  0.00    +0.000 A 
ATOM      7  N   UNL     1       2.704   7.569  18.516  0.00  0.00    +0.000 N 
ATOM      8  C   UNL     1       2.076   8.758  18.260  0.00  0.00    +0.000 A 
ATOM      9  O   UNL     1       2.212   9.444  17.246  0.00  0.00    +0.000 OA
ATOM     10  C   UNL     1       1.138   9.225  19.321  0.00  0.00    +0.000 A 
ENDROOT
BRANCH   5  11
ATOM     11  N   UNL     1       4.985   4.956  17.419  0.00  0.00    +0.000 N 
ATOM     12  C   UNL     1       6.054   4.188  18.102  0.00  0.00    +0.000 C 
ATOM     13  C   UNL     1       7.435   4.725  17.701  0.00  0.00    +0.000 C 
ATOM     14  O   UNL     1       7.609   4.706  16.275  0.00  0.00    +0.000 OA
ATOM     15  C   UNL     1       6.605   5.517  15.645  0.00  0.00    +0.000 C 
ATOM     16  C   UNL     1       5.192   4.999  15.955  0.00  0.00    +0.000 C 
ENDBRANCH   5  11
BRANCH   1  18
ATOM     17  O   UNL     1      -0.877   8.179  21.943  0.00  0.00    +0.000 OA
ATOM     18  C   UNL     1       0.016   8.896  21.487  0.00  0.00    +0.000 C 
ATOM     19  N   UNL     1       0.215  10.179  21.937  0.00  0.00    +0.000 N 
ATOM     20  H   UNL     1       0.988  10.706  21.549  0.00  0.00    +0.000 HD
BRANCH  19  21
ATOM     21  C   UNL     1      -0.594  10.723  23.003  0.00  0.00    +0.000 C 
BRANCH  21  22
ATOM     22  C   UNL     1      -1.661  11.655  22.487  0.00  0.00    +0.000 A 
ATOM     23  C   UNL     1      -1.574  12.178  21.184  0.00  0.00    +0.000 A 
ATOM     24  C   UNL     1      -2.565  13.033  20.696  0.00  0.00    +0.000 A 
ATOM     25  C   UNL     1      -3.639  13.370  21.509  0.00  0.00    +0.000 A 
ATOM     26  F   UNL     1      -4.589  14.190  21.043  0.00  0.00    +0.000 F 
ATOM     27  C   UNL     1      -3.740  12.870  22.802  0.00  0.00    +0.000 A 
ATOM     28  C   UNL     1      -2.751  12.016  23.294  0.00  0.00    +0.000 A 
ENDBRANCH  21  22
ENDBRANCH  19  21
ENDBRANCH   1  18
BRANCH  10  29
ATOM     29  O   UNL     1       0.468  10.408  19.082  0.00  0.00    +0.000 OA
ATOM     30  H   UNL     1       0.685  10.673  18.165  0.00  0.00    +0.000 HD
ENDBRANCH  10  29
TORSDOF 5
ENDMDL
MODEL 5
REMARK VINA RESULT:      -7.8      1.981      2.657
REMARK  Name = 
REMARK  5 active torsions:
REMARK  status: ('A' for Active; 'I' for Inactive)
REMARK    1  A    between atoms: C_2  and  C_12
REMARK    2  A    between atoms: N_3  and  C_4
REMARK    3  A    between atoms: C_4  and  C_5
REMARK    4  A    between atoms: C_16  and  N_17
REMARK    5  A    between atoms: C_27  and  O_28
REMARK                            x       y       z     vdW  Elec       q    Type
REMARK                         _______ _______ _______ _____ _____    ______ ____
ROOT
ATOM      1  C   UNL     1       0.669   9.767  20.172  0.00  0.00    +0.000 A 
ATOM      2  N   UNL     1      -0.238  10.601  19.534  0.00  0.00    +0.000 NA
ATOM      3  C   UNL     1      -1.020  11.261  20.320  0.00  0.00    +0.000 A 
ATOM      4  S   UNL     1      -2.264  12.346  19.763  0.00  0.00    +0.000 S 
ATOM      5  C   UNL     1      -2.762  12.735  21.426  0.00  0.00    +0.000 A 
ATOM      6  C   UNL     1      -1.979  12.040  22.275  0.00  0.00    +0.000 A 
ATOM      7  N   UNL     1      -1.030  11.235  21.687  0.00  0.00    +0.000 N 
ATOM      8  C   UNL     1      -0.152  10.435  22.367  0.00  0.00    +0.000 A 
ATOM      9  O   UNL     1      -0.079  10.319  23.591  0.00  0.00    +0.000 OA
ATOM     10  C   UNL     1       0.774   9.635  21.515  0.00  0.00    +0.000 A 
ENDROOT
BRANCH   5  11
ATOM     11  N   UNL     1      -3.791  13.603  21.774  0.00  0.00    +0.000 N 
ATOM     12  C   UNL     1      -3.580  14.823  22.590  0.00  0.00    +0.000 C 
ATOM     13  C   UNL     1      -4.284  14.684  23.947  0.00  0.00    +0.000 C 
ATOM     14  O   UNL     1      -5.683  14.402  23.783  0.00  0.00    +0.000 OA
ATOM     15  C   UNL     1      -5.857  13.177  23.053  0.00  0.00    +0.000 C 
ATOM     16  C   UNL     1      -5.227  13.265  21.655  0.00  0.00    +0.000 C 
ENDBRANCH   5  11
BRANCH   1  18
ATOM     17  O   UNL     1       2.067   9.333  18.238  0.00  0.00    +0.000 OA
ATOM     18  C   UNL     1       1.579   8.934  19.297  0.00  0.00    +0.000 C 
ATOM     19  N   UNL     1       1.849   7.680  19.792  0.00  0.00    +0.000 N 
ATOM     20  H   UNL     1       1.448   7.424  20.686  0.00  0.00    +0.000 HD
BRANCH  19  21
ATOM     21  C   UNL     1       2.757   6.793  19.103  0.00  0.00    +0.000 C 
BRANCH  21  22
ATOM     22  C   UNL     1       2.205   5.395  18.985  0.00  0.00    +0.000 A 
ATOM     23  C   UNL     1       2.370   4.668  17.792  0.00  0.00    +0.000 A 
ATOM     24  C   UNL     1       1.872   3.368  17.680  0.00  0.00    +0.000 A 
ATOM     25  C   UNL     1       1.205   2.797  18.755  0.00  0.00    +0.000 A 
ATOM     26  F   UNL     1       0.725   1.550  18.649  0.00  0.00    +0.000 F 
ATOM     27  C   UNL     1       1.025   3.500  19.940  0.00  0.00    +0.000 A 
ATOM     28  C   UNL     1       1.521   4.800  20.056  0.00  0.00    +0.000 A 
ENDBRANCH  21  22
ENDBRANCH  19  21
ENDBRANCH   1  18
BRANCH  10  29
ATOM     29  O   UNL     1       1.654   8.798  22.169  0.00  0.00    +0.000 OA
ATOM     30  H   UNL     1       2.303   8.495  21.501  0.00  0.00    +0.000 HD
ENDBRANCH  10  29
TORSDOF 5
ENDMDL
MODEL 6
REMARK VINA RESULT:      -7.8      1.964      2.563
REMARK  Name = 
REMARK  5 active torsions:
REMARK  status: ('A' for Active; 'I' for Inactive)
REMARK    1  A    between atoms: C_2  and  C_12
REMARK    2  A    between atoms: N_3  and  C_4
REMARK    3  A    between atoms: C_4  and  C_5
REMARK    4  A    between atoms: C_16  and  N_17
REMARK    5  A    between atoms: C_27  and  O_28
REMARK                            x       y       z     vdW  Elec       q    Type
REMARK                         _______ _______ _______ _____ _____    ______ ____
ROOT
ATOM      1  C   UNL     1       0.717   9.770  20.339  0.00  0.00    +0.000 A 
ATOM      2  N   UNL     1      -0.185  10.749  19.945  0.00  0.00    +0.000 NA
ATOM      3  C   UNL     1      -0.855  11.292  20.904  0.00  0.00    +0.000 A 
ATOM      4  S   UNL     1      -2.068  12.519  20.665  0.00  0.00    +0.000 S 
ATOM      5  C   UNL     1      -2.403  12.622  22.409  0.00  0.00    +0.000 A 
ATOM      6  C   UNL     1      -1.601  11.746  23.046  0.00  0.00    +0.000 A 
ATOM      7  N   UNL     1      -0.755  11.018  22.240  0.00  0.00    +0.000 N 
ATOM      8  C   UNL     1       0.121  10.065  22.684  0.00  0.00    +0.000 A 
ATOM      9  O   UNL     1       0.286   9.725  23.856  0.00  0.00    +0.000 OA
ATOM     10  C   UNL     1       0.922   9.390  21.622  0.00  0.00    +0.000 A 
ENDROOT
BRANCH   5  11
ATOM     11  N   UNL     1      -3.343  13.461  22.998  0.00  0.00    +0.000 N 
ATOM     12  C   UNL     1      -4.241  13.026  24.095  0.00  0.00    +0.000 C 
ATOM     13  C   UNL     1      -5.699  13.012  23.616  0.00  0.00    +0.000 C 
ATOM     14  O   UNL     1      -6.091  14.294  23.099  0.00  0.00    +0.000 OA
ATOM     15  C   UNL     1      -5.252  14.656  21.991  0.00  0.00    +0.000 C 
ATOM     16  C   UNL     1      -3.777  14.748  22.412  0.00  0.00    +0.000 C 
ENDBRANCH   5  11
BRANCH   1  18
ATOM     17  O   UNL     1       1.825   9.599  18.189  0.00  0.00    +0.000 OA
ATOM     18  C   UNL     1       1.497   9.066  19.251  0.00  0.00    +0.000 C 
ATOM     19  N   UNL     1       1.842   7.770  19.548  0.00  0.00    +0.000 N 
ATOM     20  H   UNL     1       1.574   7.401  20.453  0.00  0.00    +0.000 HD
BRANCH  19  21
ATOM     21  C   UNL     1       2.647   6.991  18.636  0.00  0.00    +0.000 C 
BRANCH  21  22
ATOM     22  C   UNL     1       2.385   5.512  18.767  0.00  0.00    +0.000 A 
ATOM     23  C   UNL     1       2.652   4.649  17.690  0.00  0.00    +0.000 A 
ATOM     24  C   UNL     1       2.423   3.276  17.808  0.00  0.00    +0.000 A 
ATOM     25  C   UNL     1       1.921   2.767  18.999  0.00  0.00    +0.000 A 
ATOM     26  F   UNL     1       1.699   1.451  19.113  0.00  0.00    +0.000 F 
ATOM     27  C   UNL     1       1.644   3.604  20.073  0.00  0.00    +0.000 A 
ATOM     28  C   UNL     1       1.871   4.976  19.958  0.00  0.00    +0.000 A 
ENDBRANCH  21  22
ENDBRANCH  19  21
ENDBRANCH   1  18
BRANCH  10  29
ATOM     29  O   UNL     1       1.797   8.407  22.034  0.00  0.00    +0.000 OA
ATOM     30  H   UNL     1       1.283   7.791  22.596  0.00  0.00    +0.000 HD
ENDBRANCH  10  29
TORSDOF 5
ENDMDL
MODEL 7
REMARK VINA RESULT:      -7.7      2.013      2.496
REMARK  Name = 
REMARK  5 active torsions:
REMARK  status: ('A' for Active; 'I' for Inactive)
REMARK    1  A    between atoms: C_2  and  C_12
REMARK    2  A    between atoms: N_3  and  C_4
REMARK    3  A    between atoms: C_4  and  C_5
REMARK    4  A    between atoms: C_16  and  N_17
REMARK    5  A    between atoms: C_27  and  O_28
REMARK                            x       y       z     vdW  Elec       q    Type
REMARK                         _______ _______ _______ _____ _____    ______ ____
ROOT
ATOM      1  C   UNL     1       0.721   9.802  20.072  0.00  0.00    +0.000 A 
ATOM      2  N   UNL     1      -0.200  10.680  19.518  0.00  0.00    +0.000 NA
ATOM      3  C   UNL     1      -0.962  11.281  20.369  0.00  0.00    +0.000 A 
ATOM      4  S   UNL     1      -2.217  12.404  19.923  0.00  0.00    +0.000 S 
ATOM      5  C   UNL     1      -2.675  12.669  21.621  0.00  0.00    +0.000 A 
ATOM      6  C   UNL     1      -1.873  11.913  22.399  0.00  0.00    +0.000 A 
ATOM      7  N   UNL     1      -0.939  11.155  21.731  0.00  0.00    +0.000 N 
ATOM      8  C   UNL     1      -0.047  10.306  22.329  0.00  0.00    +0.000 A 
ATOM      9  O   UNL     1       0.055  10.101  23.539  0.00  0.00    +0.000 OA
ATOM     10  C   UNL     1       0.858   9.572  21.398  0.00  0.00    +0.000 A 
ENDROOT
BRANCH   5  11
ATOM     11  N   UNL     1      -3.694  13.509  22.057  0.00  0.00    +0.000 N 
ATOM     12  C   UNL     1      -3.966  13.776  23.490  0.00  0.00    +0.000 C 
ATOM     13  C   UNL     1      -5.330  13.196  23.890  0.00  0.00    +0.000 C 
ATOM     14  O   UNL     1      -6.381  13.708  23.055  0.00  0.00    +0.000 OA
ATOM     15  C   UNL     1      -6.128  13.370  21.682  0.00  0.00    +0.000 C 
ATOM     16  C   UNL     1      -4.802  13.972  21.193  0.00  0.00    +0.000 C 
ENDBRANCH   5  11
BRANCH   1  18
ATOM     17  O   UNL     1       2.117   9.527  18.107  0.00  0.00    +0.000 OA
ATOM     18  C   UNL     1       1.609   9.035  19.117  0.00  0.00    +0.000 C 
ATOM     19  N   UNL     1       1.833   7.728  19.477  0.00  0.00    +0.000 N 
ATOM     20  H   UNL     1       1.417   7.393  20.337  0.00  0.00    +0.000 HD
BRANCH  19  21
ATOM     21  C   UNL     1       2.715   6.888  18.701  0.00  0.00    +0.000 C 
BRANCH  21  22
ATOM     22  C   UNL     1       2.352   5.429  18.808  0.00  0.00    +0.000 A 
ATOM     23  C   UNL     1       1.824   4.918  20.008  0.00  0.00    +0.000 A 
ATOM     24  C   UNL     1       1.474   3.570  20.110  0.00  0.00    +0.000 A 
ATOM     25  C   UNL     1       1.656   2.732  19.018  0.00  0.00    +0.000 A 
ATOM     26  F   UNL     1       1.322   1.438  19.115  0.00  0.00    +0.000 F 
ATOM     27  C   UNL     1       2.183   3.215  17.826  0.00  0.00    +0.000 A 
ATOM     28  C   UNL     1       2.534   4.561  17.720  0.00  0.00    +0.000 A 
ENDBRANCH  21  22
ENDBRANCH  19  21
ENDBRANCH   1  18
BRANCH  10  29
ATOM     29  O   UNL     1       1.752   8.689  21.968  0.00  0.00    +0.000 OA
ATOM     30  H   UNL     1       2.170   9.158  22.719  0.00  0.00    +0.000 HD
ENDBRANCH  10  29
TORSDOF 5
ENDMDL
MODEL 8
REMARK VINA RESULT:      -7.7      2.539      3.152
REMARK  Name = 
REMARK  5 active torsions:
REMARK  status: ('A' for Active; 'I' for Inactive)
REMARK    1  A    between atoms: C_2  and  C_12
REMARK    2  A    between atoms: N_3  and  C_4
REMARK    3  A    between atoms: C_4  and  C_5
REMARK    4  A    between atoms: C_16  and  N_17
REMARK    5  A    between atoms: C_27  and  O_28
REMARK                            x       y       z     vdW  Elec       q    Type
REMARK                         _______ _______ _______ _____ _____    ______ ____
ROOT
ATOM      1  C   UNL     1       0.343  10.099  19.927  0.00  0.00    +0.000 A 
ATOM      2  N   UNL     1      -0.692  10.534  19.111  0.00  0.00    +0.000 NA
ATOM      3  C   UNL     1      -1.573  11.276  19.693  0.00  0.00    +0.000 A 
ATOM      4  S   UNL     1      -2.981  11.918  18.893  0.00  0.00    +0.000 S 
ATOM      5  C   UNL     1      -3.536  12.727  20.377  0.00  0.00    +0.000 A 
ATOM      6  C   UNL     1      -2.648  12.468  21.358  0.00  0.00    +0.000 A 
ATOM      7  N   UNL     1      -1.578  11.681  20.999  0.00  0.00    +0.000 N 
ATOM      8  C   UNL     1      -0.579  11.285  21.847  0.00  0.00    +0.000 A 
ATOM      9  O   UNL     1      -0.487  11.574  23.041  0.00  0.00    +0.000 OA
ATOM     10  C   UNL     1       0.468  10.415  21.237  0.00  0.00    +0.000 A 
ENDROOT
BRANCH   5  11
ATOM     11  N   UNL     1      -4.696  13.485  20.492  0.00  0.00    +0.000 N 
ATOM     12  C   UNL     1      -5.104  14.154  21.751  0.00  0.00    +0.000 C 
ATOM     13  C   UNL     1      -6.392  13.522  22.297  0.00  0.00    +0.000 C 
ATOM     14  O   UNL     1      -7.446  13.559  21.322  0.00  0.00    +0.000 OA
ATOM     15  C   UNL     1      -7.052  12.840  20.143  0.00  0.00    +0.000 C 
ATOM     16  C   UNL     1      -5.798  13.457  19.505  0.00  0.00    +0.000 C 
ENDBRANCH   5  11
BRANCH   1  18
ATOM     17  O   UNL     1       1.967   9.435  18.253  0.00  0.00    +0.000 OA
ATOM     18  C   UNL     1       1.379   9.188  19.308  0.00  0.00    +0.000 C 
ATOM     19  N   UNL     1       1.641   8.051  20.035  0.00  0.00    +0.000 N 
ATOM     20  H   UNL     1       1.152   7.923  20.912  0.00  0.00    +0.000 HD
BRANCH  19  21
ATOM     21  C   UNL     1       2.656   7.117  19.606  0.00  0.00    +0.000 C 
BRANCH  21  22
ATOM     22  C   UNL     1       2.096   5.739  19.366  0.00  0.00    +0.000 A 
ATOM     23  C   UNL     1       2.133   5.175  18.079  0.00  0.00    +0.000 A 
ATOM     24  C   UNL     1       1.626   3.893  17.851  0.00  0.00    +0.000 A 
ATOM     25  C   UNL     1       1.078   3.178  18.908  0.00  0.00    +0.000 A 
ATOM     26  F   UNL     1       0.590   1.949  18.692  0.00  0.00    +0.000 F 
ATOM     27  C   UNL     1       1.025   3.720  20.187  0.00  0.00    +0.000 A 
ATOM     28  C   UNL     1       1.530   5.000  20.417  0.00  0.00    +0.000 A 
ENDBRANCH  21  22
ENDBRANCH  19  21
ENDBRANCH   1  18
BRANCH  10  29
ATOM     29  O   UNL     1       1.476   9.978  22.071  0.00  0.00    +0.000 OA
ATOM     30  H   UNL     1       1.398  10.493  22.901  0.00  0.00    +0.000 HD
ENDBRANCH  10  29
TORSDOF 5
ENDMDL
MODEL 9
REMARK VINA RESULT:      -7.7      1.937      2.372
REMARK  Name = 
REMARK  5 active torsions:
REMARK  status: ('A' for Active; 'I' for Inactive)
REMARK    1  A    between atoms: C_2  and  C_12
REMARK    2  A    between atoms: N_3  and  C_4
REMARK    3  A    between atoms: C_4  and  C_5
REMARK    4  A    between atoms: C_16  and  N_17
REMARK    5  A    between atoms: C_27  and  O_28
REMARK                            x       y       z     vdW  Elec       q    Type
REMARK                         _______ _______ _______ _____ _____    ______ ____
ROOT
ATOM      1  C   UNL     1       0.691   9.783  20.317  0.00  0.00    +0.000 A 
ATOM      2  N   UNL     1      -0.234  10.719  19.876  0.00  0.00    +0.000 NA
ATOM      3  C   UNL     1      -0.936  11.274  20.806  0.00  0.00    +0.000 A 
ATOM      4  S   UNL     1      -2.182  12.454  20.506  0.00  0.00    +0.000 S 
ATOM      5  C   UNL     1      -2.547  12.607  22.241  0.00  0.00    +0.000 A 
ATOM      6  C   UNL     1      -1.727  11.780  22.920  0.00  0.00    +0.000 A 
ATOM      7  N   UNL     1      -0.847  11.050  22.152  0.00  0.00    +0.000 N 
ATOM      8  C   UNL     1       0.051  10.142  22.642  0.00  0.00    +0.000 A 
ATOM      9  O   UNL     1       0.209   9.848  23.828  0.00  0.00    +0.000 OA
ATOM     10  C   UNL     1       0.888   9.456  21.616  0.00  0.00    +0.000 A 
ENDROOT
BRANCH   5  11
ATOM     11  N   UNL     1      -3.521  13.436  22.786  0.00  0.00    +0.000 N 
ATOM     12  C   UNL     1      -4.434  14.263  21.962  0.00  0.00    +0.000 C 
ATOM     13  C   UNL     1      -4.146  15.755  22.183  0.00  0.00    +0.000 C 
ATOM     14  O   UNL     1      -4.238  16.104  23.573  0.00  0.00    +0.000 OA
ATOM     15  C   UNL     1      -3.292  15.340  24.337  0.00  0.00    +0.000 C 
ATOM     16  C   UNL     1      -3.558  13.832  24.211  0.00  0.00    +0.000 C 
ENDBRANCH   5  11
BRANCH   1  18
ATOM     17  O   UNL     1       1.918   9.602  18.233  0.00  0.00    +0.000 OA
ATOM     18  C   UNL     1       1.509   9.067  19.266  0.00  0.00    +0.000 C 
ATOM     19  N   UNL     1       1.789   7.755  19.562  0.00  0.00    +0.000 N 
ATOM     20  H   UNL     1       1.456   7.383  20.443  0.00  0.00    +0.000 HD
BRANCH  19  21
ATOM     21  C   UNL     1       2.619   6.960  18.687  0.00  0.00    +0.000 C 
BRANCH  21  22
ATOM     22  C   UNL     1       2.327   5.486  18.810  0.00  0.00    +0.000 A 
ATOM     23  C   UNL     1       1.911   4.949  20.041  0.00  0.00    +0.000 A 
ATOM     24  C   UNL     1       1.628   3.586  20.160  0.00  0.00    +0.000 A 
ATOM     25  C   UNL     1       1.765   2.760  19.052  0.00  0.00    +0.000 A 
ATOM     26  F   UNL     1       1.496   1.453  19.165  0.00  0.00    +0.000 F 
ATOM     27  C   UNL     1       2.182   3.270  17.828  0.00  0.00    +0.000 A 
ATOM     28  C   UNL     1       2.467   4.631  17.706  0.00  0.00    +0.000 A 
ENDBRANCH  21  22
ENDBRANCH  19  21
ENDBRANCH   1  18
BRANCH  10  29
ATOM     29  O   UNL     1       1.787   8.515  22.075  0.00  0.00    +0.000 OA
ATOM     30  H   UNL     1       2.549   9.009  22.441  0.00  0.00    +0.000 HD
ENDBRANCH  10  29
TORSDOF 5
ENDMDL
