MODEL 1
REMARK VINA RESULT:      -6.8      0.000      0.000
REMARK  Name = 
REMARK  6 active torsions:
REMARK  status: ('A' for Active; 'I' for Inactive)
REMARK    1  A    between atoms: C_1  and  C_2
REMARK    2  A    between atoms: C_2  and  C_3
REMARK    3  A    between atoms: C_3  and  C_4
REMARK    4  A    between atoms: C_16  and  C_17
REMARK    5  A    between atoms: C_16  and  C_18
REMARK    6  A    between atoms: C_22  and  C_23
REMARK                            x       y       z     vdW  Elec       q    Type
REMARK                         _______ _______ _______ _____ _____    ______ ____
ROOT
ATOM      1  C   UNL     1       3.697   2.192  18.892  0.00  0.00    +0.000 A 
ATOM      2  C   UNL     1       4.190   2.174  20.155  0.00  0.00    +0.000 A 
ATOM      3  C   UNL     1       3.362   3.215  20.860  0.00  0.00    +0.000 A 
ATOM      4  O   UNL     1       2.335   3.053  21.490  0.00  0.00    +0.000 OA
ATOM      5  O   UNL     1       3.831   4.415  20.512  0.00  0.00    +0.000 OA
ATOM      6  C   UNL     1       3.329   4.582  19.197  0.00  0.00    +0.000 A 
ATOM      7  C   UNL     1       2.927   5.886  18.981  0.00  0.00    +0.000 A 
ATOM      8  C   UNL     1       3.326   6.521  17.845  0.00  0.00    +0.000 A 
ATOM      9  C   UNL     1       4.190   5.842  16.963  0.00  0.00    +0.000 A 
ATOM     10  C   UNL     1       4.452   4.424  17.095  0.00  0.00    +0.000 A 
ATOM     11  C   UNL     1       3.828   3.686  18.217  0.00  0.00    +0.000 A 
ATOM     12  O   UNL     1       5.448   3.906  16.208  0.00  0.00    +0.000 OA
ATOM     13  C   UNL     1       6.066   4.770  15.129  0.00  0.00    +0.000 C 
ATOM     14  C   UNL     1       7.619   4.757  15.095  0.00  0.00    +0.000 C 
ATOM     15  C   UNL     1       5.589   4.302  13.739  0.00  0.00    +0.000 C 
ATOM     16  C   UNL     1       5.734   6.227  15.173  0.00  0.00    +0.000 C 
ATOM     17  C   UNL     1       4.841   6.724  16.004  0.00  0.00    +0.000 C 
ATOM     18  O   UNL     1       3.106   7.874  17.681  0.00  0.00    +0.000 OA
ATOM     19  C   UNL     1       1.847   8.294  18.189  0.00  0.00    +0.000 C 
ATOM     20  C   UNL     1       1.778   8.069  19.694  0.00  0.00    +0.000 C 
ATOM     21  C   UNL     1       2.250   6.672  20.046  0.00  0.00    +0.000 C 
ATOM     22  O   UNL     1       2.089   6.230  21.169  0.00  0.00    +0.000 OA
ENDROOT
BRANCH  19  23
ATOM     23  C   UNL     1       1.697   9.795  17.988  0.00  0.00    +0.000 C 
ATOM     24 BR   UNL     1      -0.044  10.412  18.585  0.00  0.00    +0.000 Br
ENDBRANCH  19  23
BRANCH   1  25
ATOM     25  C   UNL     1       2.303   1.309  18.964  0.00  0.00    +0.000 C 
BRANCH  25  27
ATOM     26  C   UNL     1       0.154   3.262  19.032  0.00  0.00    +0.000 C 
ATOM     27  C   UNL     1       0.758   1.875  18.666  0.00  0.00    +0.000 C 
ENDBRANCH  25  27
ENDBRANCH   1  25
TORSDOF 3
ENDMDL
MODEL 2
REMARK VINA RESULT:      -6.6      7.278     10.692
REMARK  Name = 
REMARK  6 active torsions:
REMARK  status: ('A' for Active; 'I' for Inactive)
REMARK    1  A    between atoms: C_1  and  C_2
REMARK    2  A    between atoms: C_2  and  C_3
REMARK    3  A    between atoms: C_3  and  C_4
REMARK    4  A    between atoms: C_16  and  C_17
REMARK    5  A    between atoms: C_16  and  C_18
REMARK    6  A    between atoms: C_22  and  C_23
REMARK                            x       y       z     vdW  Elec       q    Type
REMARK                         _______ _______ _______ _____ _____    ______ ____
ROOT
ATOM      1  C   UNL     1      -0.395  10.848  19.417  0.00  0.00    +0.000 A 
ATOM      2  C   UNL     1       0.608  11.639  18.961  0.00  0.00    +0.000 A 
ATOM      3  C   UNL     1       0.962  12.471  20.165  0.00  0.00    +0.000 A 
ATOM      4  O   UNL     1       1.812  12.249  21.005  0.00  0.00    +0.000 OA
ATOM      5  O   UNL     1       0.037  13.426  20.287  0.00  0.00    +0.000 OA
ATOM      6  C   UNL     1      -1.074  12.723  20.819  0.00  0.00    +0.000 A 
ATOM      7  C   UNL     1      -1.734  13.483  21.766  0.00  0.00    +0.000 A 
ATOM      8  C   UNL     1      -3.090  13.586  21.702  0.00  0.00    +0.000 A 
ATOM      9  C   UNL     1      -3.762  12.965  20.630  0.00  0.00    +0.000 A 
ATOM     10  C   UNL     1      -3.095  12.021  19.758  0.00  0.00    +0.000 A 
ATOM     11  C   UNL     1      -1.657  11.743  19.977  0.00  0.00    +0.000 A 
ATOM     12  O   UNL     1      -3.870  11.575  18.641  0.00  0.00    +0.000 OA
ATOM     13  C   UNL     1      -5.323  11.970  18.485  0.00  0.00    +0.000 C 
ATOM     14  C   UNL     1      -5.693  12.551  17.092  0.00  0.00    +0.000 C 
ATOM     15  C   UNL     1      -6.232  10.745  18.709  0.00  0.00    +0.000 C 
ATOM     16  C   UNL     1      -5.837  13.003  19.435  0.00  0.00    +0.000 C 
ATOM     17  C   UNL     1      -5.125  13.445  20.452  0.00  0.00    +0.000 C 
ATOM     18  O   UNL     1      -3.767  14.480  22.508  0.00  0.00    +0.000 OA
ATOM     19  C   UNL     1      -3.222  14.563  23.818  0.00  0.00    +0.000 C 
ATOM     20  C   UNL     1      -1.793  15.088  23.769  0.00  0.00    +0.000 C 
ATOM     21  C   UNL     1      -0.990  14.350  22.717  0.00  0.00    +0.000 C 
ATOM     22  O   UNL     1       0.219  14.484  22.655  0.00  0.00    +0.000 OA
ENDROOT
BRANCH  19  23
ATOM     23  C   UNL     1      -4.010  15.582  24.628  0.00  0.00    +0.000 C 
ATOM     24 BR   UNL     1      -5.728  15.955  23.804  0.00  0.00    +0.000 Br
ENDBRANCH  19  23
BRANCH   1  25
ATOM     25  C   UNL     1       0.358   9.647  20.265  0.00  0.00    +0.000 C 
BRANCH  25  27
ATOM     26  C   UNL     1      -0.288   9.732  23.096  0.00  0.00    +0.000 C 
ATOM     27  C   UNL     1      -0.141   9.007  21.727  0.00  0.00    +0.000 C 
ENDBRANCH  25  27
ENDBRANCH   1  25
TORSDOF 3
ENDMDL
MODEL 3
REMARK VINA RESULT:      -6.5      6.092     10.506
REMARK  Name = 
REMARK  6 active torsions:
REMARK  status: ('A' for Active; 'I' for Inactive)
REMARK    1  A    between atoms: C_1  and  C_2
REMARK    2  A    between atoms: C_2  and  C_3
REMARK    3  A    between atoms: C_3  and  C_4
REMARK    4  A    between atoms: C_16  and  C_17
REMARK    5  A    between atoms: C_16  and  C_18
REMARK    6  A    between atoms: C_22  and  C_23
REMARK                            x       y       z     vdW  Elec       q    Type
REMARK                         _______ _______ _______ _____ _____    ______ ____
ROOT
ATOM      1  C   UNL     1      -2.979  14.125  21.903  0.00  0.00    +0.000 A 
ATOM      2  C   UNL     1      -2.881  13.594  23.147  0.00  0.00    +0.000 A 
ATOM      3  C   UNL     1      -1.500  12.995  23.155  0.00  0.00    +0.000 A 
ATOM      4  O   UNL     1      -0.463  13.509  23.529  0.00  0.00    +0.000 OA
ATOM      5  O   UNL     1      -1.550  11.842  22.483  0.00  0.00    +0.000 OA
ATOM      6  C   UNL     1      -1.602  12.268  21.131  0.00  0.00    +0.000 A 
ATOM      7  C   UNL     1      -0.840  11.446  20.323  0.00  0.00    +0.000 A 
ATOM      8  C   UNL     1      -1.376  10.980  19.161  0.00  0.00    +0.000 A 
ATOM      9  C   UNL     1      -2.714  11.303  18.860  0.00  0.00    +0.000 A 
ATOM     10  C   UNL     1      -3.440  12.311  19.606  0.00  0.00    +0.000 A 
ATOM     11  C   UNL     1      -2.765  12.980  20.742  0.00  0.00    +0.000 A 
ATOM     12  O   UNL     1      -4.825  12.434  19.269  0.00  0.00    +0.000 OA
ATOM     13  C   UNL     1      -5.426  11.654  18.120  0.00  0.00    +0.000 C 
ATOM     14  C   UNL     1      -6.725  10.876  18.470  0.00  0.00    +0.000 C 
ATOM     15  C   UNL     1      -5.782  12.608  16.961  0.00  0.00    +0.000 C 
ATOM     16  C   UNL     1      -4.557  10.610  17.498  0.00  0.00    +0.000 C 
ATOM     17  C   UNL     1      -3.288  10.464  17.818  0.00  0.00    +0.000 C 
ATOM     18  O   UNL     1      -0.723  10.013  18.423  0.00  0.00    +0.000 OA
ATOM     19  C   UNL     1       0.686  10.193  18.401  0.00  0.00    +0.000 C 
ATOM     20  C   UNL     1       1.262  10.066  19.805  0.00  0.00    +0.000 C 
ATOM     21  C   UNL     1       0.460  10.896  20.788  0.00  0.00    +0.000 C 
ATOM     22  O   UNL     1       0.871  11.083  21.919  0.00  0.00    +0.000 OA
ENDROOT
BRANCH  19  23
ATOM     23  C   UNL     1       1.325   9.077  17.589  0.00  0.00    +0.000 C 
ATOM     24 BR   UNL     1       2.272   7.829  18.735  0.00  0.00    +0.000 Br
ENDBRANCH  19  23
BRANCH   1  25
ATOM     25  C   UNL     1      -2.152  15.553  21.981  0.00  0.00    +0.000 C 
BRANCH  25  27
ATOM     26  C   UNL     1      -0.640  15.483  19.502  0.00  0.00    +0.000 C 
ATOM     27  C   UNL     1      -1.027  16.106  20.875  0.00  0.00    +0.000 C 
ENDBRANCH  25  27
ENDBRANCH   1  25
TORSDOF 3
ENDMDL
MODEL 4
REMARK VINA RESULT:      -6.5      2.748      3.947
REMARK  Name = 
REMARK  6 active torsions:
REMARK  status: ('A' for Active; 'I' for Inactive)
REMARK    1  A    between atoms: C_1  and  C_2
REMARK    2  A    between atoms: C_2  and  C_3
REMARK    3  A    between atoms: C_3  and  C_4
REMARK    4  A    between atoms: C_16  and  C_17
REMARK    5  A    between atoms: C_16  and  C_18
REMARK    6  A    between atoms: C_22  and  C_23
REMARK                            x       y       z     vdW  Elec       q    Type
REMARK                         _______ _______ _______ _____ _____    ______ ____
ROOT
ATOM      1  C   UNL     1       3.263   2.793  17.244  0.00  0.00    +0.000 A 
ATOM      2  C   UNL     1       3.741   1.948  18.190  0.00  0.00    +0.000 A 
ATOM      3  C   UNL     1       4.406   2.875  19.172  0.00  0.00    +0.000 A 
ATOM      4  O   UNL     1       3.926   3.376  20.171  0.00  0.00    +0.000 OA
ATOM      5  O   UNL     1       5.583   3.238  18.659  0.00  0.00    +0.000 OA
ATOM      6  C   UNL     1       5.218   4.185  17.669  0.00  0.00    +0.000 A 
ATOM      7  C   UNL     1       6.112   5.238  17.636  0.00  0.00    +0.000 A 
ATOM      8  C   UNL     1       6.604   5.650  16.435  0.00  0.00    +0.000 A 
ATOM      9  C   UNL     1       6.230   4.941  15.276  0.00  0.00    +0.000 A 
ATOM     10  C   UNL     1       5.156   3.969  15.291  0.00  0.00    +0.000 A 
ATOM     11  C   UNL     1       4.469   3.687  16.573  0.00  0.00    +0.000 A 
ATOM     12  O   UNL     1       4.981   3.240  14.073  0.00  0.00    +0.000 OA
ATOM     13  C   UNL     1       5.782   3.576  12.833  0.00  0.00    +0.000 C 
ATOM     14  C   UNL     1       6.480   2.362  12.160  0.00  0.00    +0.000 C 
ATOM     15  C   UNL     1       4.866   4.208  11.766  0.00  0.00    +0.000 C 
ATOM     16  C   UNL     1       6.895   4.559  13.008  0.00  0.00    +0.000 C 
ATOM     17  C   UNL     1       7.087   5.217  14.132  0.00  0.00    +0.000 C 
ATOM     18  O   UNL     1       7.634   6.567  16.374  0.00  0.00    +0.000 OA
ATOM     19  C   UNL     1       7.524   7.587  17.356  0.00  0.00    +0.000 C 
ATOM     20  C   UNL     1       7.615   6.993  18.755  0.00  0.00    +0.000 C 
ATOM     21  C   UNL     1       6.703   5.789  18.884  0.00  0.00    +0.000 C 
ATOM     22  O   UNL     1       6.484   5.292  19.974  0.00  0.00    +0.000 OA
ENDROOT
BRANCH  19  23
ATOM     23  C   UNL     1       8.706   8.537  17.232  0.00  0.00    +0.000 C 
ATOM     24 BR   UNL     1       8.822   9.717  18.769  0.00  0.00    +0.000 Br
ENDBRANCH  19  23
BRANCH   1  25
ATOM     25  C   UNL     1       1.874   3.415  17.887  0.00  0.00    +0.000 C 
BRANCH  25  27
ATOM     26  C   UNL     1       2.409   6.218  18.430  0.00  0.00    +0.000 C 
ATOM     27  C   UNL     1       1.485   5.036  18.016  0.00  0.00    +0.000 C 
ENDBRANCH  25  27
ENDBRANCH   1  25
TORSDOF 3
ENDMDL
MODEL 5
REMARK VINA RESULT:      -6.3      2.024      5.293
REMARK  Name = 
REMARK  6 active torsions:
REMARK  status: ('A' for Active; 'I' for Inactive)
REMARK    1  A    between atoms: C_1  and  C_2
REMARK    2  A    between atoms: C_2  and  C_3
REMARK    3  A    between atoms: C_3  and  C_4
REMARK    4  A    between atoms: C_16  and  C_17
REMARK    5  A    between atoms: C_16  and  C_18
REMARK    6  A    between atoms: C_22  and  C_23
REMARK                            x       y       z     vdW  Elec       q    Type
REMARK                         _______ _______ _______ _____ _____    ______ ____
ROOT
ATOM      1  C   UNL     1       5.933   4.251  17.557  0.00  0.00    +0.000 A 
ATOM      2  C   UNL     1       5.813   4.350  16.210  0.00  0.00    +0.000 A 
ATOM      3  C   UNL     1       5.478   5.802  16.002  0.00  0.00    +0.000 A 
ATOM      4  O   UNL     1       6.242   6.723  15.784  0.00  0.00    +0.000 OA
ATOM      5  O   UNL     1       4.187   5.971  16.300  0.00  0.00    +0.000 OA
ATOM      6  C   UNL     1       4.184   5.940  17.718  0.00  0.00    +0.000 A 
ATOM      7  C   UNL     1       3.298   6.869  18.231  0.00  0.00    +0.000 A 
ATOM      8  C   UNL     1       2.431   6.485  19.208  0.00  0.00    +0.000 A 
ATOM      9  C   UNL     1       2.428   5.135  19.612  0.00  0.00    +0.000 A 
ATOM     10  C   UNL     1       3.476   4.218  19.212  0.00  0.00    +0.000 A 
ATOM     11  C   UNL     1       4.549   4.710  18.319  0.00  0.00    +0.000 A 
ATOM     12  O   UNL     1       3.265   2.855  19.592  0.00  0.00    +0.000 OA
ATOM     13  C   UNL     1       2.095   2.453  20.464  0.00  0.00    +0.000 C 
ATOM     14  C   UNL     1       1.251   1.268  19.917  0.00  0.00    +0.000 C 
ATOM     15  C   UNL     1       2.596   2.031  21.860  0.00  0.00    +0.000 C 
ATOM     16  C   UNL     1       1.072   3.509  20.732  0.00  0.00    +0.000 C 
ATOM     17  C   UNL     1       1.238   4.763  20.364  0.00  0.00    +0.000 C 
ATOM     18  O   UNL     1       1.411   7.323  19.613  0.00  0.00    +0.000 OA
ATOM     19  C   UNL     1       1.807   8.687  19.666  0.00  0.00    +0.000 C 
ATOM     20  C   UNL     1       2.192   9.185  18.280  0.00  0.00    +0.000 C 
ATOM     21  C   UNL     1       3.130   8.206  17.603  0.00  0.00    +0.000 C 
ATOM     22  O   UNL     1       3.705   8.511  16.574  0.00  0.00    +0.000 OA
ENDROOT
BRANCH  19  23
ATOM     23  C   UNL     1       0.622   9.538  20.098  0.00  0.00    +0.000 C 
ATOM     24 BR   UNL     1      -0.162   8.866  21.742  0.00  0.00    +0.000 Br
ENDBRANCH  19  23
BRANCH   1  25
ATOM     25  C   UNL     1       7.437   4.844  17.897  0.00  0.00    +0.000 C 
BRANCH  25  27
ATOM     26  C   UNL     1       8.205   7.594  18.427  0.00  0.00    +0.000 C 
ATOM     27  C   UNL     1       7.784   6.162  18.866  0.00  0.00    +0.000 C 
ENDBRANCH  25  27
ENDBRANCH   1  25
TORSDOF 3
ENDMDL
MODEL 6
REMARK VINA RESULT:      -6.3      2.428      5.111
REMARK  Name = 
REMARK  6 active torsions:
REMARK  status: ('A' for Active; 'I' for Inactive)
REMARK    1  A    between atoms: C_1  and  C_2
REMARK    2  A    between atoms: C_2  and  C_3
REMARK    3  A    between atoms: C_3  and  C_4
REMARK    4  A    between atoms: C_16  and  C_17
REMARK    5  A    between atoms: C_16  and  C_18
REMARK    6  A    between atoms: C_22  and  C_23
REMARK                            x       y       z     vdW  Elec       q    Type
REMARK                         _______ _______ _______ _____ _____    ______ ____
ROOT
ATOM      1  C   UNL     1       1.088   3.847  19.363  0.00  0.00    +0.000 A 
ATOM      2  C   UNL     1       0.786   3.015  18.336  0.00  0.00    +0.000 A 
ATOM      3  C   UNL     1       2.139   2.607  17.816  0.00  0.00    +0.000 A 
ATOM      4  O   UNL     1       2.797   1.633  18.126  0.00  0.00    +0.000 OA
ATOM      5  O   UNL     1       2.616   3.616  17.082  0.00  0.00    +0.000 OA
ATOM      6  C   UNL     1       3.025   4.554  18.064  0.00  0.00    +0.000 A 
ATOM      7  C   UNL     1       4.207   5.169  17.698  0.00  0.00    +0.000 A 
ATOM      8  C   UNL     1       4.302   6.524  17.789  0.00  0.00    +0.000 A 
ATOM      9  C   UNL     1       3.166   7.253  18.192  0.00  0.00    +0.000 A 
ATOM     10  C   UNL     1       2.001   6.599  18.752  0.00  0.00    +0.000 A 
ATOM     11  C   UNL     1       1.996   5.122  18.856  0.00  0.00    +0.000 A 
ATOM     12  O   UNL     1       0.881   7.456  18.990  0.00  0.00    +0.000 OA
ATOM     13  C   UNL     1       0.981   8.954  18.794  0.00  0.00    +0.000 C 
ATOM     14  C   UNL     1      -0.147   9.572  17.921  0.00  0.00    +0.000 C 
ATOM     15  C   UNL     1       0.928   9.671  20.158  0.00  0.00    +0.000 C 
ATOM     16  C   UNL     1       2.231   9.457  18.148  0.00  0.00    +0.000 C 
ATOM     17  C   UNL     1       3.260   8.675  17.895  0.00  0.00    +0.000 C 
ATOM     18  O   UNL     1       5.390   7.190  17.261  0.00  0.00    +0.000 OA
ATOM     19  C   UNL     1       6.612   6.491  17.453  0.00  0.00    +0.000 C 
ATOM     20  C   UNL     1       6.583   5.154  16.724  0.00  0.00    +0.000 C 
ATOM     21  C   UNL     1       5.293   4.415  17.019  0.00  0.00    +0.000 C 
ATOM     22  O   UNL     1       5.159   3.249  16.690  0.00  0.00    +0.000 OA
ENDROOT
BRANCH  19  23
ATOM     23  C   UNL     1       7.750   7.281  16.824  0.00  0.00    +0.000 C 
ATOM     24 BR   UNL     1       8.118   8.901  17.829  0.00  0.00    +0.000 Br
ENDBRANCH  19  23
BRANCH   1  25
ATOM     25  C   UNL     1       1.482   2.850  20.620  0.00  0.00    +0.000 C 
BRANCH  25  27
ATOM     26  C   UNL     1       4.334   2.322  20.763  0.00  0.00    +0.000 C 
ATOM     27  C   UNL     1       2.970   2.754  21.375  0.00  0.00    +0.000 C 
ENDBRANCH  25  27
ENDBRANCH   1  25
TORSDOF 3
ENDMDL
MODEL 7
REMARK VINA RESULT:      -6.3      6.404     10.696
REMARK  Name = 
REMARK  6 active torsions:
REMARK  status: ('A' for Active; 'I' for Inactive)
REMARK    1  A    between atoms: C_1  and  C_2
REMARK    2  A    between atoms: C_2  and  C_3
REMARK    3  A    between atoms: C_3  and  C_4
REMARK    4  A    between atoms: C_16  and  C_17
REMARK    5  A    between atoms: C_16  and  C_18
REMARK    6  A    between atoms: C_22  and  C_23
REMARK                            x       y       z     vdW  Elec       q    Type
REMARK                         _______ _______ _______ _____ _____    ______ ____
ROOT
ATOM      1  C   UNL     1      -2.963  14.092  21.882  0.00  0.00    +0.000 A 
ATOM      2  C   UNL     1      -2.863  13.558  23.125  0.00  0.00    +0.000 A 
ATOM      3  C   UNL     1      -1.485  12.953  23.127  0.00  0.00    +0.000 A 
ATOM      4  O   UNL     1      -0.445  13.462  23.498  0.00  0.00    +0.000 OA
ATOM      5  O   UNL     1      -1.542  11.802  22.453  0.00  0.00    +0.000 OA
ATOM      6  C   UNL     1      -1.597  12.230  21.102  0.00  0.00    +0.000 A 
ATOM      7  C   UNL     1      -0.842  11.406  20.290  0.00  0.00    +0.000 A 
ATOM      8  C   UNL     1      -1.384  10.944  19.130  0.00  0.00    +0.000 A 
ATOM      9  C   UNL     1      -2.722  11.274  18.834  0.00  0.00    +0.000 A 
ATOM     10  C   UNL     1      -3.441  12.283  19.584  0.00  0.00    +0.000 A 
ATOM     11  C   UNL     1      -2.758  12.947  20.719  0.00  0.00    +0.000 A 
ATOM     12  O   UNL     1      -4.826  12.413  19.252  0.00  0.00    +0.000 OA
ATOM     13  C   UNL     1      -5.435  11.638  18.103  0.00  0.00    +0.000 C 
ATOM     14  C   UNL     1      -6.736  10.865  18.457  0.00  0.00    +0.000 C 
ATOM     15  C   UNL     1      -5.790  12.595  16.948  0.00  0.00    +0.000 C 
ATOM     16  C   UNL     1      -4.572  10.590  17.477  0.00  0.00    +0.000 C 
ATOM     17  C   UNL     1      -3.302  10.439  17.792  0.00  0.00    +0.000 C 
ATOM     18  O   UNL     1      -0.738   9.975  18.388  0.00  0.00    +0.000 OA
ATOM     19  C   UNL     1       0.672  10.150  18.361  0.00  0.00    +0.000 C 
ATOM     20  C   UNL     1       1.253  10.017  19.763  0.00  0.00    +0.000 C 
ATOM     21  C   UNL     1       0.458  10.849  20.750  0.00  0.00    +0.000 C 
ATOM     22  O   UNL     1       0.874  11.033  21.880  0.00  0.00    +0.000 OA
ENDROOT
BRANCH  19  23
ATOM     23  C   UNL     1       1.303   9.032  17.544  0.00  0.00    +0.000 C 
ATOM     24 BR   UNL     1       2.313   7.821  18.676  0.00  0.00    +0.000 Br
ENDBRANCH  19  23
BRANCH   1  25
ATOM     25  C   UNL     1      -2.130  15.516  21.960  0.00  0.00    +0.000 C 
BRANCH  25  27
ATOM     26  C   UNL     1      -3.565  17.289  23.759  0.00  0.00    +0.000 C 
ATOM     27  C   UNL     1      -2.268  16.677  23.155  0.00  0.00    +0.000 C 
ENDBRANCH  25  27
ENDBRANCH   1  25
TORSDOF 3
ENDMDL
MODEL 8
REMARK VINA RESULT:      -6.3      6.411      8.900
REMARK  Name = 
REMARK  6 active torsions:
REMARK  status: ('A' for Active; 'I' for Inactive)
REMARK    1  A    between atoms: C_1  and  C_2
REMARK    2  A    between atoms: C_2  and  C_3
REMARK    3  A    between atoms: C_3  and  C_4
REMARK    4  A    between atoms: C_16  and  C_17
REMARK    5  A    between atoms: C_16  and  C_18
REMARK    6  A    between atoms: C_22  and  C_23
REMARK                            x       y       z     vdW  Elec       q    Type
REMARK                         _______ _______ _______ _____ _____    ______ ____
ROOT
ATOM      1  C   UNL     1       1.122  10.451  18.807  0.00  0.00    +0.000 A 
ATOM      2  C   UNL     1       1.485   9.475  19.676  0.00  0.00    +0.000 A 
ATOM      3  C   UNL     1       0.514   9.650  20.813  0.00  0.00    +0.000 A 
ATOM      4  O   UNL     1      -0.556   9.096  20.975  0.00  0.00    +0.000 OA
ATOM      5  O   UNL     1       0.924  10.689  21.545  0.00  0.00    +0.000 OA
ATOM      6  C   UNL     1       0.545  11.802  20.752  0.00  0.00    +0.000 A 
ATOM      7  C   UNL     1       0.070  12.833  21.541  0.00  0.00    +0.000 A 
ATOM      8  C   UNL     1       0.532  14.095  21.327  0.00  0.00    +0.000 A 
ATOM      9  C   UNL     1       1.529  14.291  20.351  0.00  0.00    +0.000 A 
ATOM     10  C   UNL     1       1.883  13.252  19.405  0.00  0.00    +0.000 A 
ATOM     11  C   UNL     1       1.206  11.938  19.506  0.00  0.00    +0.000 A 
ATOM     12  O   UNL     1       2.999  13.553  18.563  0.00  0.00    +0.000 OA
ATOM     13  C   UNL     1       3.655  14.917  18.585  0.00  0.00    +0.000 C 
ATOM     14  C   UNL     1       5.201  14.894  18.744  0.00  0.00    +0.000 C 
ATOM     15  C   UNL     1       3.357  15.669  17.272  0.00  0.00    +0.000 C 
ATOM     16  C   UNL     1       3.212  15.850  19.665  0.00  0.00    +0.000 C 
ATOM     17  C   UNL     1       2.204  15.575  20.468  0.00  0.00    +0.000 C 
ATOM     18  O   UNL     1       0.228  15.114  22.208  0.00  0.00    +0.000 OA
ATOM     19  C   UNL     1      -1.104  15.040  22.699  0.00  0.00    +0.000 C 
ATOM     20  C   UNL     1      -1.307  13.761  23.499  0.00  0.00    +0.000 C 
ATOM     21  C   UNL     1      -0.768  12.565  22.739  0.00  0.00    +0.000 C 
ATOM     22  O   UNL     1      -1.007  11.432  23.118  0.00  0.00    +0.000 OA
ENDROOT
BRANCH  19  23
ATOM     23  C   UNL     1      -1.346  16.182  23.674  0.00  0.00    +0.000 C 
ATOM     24 BR   UNL     1      -1.485  15.530  25.497  0.00  0.00    +0.000 Br
ENDBRANCH  19  23
BRANCH   1  25
ATOM     25  C   UNL     1      -0.202   9.853  18.021  0.00  0.00    +0.000 C 
BRANCH  25  27
ATOM     26  C   UNL     1      -3.050   9.947  17.461  0.00  0.00    +0.000 C 
ATOM     27  C   UNL     1      -1.706  10.576  17.928  0.00  0.00    +0.000 C 
ENDBRANCH  25  27
ENDBRANCH   1  25
TORSDOF 3
ENDMDL
MODEL 9
REMARK VINA RESULT:      -6.2      7.319     11.082
REMARK  Name = 
REMARK  6 active torsions:
REMARK  status: ('A' for Active; 'I' for Inactive)
REMARK    1  A    between atoms: C_1  and  C_2
REMARK    2  A    between atoms: C_2  and  C_3
REMARK    3  A    between atoms: C_3  and  C_4
REMARK    4  A    between atoms: C_16  and  C_17
REMARK    5  A    between atoms: C_16  and  C_18
REMARK    6  A    between atoms: C_22  and  C_23
REMARK                            x       y       z     vdW  Elec       q    Type
REMARK                         _______ _______ _______ _____ _____    ______ ____
ROOT
ATOM      1  C   UNL     1       0.292  11.983  20.705  0.00  0.00    +0.000 A 
ATOM      2  C   UNL     1       0.615  10.679  20.518  0.00  0.00    +0.000 A 
ATOM      3  C   UNL     1       0.033  10.373  19.164  0.00  0.00    +0.000 A 
ATOM      4  O   UNL     1       0.583  10.440  18.081  0.00  0.00    +0.000 OA
ATOM      5  O   UNL     1      -1.282  10.201  19.313  0.00  0.00    +0.000 OA
ATOM      6  C   UNL     1      -1.758  11.528  19.467  0.00  0.00    +0.000 A 
ATOM      7  C   UNL     1      -2.960  11.703  18.808  0.00  0.00    +0.000 A 
ATOM      8  C   UNL     1      -3.988  12.313  19.459  0.00  0.00    +0.000 A 
ATOM      9  C   UNL     1      -3.806  12.684  20.806  0.00  0.00    +0.000 A 
ATOM     10  C   UNL     1      -2.498  12.673  21.429  0.00  0.00    +0.000 A 
ATOM     11  C   UNL     1      -1.336  12.214  20.634  0.00  0.00    +0.000 A 
ATOM     12  O   UNL     1      -2.492  12.949  22.832  0.00  0.00    +0.000 OA
ATOM     13  C   UNL     1      -3.756  13.355  23.559  0.00  0.00    +0.000 C 
ATOM     14  C   UNL     1      -4.056  12.542  24.849  0.00  0.00    +0.000 C 
ATOM     15  C   UNL     1      -3.673  14.837  23.979  0.00  0.00    +0.000 C 
ATOM     16  C   UNL     1      -5.030  13.253  22.784  0.00  0.00    +0.000 C 
ATOM     17  C   UNL     1      -5.055  12.971  21.497  0.00  0.00    +0.000 C 
ATOM     18  O   UNL     1      -5.254  12.339  18.908  0.00  0.00    +0.000 OA
ATOM     19  C   UNL     1      -5.239  12.533  17.500  0.00  0.00    +0.000 C 
ATOM     20  C   UNL     1      -4.537  11.372  16.809  0.00  0.00    +0.000 C 
ATOM     21  C   UNL     1      -3.220  11.062  17.492  0.00  0.00    +0.000 C 
ATOM     22  O   UNL     1      -2.421  10.300  16.978  0.00  0.00    +0.000 OA
ENDROOT
BRANCH  19  23
ATOM     23  C   UNL     1      -6.666  12.527  16.975  0.00  0.00    +0.000 C 
ATOM     24 BR   UNL     1      -7.882  13.359  18.239  0.00  0.00    +0.000 Br
ENDBRANCH  19  23
BRANCH   1  25
ATOM     25  C   UNL     1       1.403  12.830  19.824  0.00  0.00    +0.000 C 
BRANCH  25  27
ATOM     26  C   UNL     1       1.251  15.550  18.817  0.00  0.00    +0.000 C 
ATOM     27  C   UNL     1       1.071  14.010  18.687  0.00  0.00    +0.000 C 
ENDBRANCH  25  27
ENDBRANCH   1  25
TORSDOF 3
ENDMDL
