MODEL 1
REMARK VINA RESULT:      -7.0      0.000      0.000
REMARK  Name = 
REMARK  11 active torsions:
REMARK  status: ('A' for Active; 'I' for Inactive)
REMARK    1  A    between atoms: C_1  and  C_2
REMARK    2  A    between atoms: C_2  and  N_3
REMARK    3  A    between atoms: C_2  and  C_4
REMARK    4  A    between atoms: N_6  and  C_7
REMARK    5  A    between atoms: C_7  and  C_8
REMARK    6  A    between atoms: C_7  and  C_15
REMARK    7  A    between atoms: C_8  and  C_9
REMARK    8  A    between atoms: C_15  and  O_17
REMARK    9  A    between atoms: O_17  and  C_18
REMARK   10  A    between atoms: C_18  and  C_19
REMARK   11  A    between atoms: C_19  and  O_21
REMARK                            x       y       z     vdW  Elec       q    Type
REMARK                         _______ _______ _______ _____ _____    ______ ____
ROOT
ATOM      1  C   UNL     1       5.796   4.432  16.407  0.00  0.00    +0.000 C 
ENDROOT
BRANCH   1   4
ATOM      2  C   UNL     1       6.557   5.020  18.700  0.00  0.00    +0.000 C 
ATOM      3  O   UNL     1       6.046   4.020  19.204  0.00  0.00    +0.000 OA
ATOM      4  N   UNL     1       6.461   5.323  17.365  0.00  0.00    +0.000 N 
ATOM      5  H   UNL     1       7.035   6.066  16.981  0.00  0.00    +0.000 HD
BRANCH   2   7
ATOM      6  C   UNL     1       8.137   6.953  18.612  0.00  0.00    +0.000 C 
ATOM      7  C   UNL     1       7.347   6.040  19.539  0.00  0.00    +0.000 C 
BRANCH   7   8
ATOM      8  N   UNL     1       8.258   5.326  20.455  0.00  0.00    +0.000 NA
ATOM      9  H   UNL     1       8.906   6.024  20.836  0.00  0.00    +0.000 HD
ATOM     10  H   UNL     1       8.861   4.720  19.898  0.00  0.00    +0.000 HD
ENDBRANCH   7   8
ENDBRANCH   2   7
ENDBRANCH   1   4
BRANCH   1  11
ATOM     11  C   UNL     1       6.506   4.392  15.043  0.00  0.00    +0.000 C 
ATOM     12  O   UNL     1       7.433   5.121  14.711  0.00  0.00    +0.000 OA
BRANCH  11  13
ATOM     13  O   UNL     1       5.875   3.532  14.181  0.00  0.00    +0.000 OA
BRANCH  13  14
ATOM     14  C   UNL     1       6.319   3.668  12.826  0.00  0.00    +0.000 C 
BRANCH  14  15
ATOM     15  C   UNL     1       5.462   2.829  11.880  0.00  0.00    +0.000 C 
ATOM     16  O   UNL     1       5.799   1.745  11.422  0.00  0.00    +0.000 OA
BRANCH  15  17
ATOM     17  O   UNL     1       4.286   3.413  11.551  0.00  0.00    +0.000 OA
ATOM     18  H   UNL     1       3.490   2.938  11.857  0.00  0.00    +0.000 HD
ENDBRANCH  15  17
ENDBRANCH  14  15
ENDBRANCH  13  14
ENDBRANCH  11  13
ENDBRANCH   1  11
BRANCH   1  19
ATOM     19  C   UNL     1       4.287   4.690  16.241  0.00  0.00    +0.000 C 
BRANCH  19  20
ATOM     20  C   UNL     1       3.392   3.880  17.151  0.00  0.00    +0.000 A 
ATOM     21  C   UNL     1       3.712   2.552  17.464  0.00  0.00    +0.000 A 
ATOM     22  C   UNL     1       2.900   1.816  18.327  0.00  0.00    +0.000 A 
ATOM     23  C   UNL     1       1.761   2.394  18.881  0.00  0.00    +0.000 A 
ATOM     24  C   UNL     1       1.432   3.713  18.574  0.00  0.00    +0.000 A 
ATOM     25  C   UNL     1       2.243   4.453  17.713  0.00  0.00    +0.000 A 
ENDBRANCH  19  20
ENDBRANCH   1  19
TORSDOF 10
ENDMDL
MODEL 2
REMARK VINA RESULT:      -6.9      1.344      1.532
REMARK  Name = 
REMARK  11 active torsions:
REMARK  status: ('A' for Active; 'I' for Inactive)
REMARK    1  A    between atoms: C_1  and  C_2
REMARK    2  A    between atoms: C_2  and  N_3
REMARK    3  A    between atoms: C_2  and  C_4
REMARK    4  A    between atoms: N_6  and  C_7
REMARK    5  A    between atoms: C_7  and  C_8
REMARK    6  A    between atoms: C_7  and  C_15
REMARK    7  A    between atoms: C_8  and  C_9
REMARK    8  A    between atoms: C_15  and  O_17
REMARK    9  A    between atoms: O_17  and  C_18
REMARK   10  A    between atoms: C_18  and  C_19
REMARK   11  A    between atoms: C_19  and  O_21
REMARK                            x       y       z     vdW  Elec       q    Type
REMARK                         _______ _______ _______ _____ _____    ______ ____
ROOT
ATOM      1  C   UNL     1       5.254   4.289  16.599  0.00  0.00    +0.000 C 
ENDROOT
BRANCH   1   4
ATOM      2  C   UNL     1       7.158   5.037  18.013  0.00  0.00    +0.000 C 
ATOM      3  O   UNL     1       7.976   4.352  17.401  0.00  0.00    +0.000 OA
ATOM      4  N   UNL     1       5.816   5.047  17.723  0.00  0.00    +0.000 N 
ATOM      5  H   UNL     1       5.220   5.748  18.150  0.00  0.00    +0.000 HD
BRANCH   2   7
ATOM      6  C   UNL     1       8.207   7.216  18.641  0.00  0.00    +0.000 C 
ATOM      7  C   UNL     1       7.571   5.944  19.185  0.00  0.00    +0.000 C 
BRANCH   7   8
ATOM      8  N   UNL     1       8.524   5.225  20.054  0.00  0.00    +0.000 NA
ATOM      9  H   UNL     1       9.214   5.913  20.374  0.00  0.00    +0.000 HD
ATOM     10  H   UNL     1       9.072   4.591  19.471  0.00  0.00    +0.000 HD
ENDBRANCH   7   8
ENDBRANCH   2   7
ENDBRANCH   1   4
BRANCH   1  11
ATOM     11  C   UNL     1       5.458   4.993  15.248  0.00  0.00    +0.000 C 
ATOM     12  O   UNL     1       5.740   6.177  15.107  0.00  0.00    +0.000 OA
BRANCH  11  13
ATOM     13  O   UNL     1       5.142   4.163  14.203  0.00  0.00    +0.000 OA
BRANCH  13  14
ATOM     14  C   UNL     1       6.274   3.817  13.397  0.00  0.00    +0.000 C 
BRANCH  14  15
ATOM     15  C   UNL     1       5.846   3.051  12.147  0.00  0.00    +0.000 C 
ATOM     16  O   UNL     1       4.748   3.156  11.616  0.00  0.00    +0.000 OA
BRANCH  15  17
ATOM     17  O   UNL     1       6.790   2.198  11.683  0.00  0.00    +0.000 OA
ATOM     18  H   UNL     1       7.470   2.605  11.115  0.00  0.00    +0.000 HD
ENDBRANCH  15  17
ENDBRANCH  14  15
ENDBRANCH  13  14
ENDBRANCH  11  13
ENDBRANCH   1  11
BRANCH   1  19
ATOM     19  C   UNL     1       3.786   3.866  16.789  0.00  0.00    +0.000 C 
BRANCH  19  20
ATOM     20  C   UNL     1       3.311   3.816  18.224  0.00  0.00    +0.000 A 
ATOM     21  C   UNL     1       3.707   2.768  19.066  0.00  0.00    +0.000 A 
ATOM     22  C   UNL     1       3.291   2.739  20.398  0.00  0.00    +0.000 A 
ATOM     23  C   UNL     1       2.475   3.749  20.898  0.00  0.00    +0.000 A 
ATOM     24  C   UNL     1       2.073   4.793  20.069  0.00  0.00    +0.000 A 
ATOM     25  C   UNL     1       2.489   4.828  18.737  0.00  0.00    +0.000 A 
ENDBRANCH  19  20
ENDBRANCH   1  19
TORSDOF 10
ENDMDL
MODEL 3
REMARK VINA RESULT:      -6.9      3.217      5.898
REMARK  Name = 
REMARK  11 active torsions:
REMARK  status: ('A' for Active; 'I' for Inactive)
REMARK    1  A    between atoms: C_1  and  C_2
REMARK    2  A    between atoms: C_2  and  N_3
REMARK    3  A    between atoms: C_2  and  C_4
REMARK    4  A    between atoms: N_6  and  C_7
REMARK    5  A    between atoms: C_7  and  C_8
REMARK    6  A    between atoms: C_7  and  C_15
REMARK    7  A    between atoms: C_8  and  C_9
REMARK    8  A    between atoms: C_15  and  O_17
REMARK    9  A    between atoms: O_17  and  C_18
REMARK   10  A    between atoms: C_18  and  C_19
REMARK   11  A    between atoms: C_19  and  O_21
REMARK                            x       y       z     vdW  Elec       q    Type
REMARK                         _______ _______ _______ _____ _____    ______ ____
ROOT
ATOM      1  C   UNL     1       4.166   4.993  19.222  0.00  0.00    +0.000 C 
ENDROOT
BRANCH   1   4
ATOM      2  C   UNL     1       5.927   5.081  17.468  0.00  0.00    +0.000 C 
ATOM      3  O   UNL     1       5.293   4.366  16.694  0.00  0.00    +0.000 OA
ATOM      4  N   UNL     1       5.482   5.412  18.723  0.00  0.00    +0.000 N 
ATOM      5  H   UNL     1       5.967   6.131  19.249  0.00  0.00    +0.000 HD
BRANCH   2   7
ATOM      6  C   UNL     1       7.390   7.103  17.585  0.00  0.00    +0.000 C 
ATOM      7  C   UNL     1       7.301   5.664  17.096  0.00  0.00    +0.000 C 
BRANCH   7   8
ATOM      8  N   UNL     1       7.482   5.609  15.632  0.00  0.00    +0.000 NA
ATOM      9  H   UNL     1       8.002   6.450  15.362  0.00  0.00    +0.000 HD
ATOM     10  H   UNL     1       6.570   5.740  15.192  0.00  0.00    +0.000 HD
ENDBRANCH   7   8
ENDBRANCH   2   7
ENDBRANCH   1   4
BRANCH   1  11
ATOM     11  C   UNL     1       4.070   3.474  19.438  0.00  0.00    +0.000 C 
ATOM     12  O   UNL     1       4.956   2.773  19.913  0.00  0.00    +0.000 OA
BRANCH  11  13
ATOM     13  O   UNL     1       2.916   2.969  18.896  0.00  0.00    +0.000 OA
BRANCH  13  14
ATOM     14  C   UNL     1       2.182   2.143  19.806  0.00  0.00    +0.000 C 
BRANCH  14  15
ATOM     15  C   UNL     1       1.550   2.976  20.919  0.00  0.00    +0.000 C 
ATOM     16  O   UNL     1       1.879   2.918  22.096  0.00  0.00    +0.000 OA
BRANCH  15  17
ATOM     17  O   UNL     1       0.545   3.778  20.492  0.00  0.00    +0.000 OA
ATOM     18  H   UNL     1      -0.295   3.320  20.303  0.00  0.00    +0.000 HD
ENDBRANCH  15  17
ENDBRANCH  14  15
ENDBRANCH  13  14
ENDBRANCH  11  13
ENDBRANCH   1  11
BRANCH   1  19
ATOM     19  C   UNL     1       2.978   5.513  18.392  0.00  0.00    +0.000 C 
BRANCH  19  20
ATOM     20  C   UNL     1       2.400   6.832  18.851  0.00  0.00    +0.000 A 
ATOM     21  C   UNL     1       2.225   7.885  17.943  0.00  0.00    +0.000 A 
ATOM     22  C   UNL     1       1.664   9.092  18.363  0.00  0.00    +0.000 A 
ATOM     23  C   UNL     1       1.278   9.261  19.689  0.00  0.00    +0.000 A 
ATOM     24  C   UNL     1       1.451   8.222  20.601  0.00  0.00    +0.000 A 
ATOM     25  C   UNL     1       2.009   7.012  20.185  0.00  0.00    +0.000 A 
ENDBRANCH  19  20
ENDBRANCH   1  19
TORSDOF 10
ENDMDL
MODEL 4
REMARK VINA RESULT:      -6.9      3.237      5.876
REMARK  Name = 
REMARK  11 active torsions:
REMARK  status: ('A' for Active; 'I' for Inactive)
REMARK    1  A    between atoms: C_1  and  C_2
REMARK    2  A    between atoms: C_2  and  N_3
REMARK    3  A    between atoms: C_2  and  C_4
REMARK    4  A    between atoms: N_6  and  C_7
REMARK    5  A    between atoms: C_7  and  C_8
REMARK    6  A    between atoms: C_7  and  C_15
REMARK    7  A    between atoms: C_8  and  C_9
REMARK    8  A    between atoms: C_15  and  O_17
REMARK    9  A    between atoms: O_17  and  C_18
REMARK   10  A    between atoms: C_18  and  C_19
REMARK   11  A    between atoms: C_19  and  O_21
REMARK                            x       y       z     vdW  Elec       q    Type
REMARK                         _______ _______ _______ _____ _____    ______ ____
ROOT
ATOM      1  C   UNL     1       4.156   5.039  19.185  0.00  0.00    +0.000 C 
ENDROOT
BRANCH   1   4
ATOM      2  C   UNL     1       5.916   5.140  17.432  0.00  0.00    +0.000 C 
ATOM      3  O   UNL     1       5.269   4.456  16.640  0.00  0.00    +0.000 OA
ATOM      4  N   UNL     1       5.478   5.446  18.696  0.00  0.00    +0.000 N 
ATOM      5  H   UNL     1       5.977   6.143  19.240  0.00  0.00    +0.000 HD
BRANCH   2   7
ATOM      6  C   UNL     1       7.395   7.151  17.548  0.00  0.00    +0.000 C 
ATOM      7  C   UNL     1       7.301   5.708  17.073  0.00  0.00    +0.000 C 
BRANCH   7   8
ATOM      8  N   UNL     1       7.501   5.635  15.612  0.00  0.00    +0.000 NA
ATOM      9  H   UNL     1       6.681   5.160  15.221  0.00  0.00    +0.000 HD
ATOM     10  H   UNL     1       8.265   4.983  15.427  0.00  0.00    +0.000 HD
ENDBRANCH   7   8
ENDBRANCH   2   7
ENDBRANCH   1   4
BRANCH   1  11
ATOM     11  C   UNL     1       4.047   3.522  19.406  0.00  0.00    +0.000 C 
ATOM     12  O   UNL     1       4.925   2.816  19.888  0.00  0.00    +0.000 OA
BRANCH  11  13
ATOM     13  O   UNL     1       2.892   3.023  18.860  0.00  0.00    +0.000 OA
BRANCH  13  14
ATOM     14  C   UNL     1       2.187   2.142  19.742  0.00  0.00    +0.000 C 
BRANCH  14  15
ATOM     15  C   UNL     1       1.492   2.920  20.857  0.00  0.00    +0.000 C 
ATOM     16  O   UNL     1       1.760   2.810  22.046  0.00  0.00    +0.000 OA
BRANCH  15  17
ATOM     17  O   UNL     1       0.504   3.735  20.416  0.00  0.00    +0.000 OA
ATOM     18  H   UNL     1       0.800   4.612  20.110  0.00  0.00    +0.000 HD
ENDBRANCH  15  17
ENDBRANCH  14  15
ENDBRANCH  13  14
ENDBRANCH  11  13
ENDBRANCH   1  11
BRANCH   1  19
ATOM     19  C   UNL     1       2.978   5.564  18.344  0.00  0.00    +0.000 C 
BRANCH  19  20
ATOM     20  C   UNL     1       2.364   6.857  18.832  0.00  0.00    +0.000 A 
ATOM     21  C   UNL     1       1.992   7.003  20.175  0.00  0.00    +0.000 A 
ATOM     22  C   UNL     1       1.453   8.207  20.629  0.00  0.00    +0.000 A 
ATOM     23  C   UNL     1       1.276   9.272  19.750  0.00  0.00    +0.000 A 
ATOM     24  C   UNL     1       1.640   9.136  18.412  0.00  0.00    +0.000 A 
ATOM     25  C   UNL     1       2.182   7.934  17.954  0.00  0.00    +0.000 A 
ENDBRANCH  19  20
ENDBRANCH   1  19
TORSDOF 10
ENDMDL
MODEL 5
REMARK VINA RESULT:      -6.9      2.573      4.973
REMARK  Name = 
REMARK  11 active torsions:
REMARK  status: ('A' for Active; 'I' for Inactive)
REMARK    1  A    between atoms: C_1  and  C_2
REMARK    2  A    between atoms: C_2  and  N_3
REMARK    3  A    between atoms: C_2  and  C_4
REMARK    4  A    between atoms: N_6  and  C_7
REMARK    5  A    between atoms: C_7  and  C_8
REMARK    6  A    between atoms: C_7  and  C_15
REMARK    7  A    between atoms: C_8  and  C_9
REMARK    8  A    between atoms: C_15  and  O_17
REMARK    9  A    between atoms: O_17  and  C_18
REMARK   10  A    between atoms: C_18  and  C_19
REMARK   11  A    between atoms: C_19  and  O_21
REMARK                            x       y       z     vdW  Elec       q    Type
REMARK                         _______ _______ _______ _____ _____    ______ ____
ROOT
ATOM      1  C   UNL     1       4.412   4.372  17.148  0.00  0.00    +0.000 C 
ENDROOT
BRANCH   1   4
ATOM      2  C   UNL     1       5.507   5.379  15.155  0.00  0.00    +0.000 C 
ATOM      3  O   UNL     1       5.108   6.512  15.419  0.00  0.00    +0.000 OA
ATOM      4  N   UNL     1       5.194   4.276  15.910  0.00  0.00    +0.000 N 
ATOM      5  H   UNL     1       5.681   3.402  15.739  0.00  0.00    +0.000 HD
BRANCH   2   7
ATOM      6  C   UNL     1       6.133   3.673  13.439  0.00  0.00    +0.000 C 
ATOM      7  C   UNL     1       6.390   5.092  13.928  0.00  0.00    +0.000 C 
BRANCH   7   8
ATOM      8  N   UNL     1       7.811   5.259  14.293  0.00  0.00    +0.000 NA
ATOM      9  H   UNL     1       7.883   5.087  15.301  0.00  0.00    +0.000 HD
ATOM     10  H   UNL     1       8.050   6.247  14.201  0.00  0.00    +0.000 HD
ENDBRANCH   7   8
ENDBRANCH   2   7
ENDBRANCH   1   4
BRANCH   1  11
ATOM     11  C   UNL     1       5.157   5.123  18.263  0.00  0.00    +0.000 C 
ATOM     12  O   UNL     1       4.645   5.923  19.037  0.00  0.00    +0.000 OA
BRANCH  11  13
ATOM     13  O   UNL     1       6.508   4.897  18.195  0.00  0.00    +0.000 OA
BRANCH  13  14
ATOM     14  C   UNL     1       7.271   5.798  19.006  0.00  0.00    +0.000 C 
BRANCH  14  15
ATOM     15  C   UNL     1       7.863   6.928  18.167  0.00  0.00    +0.000 C 
ATOM     16  O   UNL     1       8.424   7.912  18.631  0.00  0.00    +0.000 OA
BRANCH  15  17
ATOM     17  O   UNL     1       7.680   6.768  16.835  0.00  0.00    +0.000 OA
ATOM     18  H   UNL     1       7.123   7.447  16.411  0.00  0.00    +0.000 HD
ENDBRANCH  15  17
ENDBRANCH  14  15
ENDBRANCH  13  14
ENDBRANCH  11  13
ENDBRANCH   1  11
BRANCH   1  19
ATOM     19  C   UNL     1       3.860   3.028  17.657  0.00  0.00    +0.000 C 
BRANCH  19  20
ATOM     20  C   UNL     1       2.987   3.115  18.888  0.00  0.00    +0.000 A 
ATOM     21  C   UNL     1       1.688   3.634  18.803  0.00  0.00    +0.000 A 
ATOM     22  C   UNL     1       0.874   3.686  19.934  0.00  0.00    +0.000 A 
ATOM     23  C   UNL     1       1.348   3.227  21.160  0.00  0.00    +0.000 A 
ATOM     24  C   UNL     1       2.639   2.712  21.257  0.00  0.00    +0.000 A 
ATOM     25  C   UNL     1       3.455   2.655  20.127  0.00  0.00    +0.000 A 
ENDBRANCH  19  20
ENDBRANCH   1  19
TORSDOF 10
ENDMDL
MODEL 6
REMARK VINA RESULT:      -6.9      3.486      5.127
REMARK  Name = 
REMARK  11 active torsions:
REMARK  status: ('A' for Active; 'I' for Inactive)
REMARK    1  A    between atoms: C_1  and  C_2
REMARK    2  A    between atoms: C_2  and  N_3
REMARK    3  A    between atoms: C_2  and  C_4
REMARK    4  A    between atoms: N_6  and  C_7
REMARK    5  A    between atoms: C_7  and  C_8
REMARK    6  A    between atoms: C_7  and  C_15
REMARK    7  A    between atoms: C_8  and  C_9
REMARK    8  A    between atoms: C_15  and  O_17
REMARK    9  A    between atoms: O_17  and  C_18
REMARK   10  A    between atoms: C_18  and  C_19
REMARK   11  A    between atoms: C_19  and  O_21
REMARK                            x       y       z     vdW  Elec       q    Type
REMARK                         _______ _______ _______ _____ _____    ______ ____
ROOT
ATOM      1  C   UNL     1       2.913   6.511  18.229  0.00  0.00    +0.000 C 
ENDROOT
BRANCH   1   4
ATOM      2  C   UNL     1       1.788   8.585  19.017  0.00  0.00    +0.000 C 
ATOM      3  O   UNL     1       1.680   8.174  20.171  0.00  0.00    +0.000 OA
ATOM      4  N   UNL     1       2.337   7.842  18.001  0.00  0.00    +0.000 N 
ATOM      5  H   UNL     1       2.546   8.290  17.115  0.00  0.00    +0.000 HD
BRANCH   2   7
ATOM      6  C   UNL     1      -0.164   9.898  18.174  0.00  0.00    +0.000 C 
ATOM      7  C   UNL     1       1.295   9.981  18.601  0.00  0.00    +0.000 C 
BRANCH   7   8
ATOM      8  N   UNL     1       2.126  10.489  17.491  0.00  0.00    +0.000 NA
ATOM      9  H   UNL     1       2.525   9.671  17.019  0.00  0.00    +0.000 HD
ATOM     10  H   UNL     1       2.941  10.956  17.891  0.00  0.00    +0.000 HD
ENDBRANCH   7   8
ENDBRANCH   2   7
ENDBRANCH   1   4
BRANCH   1  11
ATOM     11  C   UNL     1       4.212   6.285  17.440  0.00  0.00    +0.000 C 
ATOM     12  O   UNL     1       4.789   7.137  16.774  0.00  0.00    +0.000 OA
BRANCH  11  13
ATOM     13  O   UNL     1       4.576   4.963  17.453  0.00  0.00    +0.000 OA
BRANCH  13  14
ATOM     14  C   UNL     1       5.434   4.604  16.364  0.00  0.00    +0.000 C 
BRANCH  14  15
ATOM     15  C   UNL     1       6.883   4.469  16.826  0.00  0.00    +0.000 C 
ATOM     16  O   UNL     1       7.855   4.591  16.092  0.00  0.00    +0.000 OA
BRANCH  15  17
ATOM     17  O   UNL     1       7.008   4.157  18.138  0.00  0.00    +0.000 OA
ATOM     18  H   UNL     1       6.166   4.054  18.618  0.00  0.00    +0.000 HD
ENDBRANCH  15  17
ENDBRANCH  14  15
ENDBRANCH  13  14
ENDBRANCH  11  13
ENDBRANCH   1  11
BRANCH   1  19
ATOM     19  C   UNL     1       1.926   5.348  18.020  0.00  0.00    +0.000 C 
BRANCH  19  20
ATOM     20  C   UNL     1       1.798   4.394  19.187  0.00  0.00    +0.000 A 
ATOM     21  C   UNL     1       2.280   4.753  20.452  0.00  0.00    +0.000 A 
ATOM     22  C   UNL     1       2.135   3.884  21.534  0.00  0.00    +0.000 A 
ATOM     23  C   UNL     1       1.515   2.650  21.362  0.00  0.00    +0.000 A 
ATOM     24  C   UNL     1       1.035   2.281  20.107  0.00  0.00    +0.000 A 
ATOM     25  C   UNL     1       1.175   3.149  19.023  0.00  0.00    +0.000 A 
ENDBRANCH  19  20
ENDBRANCH   1  19
TORSDOF 10
ENDMDL
MODEL 7
REMARK VINA RESULT:      -6.9      3.406      5.765
REMARK  Name = 
REMARK  11 active torsions:
REMARK  status: ('A' for Active; 'I' for Inactive)
REMARK    1  A    between atoms: C_1  and  C_2
REMARK    2  A    between atoms: C_2  and  N_3
REMARK    3  A    between atoms: C_2  and  C_4
REMARK    4  A    between atoms: N_6  and  C_7
REMARK    5  A    between atoms: C_7  and  C_8
REMARK    6  A    between atoms: C_7  and  C_15
REMARK    7  A    between atoms: C_8  and  C_9
REMARK    8  A    between atoms: C_15  and  O_17
REMARK    9  A    between atoms: O_17  and  C_18
REMARK   10  A    between atoms: C_18  and  C_19
REMARK   11  A    between atoms: C_19  and  O_21
REMARK                            x       y       z     vdW  Elec       q    Type
REMARK                         _______ _______ _______ _____ _____    ______ ____
ROOT
ATOM      1  C   UNL     1       3.777   5.688  18.303  0.00  0.00    +0.000 C 
ENDROOT
BRANCH   1   4
ATOM      2  C   UNL     1       6.137   5.200  18.915  0.00  0.00    +0.000 C 
ATOM      3  O   UNL     1       5.820   4.572  19.925  0.00  0.00    +0.000 OA
ATOM      4  N   UNL     1       5.224   5.805  18.088  0.00  0.00    +0.000 N 
ATOM      5  H   UNL     1       5.529   6.166  17.190  0.00  0.00    +0.000 HD
BRANCH   2   7
ATOM      6  C   UNL     1       7.768   6.706  17.770  0.00  0.00    +0.000 C 
ATOM      7  C   UNL     1       7.606   5.377  18.495  0.00  0.00    +0.000 C 
BRANCH   7   8
ATOM      8  N   UNL     1       8.007   4.261  17.616  0.00  0.00    +0.000 NA
ATOM      9  H   UNL     1       7.397   4.295  16.792  0.00  0.00    +0.000 HD
ATOM     10  H   UNL     1       7.744   3.386  18.071  0.00  0.00    +0.000 HD
ENDBRANCH   7   8
ENDBRANCH   2   7
ENDBRANCH   1   4
BRANCH   1  11
ATOM     11  C   UNL     1       3.227   4.309  17.903  0.00  0.00    +0.000 C 
ATOM     12  O   UNL     1       3.497   3.718  16.864  0.00  0.00    +0.000 OA
BRANCH  11  13
ATOM     13  O   UNL     1       2.276   3.878  18.792  0.00  0.00    +0.000 OA
BRANCH  13  14
ATOM     14  C   UNL     1       2.752   2.852  19.671  0.00  0.00    +0.000 C 
BRANCH  14  15
ATOM     15  C   UNL     1       2.005   2.878  21.003  0.00  0.00    +0.000 C 
ATOM     16  O   UNL     1       2.542   2.765  22.097  0.00  0.00    +0.000 OA
BRANCH  15  17
ATOM     17  O   UNL     1       0.663   3.003  20.870  0.00  0.00    +0.000 OA
ATOM     18  H   UNL     1       0.302   3.871  21.130  0.00  0.00    +0.000 HD
ENDBRANCH  15  17
ENDBRANCH  14  15
ENDBRANCH  13  14
ENDBRANCH  11  13
ENDBRANCH   1  11
BRANCH   1  19
ATOM     19  C   UNL     1       2.948   6.821  17.670  0.00  0.00    +0.000 C 
BRANCH  19  20
ATOM     20  C   UNL     1       2.209   7.704  18.651  0.00  0.00    +0.000 A 
ATOM     21  C   UNL     1       2.059   7.309  19.987  0.00  0.00    +0.000 A 
ATOM     22  C   UNL     1       1.403   8.138  20.897  0.00  0.00    +0.000 A 
ATOM     23  C   UNL     1       0.888   9.363  20.483  0.00  0.00    +0.000 A 
ATOM     24  C   UNL     1       1.028   9.764  19.156  0.00  0.00    +0.000 A 
ATOM     25  C   UNL     1       1.687   8.939  18.243  0.00  0.00    +0.000 A 
ENDBRANCH  19  20
ENDBRANCH   1  19
TORSDOF 10
ENDMDL
MODEL 8
REMARK VINA RESULT:      -6.8      2.510      4.905
REMARK  Name = 
REMARK  11 active torsions:
REMARK  status: ('A' for Active; 'I' for Inactive)
REMARK    1  A    between atoms: C_1  and  C_2
REMARK    2  A    between atoms: C_2  and  N_3
REMARK    3  A    between atoms: C_2  and  C_4
REMARK    4  A    between atoms: N_6  and  C_7
REMARK    5  A    between atoms: C_7  and  C_8
REMARK    6  A    between atoms: C_7  and  C_15
REMARK    7  A    between atoms: C_8  and  C_9
REMARK    8  A    between atoms: C_15  and  O_17
REMARK    9  A    between atoms: O_17  and  C_18
REMARK   10  A    between atoms: C_18  and  C_19
REMARK   11  A    between atoms: C_19  and  O_21
REMARK                            x       y       z     vdW  Elec       q    Type
REMARK                         _______ _______ _______ _____ _____    ______ ____
ROOT
ATOM      1  C   UNL     1       4.770   4.252  17.246  0.00  0.00    +0.000 C 
ENDROOT
BRANCH   1   4
ATOM      2  C   UNL     1       5.613   5.338  15.174  0.00  0.00    +0.000 C 
ATOM      3  O   UNL     1       5.098   6.422  15.446  0.00  0.00    +0.000 OA
ATOM      4  N   UNL     1       5.482   4.223  15.963  0.00  0.00    +0.000 N 
ATOM      5  H   UNL     1       6.059   3.409  15.774  0.00  0.00    +0.000 HD
BRANCH   2   7
ATOM      6  C   UNL     1       6.247   3.713  13.385  0.00  0.00    +0.000 C 
ATOM      7  C   UNL     1       6.449   5.132  13.899  0.00  0.00    +0.000 C 
BRANCH   7   8
ATOM      8  N   UNL     1       7.875   5.371  14.198  0.00  0.00    +0.000 NA
ATOM      9  H   UNL     1       8.396   5.187  13.335  0.00  0.00    +0.000 HD
ATOM     10  H   UNL     1       8.195   4.638  14.832  0.00  0.00    +0.000 HD
ENDBRANCH   7   8
ENDBRANCH   2   7
ENDBRANCH   1   4
BRANCH   1  11
ATOM     11  C   UNL     1       5.700   4.007  18.446  0.00  0.00    +0.000 C 
ATOM     12  O   UNL     1       5.363   3.489  19.504  0.00  0.00    +0.000 OA
BRANCH  11  13
ATOM     13  O   UNL     1       6.932   4.574  18.241  0.00  0.00    +0.000 OA
BRANCH  13  14
ATOM     14  C   UNL     1       7.143   5.759  19.018  0.00  0.00    +0.000 C 
BRANCH  14  15
ATOM     15  C   UNL     1       7.860   6.832  18.202  0.00  0.00    +0.000 C 
ATOM     16  O   UNL     1       7.794   6.932  16.984  0.00  0.00    +0.000 OA
BRANCH  15  17
ATOM     17  O   UNL     1       8.624   7.662  18.951  0.00  0.00    +0.000 OA
ATOM     18  H   UNL     1       9.554   7.736  18.665  0.00  0.00    +0.000 HD
ENDBRANCH  15  17
ENDBRANCH  14  15
ENDBRANCH  13  14
ENDBRANCH  11  13
ENDBRANCH   1  11
BRANCH   1  19
ATOM     19  C   UNL     1       3.533   3.338  17.307  0.00  0.00    +0.000 C 
BRANCH  19  20
ATOM     20  C   UNL     1       2.598   3.596  18.467  0.00  0.00    +0.000 A 
ATOM     21  C   UNL     1       2.057   2.527  19.194  0.00  0.00    +0.000 A 
ATOM     22  C   UNL     1       1.218   2.768  20.283  0.00  0.00    +0.000 A 
ATOM     23  C   UNL     1       0.907   4.074  20.651  0.00  0.00    +0.000 A 
ATOM     24  C   UNL     1       1.436   5.144  19.933  0.00  0.00    +0.000 A 
ATOM     25  C   UNL     1       2.278   4.907  18.846  0.00  0.00    +0.000 A 
ENDBRANCH  19  20
ENDBRANCH   1  19
TORSDOF 10
ENDMDL
MODEL 9
REMARK VINA RESULT:      -6.8      3.753      5.846
REMARK  Name = 
REMARK  11 active torsions:
REMARK  status: ('A' for Active; 'I' for Inactive)
REMARK    1  A    between atoms: C_1  and  C_2
REMARK    2  A    between atoms: C_2  and  N_3
REMARK    3  A    between atoms: C_2  and  C_4
REMARK    4  A    between atoms: N_6  and  C_7
REMARK    5  A    between atoms: C_7  and  C_8
REMARK    6  A    between atoms: C_7  and  C_15
REMARK    7  A    between atoms: C_8  and  C_9
REMARK    8  A    between atoms: C_15  and  O_17
REMARK    9  A    between atoms: O_17  and  C_18
REMARK   10  A    between atoms: C_18  and  C_19
REMARK   11  A    between atoms: C_19  and  O_21
REMARK                            x       y       z     vdW  Elec       q    Type
REMARK                         _______ _______ _______ _____ _____    ______ ____
ROOT
ATOM      1  C   UNL     1       2.930   5.937  18.422  0.00  0.00    +0.000 C 
ENDROOT
BRANCH   1   4
ATOM      2  C   UNL     1       1.664   3.817  18.124  0.00  0.00    +0.000 C 
ATOM      3  O   UNL     1       1.002   4.260  17.187  0.00  0.00    +0.000 OA
ATOM      4  N   UNL     1       2.594   4.561  18.806  0.00  0.00    +0.000 N 
ATOM      5  H   UNL     1       3.221   4.099  19.457  0.00  0.00    +0.000 HD
BRANCH   2   7
ATOM      6  C   UNL     1       1.506   2.367  20.152  0.00  0.00    +0.000 C 
ATOM      7  C   UNL     1       1.495   2.374  18.630  0.00  0.00    +0.000 C 
BRANCH   7   8
ATOM      8  N   UNL     1       2.590   1.534  18.105  0.00  0.00    +0.000 NA
ATOM      9  H   UNL     1       2.715   1.787  17.119  0.00  0.00    +0.000 HD
ATOM     10  H   UNL     1       2.260   0.569  18.064  0.00  0.00    +0.000 HD
ENDBRANCH   7   8
ENDBRANCH   2   7
ENDBRANCH   1   4
BRANCH   1  11
ATOM     11  C   UNL     1       4.254   6.030  17.647  0.00  0.00    +0.000 C 
ATOM     12  O   UNL     1       4.467   6.784  16.704  0.00  0.00    +0.000 OA
BRANCH  11  13
ATOM     13  O   UNL     1       5.132   5.057  18.049  0.00  0.00    +0.000 OA
BRANCH  13  14
ATOM     14  C   UNL     1       5.771   4.389  16.955  0.00  0.00    +0.000 C 
BRANCH  14  15
ATOM     15  C   UNL     1       7.236   4.805  16.835  0.00  0.00    +0.000 C 
ATOM     16  O   UNL     1       8.172   4.182  17.316  0.00  0.00    +0.000 OA
BRANCH  15  17
ATOM     17  O   UNL     1       7.415   5.970  16.168  0.00  0.00    +0.000 OA
ATOM     18  H   UNL     1       6.673   6.234  15.592  0.00  0.00    +0.000 HD
ENDBRANCH  15  17
ENDBRANCH  14  15
ENDBRANCH  13  14
ENDBRANCH  11  13
ENDBRANCH   1  11
BRANCH   1  19
ATOM     19  C   UNL     1       2.893   6.948  19.583  0.00  0.00    +0.000 C 
BRANCH  19  20
ATOM     20  C   UNL     1       1.927   8.098  19.405  0.00  0.00    +0.000 A 
ATOM     21  C   UNL     1       1.737   8.676  18.143  0.00  0.00    +0.000 A 
ATOM     22  C   UNL     1       0.824   9.718  17.975  0.00  0.00    +0.000 A 
ATOM     23  C   UNL     1       0.099  10.195  19.063  0.00  0.00    +0.000 A 
ATOM     24  C   UNL     1       0.283   9.630  20.323  0.00  0.00    +0.000 A 
ATOM     25  C   UNL     1       1.192   8.586  20.494  0.00  0.00    +0.000 A 
ENDBRANCH  19  20
ENDBRANCH   1  19
TORSDOF 10
ENDMDL
