MODEL 1
REMARK VINA RESULT:      -9.0      0.000      0.000
REMARK  Name = 
REMARK  3 active torsions:
REMARK  status: ('A' for Active; 'I' for Inactive)
REMARK    1  A    between atoms: C_1  and  C_2
REMARK    2  A    between atoms: C_6  and  C_8
REMARK    3  A    between atoms: C_17  and  C_18
REMARK                            x       y       z     vdW  Elec       q    Type
REMARK                         _______ _______ _______ _____ _____    ______ ____
ROOT
ATOM      1  C   UNL     1       2.711   7.753  17.924  0.00  0.00    +0.000 A 
ATOM      2  C   UNL     1       3.967   7.693  17.312  0.00  0.00    +0.000 A 
ATOM      3  C   UNL     1       4.557   6.454  17.022  0.00  0.00    +0.000 A 
ATOM      4  C   UNL     1       3.901   5.262  17.392  0.00  0.00    +0.000 A 
ATOM      5  C   UNL     1       4.246   3.886  17.311  0.00  0.00    +0.000 A 
ATOM      6  C   UNL     1       3.259   3.157  17.948  0.00  0.00    +0.000 A 
ATOM      7  N   UNL     1       2.280   4.049  18.327  0.00  0.00    +0.000 N 
ATOM      8  C   UNL     1       2.655   5.338  18.015  0.00  0.00    +0.000 A 
ATOM      9  C   UNL     1       2.031   6.569  18.262  0.00  0.00    +0.000 A 
ATOM     10  C   UNL     1       1.064   3.628  19.022  0.00  0.00    +0.000 C 
ATOM     11  C   UNL     1       1.050   4.062  20.489  0.00  0.00    +0.000 C 
ATOM     12  C   UNL     1       0.875   2.102  18.899  0.00  0.00    +0.000 C 
ATOM     13  N   UNL     1       2.110   1.344  18.951  0.00  0.00    +0.000 N 
ATOM     14  C   UNL     1       3.218   1.747  18.243  0.00  0.00    +0.000 C 
ATOM     15  O   UNL     1       4.087   0.939  17.933  0.00  0.00    +0.000 OA
ATOM     16  H   UNL     1       2.075   0.341  19.084  0.00  0.00    +0.000 HD
ENDROOT
BRANCH   1  22
ATOM     17  C   UNL     1      -1.164  12.216  22.416  0.00  0.00    +0.000 C 
ATOM     18  C   UNL     1      -0.393  11.465  21.412  0.00  0.00    +0.000 A 
ATOM     19  C   UNL     1       0.105  10.189  21.318  0.00  0.00    +0.000 A 
ATOM     20  C   UNL     1       0.759  10.149  20.059  0.00  0.00    +0.000 A 
ATOM     21  N   UNL     1       1.412   9.037  19.553  0.00  0.00    +0.000 N 
ATOM     22  C   UNL     1       2.061   9.039  18.336  0.00  0.00    +0.000 C 
ATOM     23  O   UNL     1       2.171   9.987  17.567  0.00  0.00    +0.000 OA
ATOM     24  N   UNL     1       0.641  11.327  19.442  0.00  0.00    +0.000 NA
ATOM     25  O   UNL     1      -0.071  12.149  20.284  0.00  0.00    +0.000 OA
ATOM     26  H   UNL     1       1.450   8.225  20.152  0.00  0.00    +0.000 HD
ENDBRANCH   1  22
TORSDOF 1
ENDMDL
MODEL 2
REMARK VINA RESULT:      -8.3      3.238      8.086
REMARK  Name = 
REMARK  3 active torsions:
REMARK  status: ('A' for Active; 'I' for Inactive)
REMARK    1  A    between atoms: C_1  and  C_2
REMARK    2  A    between atoms: C_6  and  C_8
REMARK    3  A    between atoms: C_17  and  C_18
REMARK                            x       y       z     vdW  Elec       q    Type
REMARK                         _______ _______ _______ _____ _____    ______ ____
ROOT
ATOM      1  C   UNL     1       4.110   6.391  17.886  0.00  0.00    +0.000 A 
ATOM      2  C   UNL     1       4.091   5.571  19.018  0.00  0.00    +0.000 A 
ATOM      3  C   UNL     1       3.183   5.818  20.059  0.00  0.00    +0.000 A 
ATOM      4  C   UNL     1       2.317   6.928  19.984  0.00  0.00    +0.000 A 
ATOM      5  C   UNL     1       1.357   7.485  20.870  0.00  0.00    +0.000 A 
ATOM      6  C   UNL     1       0.890   8.662  20.315  0.00  0.00    +0.000 A 
ATOM      7  N   UNL     1       1.473   8.780  19.072  0.00  0.00    +0.000 N 
ATOM      8  C   UNL     1       2.358   7.746  18.854  0.00  0.00    +0.000 A 
ATOM      9  C   UNL     1       3.224   7.478  17.784  0.00  0.00    +0.000 A 
ATOM     10  C   UNL     1       1.197   9.907  18.182  0.00  0.00    +0.000 C 
ATOM     11  C   UNL     1       2.389  10.859  18.062  0.00  0.00    +0.000 C 
ATOM     12  C   UNL     1      -0.065  10.662  18.646  0.00  0.00    +0.000 C 
ATOM     13  N   UNL     1      -0.212  10.747  20.086  0.00  0.00    +0.000 N 
ATOM     14  C   UNL     1       0.008   9.649  20.884  0.00  0.00    +0.000 C 
ATOM     15  O   UNL     1      -0.505   9.574  21.996  0.00  0.00    +0.000 OA
ATOM     16  H   UNL     1      -0.887  11.388  20.483  0.00  0.00    +0.000 HD
ENDROOT
BRANCH   1  22
ATOM     17  C   UNL     1       6.998   3.264  11.803  0.00  0.00    +0.000 C 
ATOM     18  C   UNL     1       6.566   3.990  13.008  0.00  0.00    +0.000 A 
ATOM     19  C   UNL     1       5.506   3.896  13.877  0.00  0.00    +0.000 A 
ATOM     20  C   UNL     1       5.722   4.931  14.823  0.00  0.00    +0.000 A 
ATOM     21  N   UNL     1       4.881   5.203  15.890  0.00  0.00    +0.000 N 
ATOM     22  C   UNL     1       5.107   6.234  16.778  0.00  0.00    +0.000 C 
ATOM     23  O   UNL     1       6.030   7.040  16.743  0.00  0.00    +0.000 OA
ATOM     24  N   UNL     1       6.850   5.587  14.537  0.00  0.00    +0.000 NA
ATOM     25  O   UNL     1       7.373   5.006  13.406  0.00  0.00    +0.000 OA
ATOM     26  H   UNL     1       4.044   4.643  15.957  0.00  0.00    +0.000 HD
ENDBRANCH   1  22
TORSDOF 1
ENDMDL
MODEL 3
REMARK VINA RESULT:      -8.2      1.762      1.929
REMARK  Name = 
REMARK  3 active torsions:
REMARK  status: ('A' for Active; 'I' for Inactive)
REMARK    1  A    between atoms: C_1  and  C_2
REMARK    2  A    between atoms: C_6  and  C_8
REMARK    3  A    between atoms: C_17  and  C_18
REMARK                            x       y       z     vdW  Elec       q    Type
REMARK                         _______ _______ _______ _____ _____    ______ ____
ROOT
ATOM      1  C   UNL     1       2.535   7.920  18.109  0.00  0.00    +0.000 A 
ATOM      2  C   UNL     1       3.778   7.922  17.470  0.00  0.00    +0.000 A 
ATOM      3  C   UNL     1       4.395   6.713  17.110  0.00  0.00    +0.000 A 
ATOM      4  C   UNL     1       3.778   5.489  17.438  0.00  0.00    +0.000 A 
ATOM      5  C   UNL     1       4.157   4.128  17.286  0.00  0.00    +0.000 A 
ATOM      6  C   UNL     1       3.204   3.344  17.908  0.00  0.00    +0.000 A 
ATOM      7  N   UNL     1       2.210   4.190  18.348  0.00  0.00    +0.000 N 
ATOM      8  C   UNL     1       2.544   5.502  18.089  0.00  0.00    +0.000 A 
ATOM      9  C   UNL     1       1.893   6.703  18.405  0.00  0.00    +0.000 A 
ATOM     10  C   UNL     1       1.020   3.705  19.047  0.00  0.00    +0.000 C 
ATOM     11  C   UNL     1       1.027   4.070  20.532  0.00  0.00    +0.000 C 
ATOM     12  C   UNL     1       0.868   2.182  18.856  0.00  0.00    +0.000 C 
ATOM     13  N   UNL     1       2.124   1.455  18.848  0.00  0.00    +0.000 N 
ATOM     14  C   UNL     1       3.205   1.921  18.137  0.00  0.00    +0.000 C 
ATOM     15  O   UNL     1       4.088   1.152  17.773  0.00  0.00    +0.000 OA
ATOM     16  H   UNL     1       2.118   0.447  18.934  0.00  0.00    +0.000 HD
ENDROOT
BRANCH   1  22
ATOM     17  C   UNL     1       1.513  15.251  18.673  0.00  0.00    +0.000 C 
ATOM     18  C   UNL     1       1.584  13.781  18.677  0.00  0.00    +0.000 A 
ATOM     19  C   UNL     1       2.378  12.841  18.068  0.00  0.00    +0.000 A 
ATOM     20  C   UNL     1       1.877  11.594  18.524  0.00  0.00    +0.000 A 
ATOM     21  N   UNL     1       2.389  10.362  18.152  0.00  0.00    +0.000 N 
ATOM     22  C   UNL     1       1.861   9.167  18.594  0.00  0.00    +0.000 C 
ATOM     23  O   UNL     1       0.891   9.023  19.330  0.00  0.00    +0.000 OA
ATOM     24  N   UNL     1       0.857  11.789  19.364  0.00  0.00    +0.000 NA
ATOM     25  O   UNL     1       0.670  13.148  19.456  0.00  0.00    +0.000 OA
ATOM     26  H   UNL     1       3.141  10.372  17.479  0.00  0.00    +0.000 HD
ENDBRANCH   1  22
TORSDOF 1
ENDMDL
MODEL 4
REMARK VINA RESULT:      -7.8      1.732      2.121
REMARK  Name = 
REMARK  3 active torsions:
REMARK  status: ('A' for Active; 'I' for Inactive)
REMARK    1  A    between atoms: C_1  and  C_2
REMARK    2  A    between atoms: C_6  and  C_8
REMARK    3  A    between atoms: C_17  and  C_18
REMARK                            x       y       z     vdW  Elec       q    Type
REMARK                         _______ _______ _______ _____ _____    ______ ____
ROOT
ATOM      1  C   UNL     1       1.661   7.963  19.991  0.00  0.00    +0.000 A 
ATOM      2  C   UNL     1       2.401   8.401  18.889  0.00  0.00    +0.000 A 
ATOM      3  C   UNL     1       2.937   7.476  17.979  0.00  0.00    +0.000 A 
ATOM      4  C   UNL     1       2.767   6.095  18.205  0.00  0.00    +0.000 A 
ATOM      5  C   UNL     1       3.228   4.928  17.538  0.00  0.00    +0.000 A 
ATOM      6  C   UNL     1       2.850   3.828  18.285  0.00  0.00    +0.000 A 
ATOM      7  N   UNL     1       2.089   4.295  19.335  0.00  0.00    +0.000 N 
ATOM      8  C   UNL     1       2.038   5.672  19.317  0.00  0.00    +0.000 A 
ATOM      9  C   UNL     1       1.453   6.588  20.203  0.00  0.00    +0.000 A 
ATOM     10  C   UNL     1       1.501   3.403  20.333  0.00  0.00    +0.000 C 
ATOM     11  C   UNL     1       2.190   3.516  21.694  0.00  0.00    +0.000 C 
ATOM     12  C   UNL     1       1.516   1.946  19.828  0.00  0.00    +0.000 C 
ATOM     13  N   UNL     1       2.696   1.594  19.061  0.00  0.00    +0.000 N 
ATOM     14  C   UNL     1       3.189   2.440  18.096  0.00  0.00    +0.000 C 
ATOM     15  O   UNL     1       3.881   2.005  17.181  0.00  0.00    +0.000 OA
ATOM     16  H   UNL     1       2.893   0.621  18.865  0.00  0.00    +0.000 HD
ENDROOT
BRANCH   1  22
ATOM     17  C   UNL     1      -2.393  13.619  22.579  0.00  0.00    +0.000 C 
ATOM     18  C   UNL     1      -1.527  12.481  22.229  0.00  0.00    +0.000 A 
ATOM     19  C   UNL     1      -1.237  11.793  21.077  0.00  0.00    +0.000 A 
ATOM     20  C   UNL     1      -0.309  10.796  21.475  0.00  0.00    +0.000 A 
ATOM     21  N   UNL     1       0.252   9.864  20.618  0.00  0.00    +0.000 N 
ATOM     22  C   UNL     1       1.132   8.890  21.043  0.00  0.00    +0.000 C 
ATOM     23  O   UNL     1       1.513   8.700  22.192  0.00  0.00    +0.000 OA
ATOM     24  N   UNL     1      -0.057  10.900  22.782  0.00  0.00    +0.000 NA
ATOM     25  O   UNL     1      -0.817  11.943  23.254  0.00  0.00    +0.000 OA
ATOM     26  H   UNL     1      -0.063   9.885  19.660  0.00  0.00    +0.000 HD
ENDBRANCH   1  22
TORSDOF 1
ENDMDL
MODEL 5
REMARK VINA RESULT:      -7.6      2.896      8.342
REMARK  Name = 
REMARK  3 active torsions:
REMARK  status: ('A' for Active; 'I' for Inactive)
REMARK    1  A    between atoms: C_1  and  C_2
REMARK    2  A    between atoms: C_6  and  C_8
REMARK    3  A    between atoms: C_17  and  C_18
REMARK                            x       y       z     vdW  Elec       q    Type
REMARK                         _______ _______ _______ _____ _____    ______ ____
ROOT
ATOM      1  C   UNL     1       2.031   8.147  19.037  0.00  0.00    +0.000 A 
ATOM      2  C   UNL     1       1.993   7.357  20.190  0.00  0.00    +0.000 A 
ATOM      3  C   UNL     1       1.185   7.724  21.278  0.00  0.00    +0.000 A 
ATOM      4  C   UNL     1       0.443   8.921  21.225  0.00  0.00    +0.000 A 
ATOM      5  C   UNL     1      -0.394   9.599  22.152  0.00  0.00    +0.000 A 
ATOM      6  C   UNL     1      -0.763  10.809  21.595  0.00  0.00    +0.000 A 
ATOM      7  N   UNL     1      -0.251  10.837  20.316  0.00  0.00    +0.000 N 
ATOM      8  C   UNL     1       0.501   9.707  20.073  0.00  0.00    +0.000 A 
ATOM      9  C   UNL     1       1.263   9.323  18.960  0.00  0.00    +0.000 A 
ATOM     10  C   UNL     1      -0.457  11.969  19.415  0.00  0.00    +0.000 C 
ATOM     11  C   UNL     1       0.821  12.781  19.196  0.00  0.00    +0.000 C 
ATOM     12  C   UNL     1      -1.598  12.868  19.933  0.00  0.00    +0.000 C 
ATOM     13  N   UNL     1      -1.644  12.997  21.377  0.00  0.00    +0.000 N 
ATOM     14  C   UNL     1      -1.495  11.898  22.190  0.00  0.00    +0.000 C 
ATOM     15  O   UNL     1      -1.942  11.903  23.332  0.00  0.00    +0.000 OA
ATOM     16  H   UNL     1      -2.219  13.718  21.796  0.00  0.00    +0.000 HD
ENDROOT
BRANCH   1  22
ATOM     17  C   UNL     1       6.778   4.084  15.029  0.00  0.00    +0.000 C 
ATOM     18  C   UNL     1       5.860   5.016  15.704  0.00  0.00    +0.000 A 
ATOM     19  C   UNL     1       5.112   4.987  16.855  0.00  0.00    +0.000 A 
ATOM     20  C   UNL     1       4.451   6.242  16.888  0.00  0.00    +0.000 A 
ATOM     21  N   UNL     1       3.580   6.641  17.888  0.00  0.00    +0.000 N 
ATOM     22  C   UNL     1       2.932   7.859  17.876  0.00  0.00    +0.000 C 
ATOM     23  O   UNL     1       3.010   8.720  17.007  0.00  0.00    +0.000 OA
ATOM     24  N   UNL     1       4.799   6.973  15.825  0.00  0.00    +0.000 NA
ATOM     25  O   UNL     1       5.672   6.210  15.086  0.00  0.00    +0.000 OA
ATOM     26  H   UNL     1       3.384   5.965  18.611  0.00  0.00    +0.000 HD
ENDBRANCH   1  22
TORSDOF 1
ENDMDL
MODEL 6
REMARK VINA RESULT:      -7.5      3.629      6.851
REMARK  Name = 
REMARK  3 active torsions:
REMARK  status: ('A' for Active; 'I' for Inactive)
REMARK    1  A    between atoms: C_1  and  C_2
REMARK    2  A    between atoms: C_6  and  C_8
REMARK    3  A    between atoms: C_17  and  C_18
REMARK                            x       y       z     vdW  Elec       q    Type
REMARK                         _______ _______ _______ _____ _____    ______ ____
ROOT
ATOM      1  C   UNL     1      -1.391  11.456  22.228  0.00  0.00    +0.000 A 
ATOM      2  C   UNL     1      -1.136  10.647  23.340  0.00  0.00    +0.000 A 
ATOM      3  C   UNL     1      -0.221   9.587  23.253  0.00  0.00    +0.000 A 
ATOM      4  C   UNL     1       0.410   9.306  22.024  0.00  0.00    +0.000 A 
ATOM      5  C   UNL     1       1.307   8.293  21.590  0.00  0.00    +0.000 A 
ATOM      6  C   UNL     1       1.500   8.443  20.230  0.00  0.00    +0.000 A 
ATOM      7  N   UNL     1       0.820   9.579  19.849  0.00  0.00    +0.000 N 
ATOM      8  C   UNL     1       0.135  10.113  20.919  0.00  0.00    +0.000 A 
ATOM      9  C   UNL     1      -0.737  11.207  21.008  0.00  0.00    +0.000 A 
ATOM     10  C   UNL     1       0.812  10.061  18.468  0.00  0.00    +0.000 C 
ATOM     11  C   UNL     1      -0.544   9.863  17.789  0.00  0.00    +0.000 C 
ATOM     12  C   UNL     1       1.937   9.387  17.656  0.00  0.00    +0.000 C 
ATOM     13  N   UNL     1       2.167   7.997  18.000  0.00  0.00    +0.000 N 
ATOM     14  C   UNL     1       2.216   7.592  19.313  0.00  0.00    +0.000 C 
ATOM     15  O   UNL     1       2.811   6.567  19.627  0.00  0.00    +0.000 OA
ATOM     16  H   UNL     1       2.733   7.419  17.392  0.00  0.00    +0.000 HD
ENDROOT
BRANCH   1  22
ATOM     17  C   UNL     1      -7.917  14.586  23.880  0.00  0.00    +0.000 C 
ATOM     18  C   UNL     1      -6.588  14.112  23.461  0.00  0.00    +0.000 A 
ATOM     19  C   UNL     1      -5.861  12.960  23.642  0.00  0.00    +0.000 A 
ATOM     20  C   UNL     1      -4.641  13.193  22.956  0.00  0.00    +0.000 A 
ATOM     21  N   UNL     1      -3.600  12.282  22.882  0.00  0.00    +0.000 N 
ATOM     22  C   UNL     1      -2.415  12.549  22.229  0.00  0.00    +0.000 C 
ATOM     23  O   UNL     1      -2.112  13.593  21.662  0.00  0.00    +0.000 OA
ATOM     24  N   UNL     1      -4.654  14.404  22.393  0.00  0.00    +0.000 NA
ATOM     25  O   UNL     1      -5.861  14.978  22.710  0.00  0.00    +0.000 OA
ATOM     26  H   UNL     1      -3.720  11.418  23.390  0.00  0.00    +0.000 HD
ENDBRANCH   1  22
TORSDOF 1
ENDMDL
MODEL 7
REMARK VINA RESULT:      -7.3      9.488     10.998
REMARK  Name = 
REMARK  3 active torsions:
REMARK  status: ('A' for Active; 'I' for Inactive)
REMARK    1  A    between atoms: C_1  and  C_2
REMARK    2  A    between atoms: C_6  and  C_8
REMARK    3  A    between atoms: C_17  and  C_18
REMARK                            x       y       z     vdW  Elec       q    Type
REMARK                         _______ _______ _______ _____ _____    ______ ____
ROOT
ATOM      1  C   UNL     1       8.552  12.586  21.626  0.00  0.00    +0.000 A 
ATOM      2  C   UNL     1       9.040  11.289  21.441  0.00  0.00    +0.000 A 
ATOM      3  C   UNL     1       9.927  11.006  20.391  0.00  0.00    +0.000 A 
ATOM      4  C   UNL     1      10.292  12.026  19.489  0.00  0.00    +0.000 A 
ATOM      5  C   UNL     1      11.088  12.058  18.313  0.00  0.00    +0.000 A 
ATOM      6  C   UNL     1      10.994  13.323  17.763  0.00  0.00    +0.000 A 
ATOM      7  N   UNL     1      10.238  14.083  18.628  0.00  0.00    +0.000 N 
ATOM      8  C   UNL     1       9.786  13.313  19.678  0.00  0.00    +0.000 A 
ATOM      9  C   UNL     1       8.941  13.619  20.754  0.00  0.00    +0.000 A 
ATOM     10  C   UNL     1       9.939  15.492  18.375  0.00  0.00    +0.000 C 
ATOM     11  C   UNL     1       8.473  15.719  18.001  0.00  0.00    +0.000 C 
ATOM     12  C   UNL     1      10.877  16.054  17.288  0.00  0.00    +0.000 C 
ATOM     13  N   UNL     1      11.186  15.116  16.226  0.00  0.00    +0.000 N 
ATOM     14  C   UNL     1      11.512  13.810  16.509  0.00  0.00    +0.000 C 
ATOM     15  O   UNL     1      12.168  13.146  15.715  0.00  0.00    +0.000 OA
ATOM     16  H   UNL     1      11.620  15.450  15.374  0.00  0.00    +0.000 HD
ENDROOT
BRANCH   1  22
ATOM     17  C   UNL     1       4.399  11.399  27.663  0.00  0.00    +0.000 C 
ATOM     18  C   UNL     1       5.138  11.788  26.452  0.00  0.00    +0.000 A 
ATOM     19  C   UNL     1       6.094  11.200  25.661  0.00  0.00    +0.000 A 
ATOM     20  C   UNL     1       6.365  12.157  24.649  0.00  0.00    +0.000 A 
ATOM     21  N   UNL     1       7.282  11.976  23.627  0.00  0.00    +0.000 N 
ATOM     22  C   UNL     1       7.541  12.939  22.673  0.00  0.00    +0.000 C 
ATOM     23  O   UNL     1       7.037  14.054  22.605  0.00  0.00    +0.000 OA
ATOM     24  N   UNL     1       5.604  13.240  24.826  0.00  0.00    +0.000 NA
ATOM     25  O   UNL     1       4.844  13.015  25.949  0.00  0.00    +0.000 OA
ATOM     26  H   UNL     1       7.811  11.117  23.644  0.00  0.00    +0.000 HD
ENDBRANCH   1  22
TORSDOF 1
ENDMDL
MODEL 8
REMARK VINA RESULT:      -7.3      2.686      9.259
REMARK  Name = 
REMARK  3 active torsions:
REMARK  status: ('A' for Active; 'I' for Inactive)
REMARK    1  A    between atoms: C_1  and  C_2
REMARK    2  A    between atoms: C_6  and  C_8
REMARK    3  A    between atoms: C_17  and  C_18
REMARK                            x       y       z     vdW  Elec       q    Type
REMARK                         _______ _______ _______ _____ _____    ______ ____
ROOT
ATOM      1  C   UNL     1       0.767   9.083  21.052  0.00  0.00    +0.000 A 
ATOM      2  C   UNL     1       0.188   8.830  22.300  0.00  0.00    +0.000 A 
ATOM      3  C   UNL     1      -0.494   9.846  22.986  0.00  0.00    +0.000 A 
ATOM      4  C   UNL     1      -0.555  11.143  22.436  0.00  0.00    +0.000 A 
ATOM      5  C   UNL     1      -1.089  12.378  22.891  0.00  0.00    +0.000 A 
ATOM      6  C   UNL     1      -0.747  13.358  21.978  0.00  0.00    +0.000 A 
ATOM      7  N   UNL     1      -0.104  12.730  20.934  0.00  0.00    +0.000 N 
ATOM      8  C   UNL     1       0.040  11.384  21.197  0.00  0.00    +0.000 A 
ATOM      9  C   UNL     1       0.678  10.363  20.477  0.00  0.00    +0.000 A 
ATOM     10  C   UNL     1       0.392  13.458  19.767  0.00  0.00    +0.000 C 
ATOM     11  C   UNL     1       1.919  13.545  19.740  0.00  0.00    +0.000 C 
ATOM     12  C   UNL     1      -0.240  14.864  19.703  0.00  0.00    +0.000 C 
ATOM     13  N   UNL     1      -0.428  15.491  20.997  0.00  0.00    +0.000 N 
ATOM     14  C   UNL     1      -0.944  14.783  22.057  0.00  0.00    +0.000 C 
ATOM     15  O   UNL     1      -1.495  15.365  22.985  0.00  0.00    +0.000 OA
ATOM     16  H   UNL     1      -0.641  16.480  21.047  0.00  0.00    +0.000 HD
ENDROOT
BRANCH   1  22
ATOM     17  C   UNL     1       3.724   2.384  19.829  0.00  0.00    +0.000 C 
ATOM     18  C   UNL     1       3.225   3.765  19.929  0.00  0.00    +0.000 A 
ATOM     19  C   UNL     1       2.417   4.451  20.802  0.00  0.00    +0.000 A 
ATOM     20  C   UNL     1       2.357   5.768  20.280  0.00  0.00    +0.000 A 
ATOM     21  N   UNL     1       1.638   6.804  20.853  0.00  0.00    +0.000 N 
ATOM     22  C   UNL     1       1.578   8.069  20.305  0.00  0.00    +0.000 C 
ATOM     23  O   UNL     1       2.110   8.440  19.265  0.00  0.00    +0.000 OA
ATOM     24  N   UNL     1       3.096   5.858  19.172  0.00  0.00    +0.000 NA
ATOM     25  O   UNL     1       3.633   4.612  18.949  0.00  0.00    +0.000 OA
ATOM     26  H   UNL     1       1.095   6.576  21.673  0.00  0.00    +0.000 HD
ENDBRANCH   1  22
TORSDOF 1
ENDMDL
MODEL 9
REMARK VINA RESULT:      -7.3      2.602      8.911
REMARK  Name = 
REMARK  3 active torsions:
REMARK  status: ('A' for Active; 'I' for Inactive)
REMARK    1  A    between atoms: C_1  and  C_2
REMARK    2  A    between atoms: C_6  and  C_8
REMARK    3  A    between atoms: C_17  and  C_18
REMARK                            x       y       z     vdW  Elec       q    Type
REMARK                         _______ _______ _______ _____ _____    ______ ____
ROOT
ATOM      1  C   UNL     1       0.889   8.688  21.074  0.00  0.00    +0.000 A 
ATOM      2  C   UNL     1       1.062   8.809  22.457  0.00  0.00    +0.000 A 
ATOM      3  C   UNL     1       0.325   9.755  23.186  0.00  0.00    +0.000 A 
ATOM      4  C   UNL     1      -0.560  10.622  22.513  0.00  0.00    +0.000 A 
ATOM      5  C   UNL     1      -1.379  11.706  22.929  0.00  0.00    +0.000 A 
ATOM      6  C   UNL     1      -1.946  12.274  21.804  0.00  0.00    +0.000 A 
ATOM      7  N   UNL     1      -1.569  11.501  20.728  0.00  0.00    +0.000 N 
ATOM      8  C   UNL     1      -0.712  10.500  21.131  0.00  0.00    +0.000 A 
ATOM      9  C   UNL     1      -0.021   9.522  20.400  0.00  0.00    +0.000 A 
ATOM     10  C   UNL     1      -2.000  11.797  19.362  0.00  0.00    +0.000 C 
ATOM     11  C   UNL     1      -0.858  12.328  18.493  0.00  0.00    +0.000 C 
ATOM     12  C   UNL     1      -3.186  12.782  19.374  0.00  0.00    +0.000 C 
ATOM     13  N   UNL     1      -3.106  13.797  20.407  0.00  0.00    +0.000 N 
ATOM     14  C   UNL     1      -2.744  13.469  21.693  0.00  0.00    +0.000 C 
ATOM     15  O   UNL     1      -3.075  14.183  22.634  0.00  0.00    +0.000 OA
ATOM     16  H   UNL     1      -3.721  14.600  20.368  0.00  0.00    +0.000 HD
ENDROOT
BRANCH   1  22
ATOM     17  C   UNL     1       4.063   2.218  19.293  0.00  0.00    +0.000 C 
ATOM     18  C   UNL     1       3.511   3.566  19.503  0.00  0.00    +0.000 A 
ATOM     19  C   UNL     1       2.724   4.161  20.458  0.00  0.00    +0.000 A 
ATOM     20  C   UNL     1       2.576   5.503  20.020  0.00  0.00    +0.000 A 
ATOM     21  N   UNL     1       1.846   6.469  20.692  0.00  0.00    +0.000 N 
ATOM     22  C   UNL     1       1.701   7.758  20.225  0.00  0.00    +0.000 C 
ATOM     23  O   UNL     1       2.157   8.214  19.183  0.00  0.00    +0.000 OA
ATOM     24  N   UNL     1       3.249   5.691  18.881  0.00  0.00    +0.000 NA
ATOM     25  O   UNL     1       3.826   4.487  18.556  0.00  0.00    +0.000 OA
ATOM     26  H   UNL     1       1.360   6.168  21.525  0.00  0.00    +0.000 HD
ENDBRANCH   1  22
TORSDOF 1
ENDMDL
