MODEL 1
REMARK VINA RESULT:      -8.8      0.000      0.000
REMARK  Name = 
REMARK  6 active torsions:
REMARK  status: ('A' for Active; 'I' for Inactive)
REMARK    1  A    between atoms: C_1  and  C_2
REMARK    2  A    between atoms: C_4  and  C_5
REMARK    3  A    between atoms: C_8  and  N_9
REMARK    4  A    between atoms: C_11  and  N_12
REMARK    5  A    between atoms: C_16  and  C_17
REMARK    6  A    between atoms: C_26  and  O_27
REMARK                            x       y       z     vdW  Elec       q    Type
REMARK                         _______ _______ _______ _____ _____    ______ ____
ROOT
ATOM      1  N   UNL     1       3.422   6.273  18.585  0.00  0.00    +0.000 N 
ATOM      2  C   UNL     1       3.200   4.979  18.978  0.00  0.00    +0.000 A 
ATOM      3  C   UNL     1       4.288   4.242  18.594  0.00  0.00    +0.000 A 
ATOM      4  C   UNL     1       5.168   5.187  17.998  0.00  0.00    +0.000 A 
ATOM      5  N   UNL     1       4.604   6.412  17.931  0.00  0.00    +0.000 NA
ENDROOT
BRANCH   1   9
ATOM      6  C   UNL     1       0.894   9.635  19.264  0.00  0.00    +0.000 A 
ATOM      7  C   UNL     1       1.447   9.372  17.996  0.00  0.00    +0.000 A 
ATOM      8  C   UNL     1       2.291   8.279  17.770  0.00  0.00    +0.000 A 
ATOM      9  C   UNL     1       2.561   7.378  18.804  0.00  0.00    +0.000 A 
ATOM     10  C   UNL     1       1.986   7.578  20.058  0.00  0.00    +0.000 A 
ATOM     11  C   UNL     1       1.191   8.706  20.281  0.00  0.00    +0.000 A 
ATOM     12  F   UNL     1       0.738   8.891  21.530  0.00  0.00    +0.000 F 
BRANCH   6  16
ATOM     13  C   UNL     1      -3.575  11.961  18.966  0.00  0.00    +0.000 C 
ATOM     14  C   UNL     1      -2.123  11.991  19.345  0.00  0.00    +0.000 A 
ATOM     15  C   UNL     1      -1.309  10.864  19.138  0.00  0.00    +0.000 A 
ATOM     16  C   UNL     1       0.056  10.842  19.494  0.00  0.00    +0.000 A 
ATOM     17  C   UNL     1       0.579  12.012  20.071  0.00  0.00    +0.000 A 
ATOM     18  C   UNL     1      -0.208  13.154  20.260  0.00  0.00    +0.000 A 
ATOM     19  C   UNL     1      -1.549  13.135  19.898  0.00  0.00    +0.000 A 
BRANCH  19  20
ATOM     20  O   UNL     1      -2.330  14.241  20.075  0.00  0.00    +0.000 OA
ATOM     21  H   UNL     1      -2.567  14.305  21.014  0.00  0.00    +0.000 HD
ENDBRANCH  19  20
ENDBRANCH   6  16
ENDBRANCH   1   9
BRANCH   3  22
ATOM     22  N   UNL     1       4.483   2.879  18.744  0.00  0.00    +0.000 N 
ATOM     23  C   UNL     1       3.659   1.907  18.239  0.00  0.00    +0.000 C 
ATOM     24  N   UNL     1       4.139   0.650  18.442  0.00  0.00    +0.000 N 
ATOM     25  O   UNL     1       2.606   2.060  17.631  0.00  0.00    +0.000 OA
ATOM     26  H   UNL     1       5.338   2.596  19.207  0.00  0.00    +0.000 HD
ATOM     27  H   UNL     1       4.711   0.455  19.248  0.00  0.00    +0.000 HD
ATOM     28  H   UNL     1       3.496  -0.081  18.164  0.00  0.00    +0.000 HD
ENDBRANCH   3  22
BRANCH   4  29
ATOM     29  C   UNL     1       6.524   4.924  17.499  0.00  0.00    +0.000 C 
ATOM     30  N   UNL     1       6.783   5.422  16.252  0.00  0.00    +0.000 N 
ATOM     31  O   UNL     1       7.378   4.330  18.151  0.00  0.00    +0.000 OA
ATOM     32  H   UNL     1       6.057   5.933  15.764  0.00  0.00    +0.000 HD
ATOM     33  H   UNL     1       7.705   5.326  15.854  0.00  0.00    +0.000 HD
ENDBRANCH   4  29
TORSDOF 5
ENDMDL
MODEL 2
REMARK VINA RESULT:      -8.7      1.121      1.692
REMARK  Name = 
REMARK  6 active torsions:
REMARK  status: ('A' for Active; 'I' for Inactive)
REMARK    1  A    between atoms: C_1  and  C_2
REMARK    2  A    between atoms: C_4  and  C_5
REMARK    3  A    between atoms: C_8  and  N_9
REMARK    4  A    between atoms: C_11  and  N_12
REMARK    5  A    between atoms: C_16  and  C_17
REMARK    6  A    between atoms: C_26  and  O_27
REMARK                            x       y       z     vdW  Elec       q    Type
REMARK                         _______ _______ _______ _____ _____    ______ ____
ROOT
ATOM      1  N   UNL     1       3.717   6.239  18.524  0.00  0.00    +0.000 N 
ATOM      2  C   UNL     1       3.908   5.218  19.419  0.00  0.00    +0.000 A 
ATOM      3  C   UNL     1       4.857   4.383  18.891  0.00  0.00    +0.000 A 
ATOM      4  C   UNL     1       5.231   4.998  17.665  0.00  0.00    +0.000 A 
ATOM      5  N   UNL     1       4.482   6.093  17.412  0.00  0.00    +0.000 NA
ENDROOT
BRANCH   1   9
ATOM      6  C   UNL     1       1.137   9.594  19.024  0.00  0.00    +0.000 A 
ATOM      7  C   UNL     1       1.823   9.364  17.815  0.00  0.00    +0.000 A 
ATOM      8  C   UNL     1       2.684   8.273  17.649  0.00  0.00    +0.000 A 
ATOM      9  C   UNL     1       2.840   7.341  18.681  0.00  0.00    +0.000 A 
ATOM     10  C   UNL     1       2.133   7.509  19.871  0.00  0.00    +0.000 A 
ATOM     11  C   UNL     1       1.322   8.634  20.039  0.00  0.00    +0.000 A 
ATOM     12  F   UNL     1       0.737   8.786  21.238  0.00  0.00    +0.000 F 
BRANCH   6  16
ATOM     13  C   UNL     1       0.705  14.598  19.506  0.00  0.00    +0.000 C 
ATOM     14  C   UNL     1       0.061  13.244  19.442  0.00  0.00    +0.000 A 
ATOM     15  C   UNL     1       0.846  12.089  19.279  0.00  0.00    +0.000 A 
ATOM     16  C   UNL     1       0.283  10.798  19.197  0.00  0.00    +0.000 A 
ATOM     17  C   UNL     1      -1.117  10.710  19.290  0.00  0.00    +0.000 A 
ATOM     18  C   UNL     1      -1.913  11.845  19.480  0.00  0.00    +0.000 A 
ATOM     19  C   UNL     1      -1.321  13.100  19.554  0.00  0.00    +0.000 A 
BRANCH  19  20
ATOM     20  O   UNL     1      -2.085  14.216  19.741  0.00  0.00    +0.000 OA
ATOM     21  H   UNL     1      -2.269  14.310  20.690  0.00  0.00    +0.000 HD
ENDBRANCH  19  20
ENDBRANCH   6  16
ENDBRANCH   1   9
BRANCH   3  22
ATOM     22  N   UNL     1       5.334   3.199  19.428  0.00  0.00    +0.000 N 
ATOM     23  C   UNL     1       4.558   2.230  20.008  0.00  0.00    +0.000 C 
ATOM     24  N   UNL     1       5.269   1.123  20.357  0.00  0.00    +0.000 N 
ATOM     25  O   UNL     1       3.349   2.256  20.203  0.00  0.00    +0.000 OA
ATOM     26  H   UNL     1       6.325   3.023  19.314  0.00  0.00    +0.000 HD
ATOM     27  H   UNL     1       6.241   1.210  20.612  0.00  0.00    +0.000 HD
ATOM     28  H   UNL     1       4.731   0.440  20.876  0.00  0.00    +0.000 HD
ENDBRANCH   3  22
BRANCH   4  29
ATOM     29  C   UNL     1       6.287   4.547  16.749  0.00  0.00    +0.000 C 
ATOM     30  N   UNL     1       5.940   3.499  15.943  0.00  0.00    +0.000 N 
ATOM     31  O   UNL     1       7.392   5.079  16.681  0.00  0.00    +0.000 OA
ATOM     32  H   UNL     1       5.006   3.112  16.013  0.00  0.00    +0.000 HD
ATOM     33  H   UNL     1       6.591   3.158  15.253  0.00  0.00    +0.000 HD
ENDBRANCH   4  29
TORSDOF 5
ENDMDL
MODEL 3
REMARK VINA RESULT:      -8.7      1.087      1.424
REMARK  Name = 
REMARK  6 active torsions:
REMARK  status: ('A' for Active; 'I' for Inactive)
REMARK    1  A    between atoms: C_1  and  C_2
REMARK    2  A    between atoms: C_4  and  C_5
REMARK    3  A    between atoms: C_8  and  N_9
REMARK    4  A    between atoms: C_11  and  N_12
REMARK    5  A    between atoms: C_16  and  C_17
REMARK    6  A    between atoms: C_26  and  O_27
REMARK                            x       y       z     vdW  Elec       q    Type
REMARK                         _______ _______ _______ _____ _____    ______ ____
ROOT
ATOM      1  N   UNL     1       3.671   5.976  18.944  0.00  0.00    +0.000 N 
ATOM      2  C   UNL     1       3.463   4.703  19.407  0.00  0.00    +0.000 A 
ATOM      3  C   UNL     1       4.551   3.953  19.047  0.00  0.00    +0.000 A 
ATOM      4  C   UNL     1       5.415   4.870  18.388  0.00  0.00    +0.000 A 
ATOM      5  N   UNL     1       4.842   6.088  18.265  0.00  0.00    +0.000 NA
ENDROOT
BRANCH   1   9
ATOM      6  C   UNL     1       1.015   9.272  19.434  0.00  0.00    +0.000 A 
ATOM      7  C   UNL     1       1.205   8.320  20.454  0.00  0.00    +0.000 A 
ATOM      8  C   UNL     1       2.064   7.227  20.294  0.00  0.00    +0.000 A 
ATOM      9  C   UNL     1       2.806   7.086  19.117  0.00  0.00    +0.000 A 
ATOM     10  C   UNL     1       2.683   8.040  18.108  0.00  0.00    +0.000 A 
ATOM     11  C   UNL     1       1.779   9.095  18.263  0.00  0.00    +0.000 A 
ATOM     12  F   UNL     1       1.640   9.932  17.223  0.00  0.00    +0.000 F 
BRANCH   6  16
ATOM     13  C   UNL     1      -3.336  11.493  18.166  0.00  0.00    +0.000 C 
ATOM     14  C   UNL     1      -2.077  11.485  18.984  0.00  0.00    +0.000 A 
ATOM     15  C   UNL     1      -1.143  10.443  18.843  0.00  0.00    +0.000 A 
ATOM     16  C   UNL     1       0.045  10.386  19.603  0.00  0.00    +0.000 A 
ATOM     17  C   UNL     1       0.262  11.430  20.518  0.00  0.00    +0.000 A 
ATOM     18  C   UNL     1      -0.642  12.490  20.653  0.00  0.00    +0.000 A 
ATOM     19  C   UNL     1      -1.802  12.509  19.888  0.00  0.00    +0.000 A 
BRANCH  19  20
ATOM     20  O   UNL     1      -2.693  13.537  20.008  0.00  0.00    +0.000 OA
ATOM     21  H   UNL     1      -2.980  13.802  19.119  0.00  0.00    +0.000 HD
ENDBRANCH  19  20
ENDBRANCH   6  16
ENDBRANCH   1   9
BRANCH   3  22
ATOM     22  N   UNL     1       4.757   2.601  19.266  0.00  0.00    +0.000 N 
ATOM     23  C   UNL     1       4.055   1.592  18.660  0.00  0.00    +0.000 C 
ATOM     24  N   UNL     1       4.531   0.356  18.975  0.00  0.00    +0.000 N 
ATOM     25  O   UNL     1       3.113   1.695  17.884  0.00  0.00    +0.000 OA
ATOM     26  H   UNL     1       5.531   2.358  19.871  0.00  0.00    +0.000 HD
ATOM     27  H   UNL     1       4.968   0.199  19.870  0.00  0.00    +0.000 HD
ATOM     28  H   UNL     1       3.963  -0.402  18.616  0.00  0.00    +0.000 HD
ENDBRANCH   3  22
BRANCH   4  29
ATOM     29  C   UNL     1       6.765   4.590  17.883  0.00  0.00    +0.000 C 
ATOM     30  N   UNL     1       6.821   4.216  16.569  0.00  0.00    +0.000 N 
ATOM     31  O   UNL     1       7.778   4.706  18.568  0.00  0.00    +0.000 OA
ATOM     32  H   UNL     1       5.962   4.164  16.035  0.00  0.00    +0.000 HD
ATOM     33  H   UNL     1       7.714   4.049  16.132  0.00  0.00    +0.000 HD
ENDBRANCH   4  29
TORSDOF 5
ENDMDL
MODEL 4
REMARK VINA RESULT:      -8.7      0.358      1.342
REMARK  Name = 
REMARK  6 active torsions:
REMARK  status: ('A' for Active; 'I' for Inactive)
REMARK    1  A    between atoms: C_1  and  C_2
REMARK    2  A    between atoms: C_4  and  C_5
REMARK    3  A    between atoms: C_8  and  N_9
REMARK    4  A    between atoms: C_11  and  N_12
REMARK    5  A    between atoms: C_16  and  C_17
REMARK    6  A    between atoms: C_26  and  O_27
REMARK                            x       y       z     vdW  Elec       q    Type
REMARK                         _______ _______ _______ _____ _____    ______ ____
ROOT
ATOM      1  N   UNL     1       3.458   6.255  18.557  0.00  0.00    +0.000 N 
ATOM      2  C   UNL     1       3.228   4.964  18.955  0.00  0.00    +0.000 A 
ATOM      3  C   UNL     1       4.313   4.219  18.576  0.00  0.00    +0.000 A 
ATOM      4  C   UNL     1       5.198   5.156  17.976  0.00  0.00    +0.000 A 
ATOM      5  N   UNL     1       4.642   6.385  17.904  0.00  0.00    +0.000 NA
ENDROOT
BRANCH   1   9
ATOM      6  C   UNL     1       0.948   9.634  19.222  0.00  0.00    +0.000 A 
ATOM      7  C   UNL     1       1.544   9.392  17.969  0.00  0.00    +0.000 A 
ATOM      8  C   UNL     1       2.382   8.294  17.748  0.00  0.00    +0.000 A 
ATOM      9  C   UNL     1       2.604   7.366  18.771  0.00  0.00    +0.000 A 
ATOM     10  C   UNL     1       1.986   7.545  20.007  0.00  0.00    +0.000 A 
ATOM     11  C   UNL     1       1.198   8.678  20.227  0.00  0.00    +0.000 A 
ATOM     12  F   UNL     1       0.702   8.841  21.464  0.00  0.00    +0.000 F 
BRANCH   6  16
ATOM     13  C   UNL     1       0.278  14.096  21.483  0.00  0.00    +0.000 C 
ATOM     14  C   UNL     1      -0.223  13.025  20.557  0.00  0.00    +0.000 A 
ATOM     15  C   UNL     1       0.542  11.870  20.324  0.00  0.00    +0.000 A 
ATOM     16  C   UNL     1       0.118  10.846  19.450  0.00  0.00    +0.000 A 
ATOM     17  C   UNL     1      -1.121  11.031  18.813  0.00  0.00    +0.000 A 
ATOM     18  C   UNL     1      -1.909  12.162  19.053  0.00  0.00    +0.000 A 
ATOM     19  C   UNL     1      -1.456  13.148  19.920  0.00  0.00    +0.000 A 
BRANCH  19  20
ATOM     20  O   UNL     1      -2.215  14.257  20.164  0.00  0.00    +0.000 OA
ATOM     21  H   UNL     1      -1.859  14.708  20.946  0.00  0.00    +0.000 HD
ENDBRANCH  19  20
ENDBRANCH   6  16
ENDBRANCH   1   9
BRANCH   3  22
ATOM     22  N   UNL     1       4.499   2.855  18.731  0.00  0.00    +0.000 N 
ATOM     23  C   UNL     1       3.664   1.887  18.238  0.00  0.00    +0.000 C 
ATOM     24  N   UNL     1       4.137   0.628  18.443  0.00  0.00    +0.000 N 
ATOM     25  O   UNL     1       2.608   2.044  17.638  0.00  0.00    +0.000 OA
ATOM     26  H   UNL     1       5.356   2.570  19.189  0.00  0.00    +0.000 HD
ATOM     27  H   UNL     1       4.715   0.433  19.247  0.00  0.00    +0.000 HD
ATOM     28  H   UNL     1       3.487  -0.101  18.174  0.00  0.00    +0.000 HD
ENDBRANCH   3  22
BRANCH   4  29
ATOM     29  C   UNL     1       6.553   4.884  17.480  0.00  0.00    +0.000 C 
ATOM     30  N   UNL     1       6.793   5.307  16.203  0.00  0.00    +0.000 N 
ATOM     31  O   UNL     1       7.423   4.344  18.159  0.00  0.00    +0.000 OA
ATOM     32  H   UNL     1       6.054   5.776  15.691  0.00  0.00    +0.000 HD
ATOM     33  H   UNL     1       7.712   5.200  15.802  0.00  0.00    +0.000 HD
ENDBRANCH   4  29
TORSDOF 5
ENDMDL
MODEL 5
REMARK VINA RESULT:      -8.6      1.588      2.904
REMARK  Name = 
REMARK  6 active torsions:
REMARK  status: ('A' for Active; 'I' for Inactive)
REMARK    1  A    between atoms: C_1  and  C_2
REMARK    2  A    between atoms: C_4  and  C_5
REMARK    3  A    between atoms: C_8  and  N_9
REMARK    4  A    between atoms: C_11  and  N_12
REMARK    5  A    between atoms: C_16  and  C_17
REMARK    6  A    between atoms: C_26  and  O_27
REMARK                            x       y       z     vdW  Elec       q    Type
REMARK                         _______ _______ _______ _____ _____    ______ ____
ROOT
ATOM      1  N   UNL     1       3.337   5.990  19.454  0.00  0.00    +0.000 N 
ATOM      2  C   UNL     1       4.621   5.974  18.975  0.00  0.00    +0.000 A 
ATOM      3  C   UNL     1       5.068   4.681  19.046  0.00  0.00    +0.000 A 
ATOM      4  C   UNL     1       3.960   3.947  19.551  0.00  0.00    +0.000 A 
ATOM      5  N   UNL     1       2.929   4.762  19.865  0.00  0.00    +0.000 NA
ENDROOT
BRANCH   1   9
ATOM      6  C   UNL     1       0.720   9.346  19.676  0.00  0.00    +0.000 A 
ATOM      7  C   UNL     1       0.883   8.464  20.762  0.00  0.00    +0.000 A 
ATOM      8  C   UNL     1       1.728   7.352  20.691  0.00  0.00    +0.000 A 
ATOM      9  C   UNL     1       2.485   7.120  19.537  0.00  0.00    +0.000 A 
ATOM     10  C   UNL     1       2.389   8.004  18.463  0.00  0.00    +0.000 A 
ATOM     11  C   UNL     1       1.497   9.078  18.532  0.00  0.00    +0.000 A 
ATOM     12  F   UNL     1       1.384   9.843  17.434  0.00  0.00    +0.000 F 
BRANCH   6  16
ATOM     13  C   UNL     1      -3.527  11.581  18.115  0.00  0.00    +0.000 C 
ATOM     14  C   UNL     1      -2.308  11.587  18.991  0.00  0.00    +0.000 A 
ATOM     15  C   UNL     1      -1.387  10.526  18.937  0.00  0.00    +0.000 A 
ATOM     16  C   UNL     1      -0.237  10.481  19.754  0.00  0.00    +0.000 A 
ATOM     17  C   UNL     1      -0.044  11.559  20.635  0.00  0.00    +0.000 A 
ATOM     18  C   UNL     1      -0.934  12.637  20.683  0.00  0.00    +0.000 A 
ATOM     19  C   UNL     1      -2.057  12.643  19.864  0.00  0.00    +0.000 A 
BRANCH  19  20
ATOM     20  O   UNL     1      -2.934  13.689  19.900  0.00  0.00    +0.000 OA
ATOM     21  H   UNL     1      -3.835  13.334  19.967  0.00  0.00    +0.000 HD
ENDBRANCH  19  20
ENDBRANCH   6  16
ENDBRANCH   1   9
BRANCH   3  22
ATOM     22  N   UNL     1       6.322   4.200  18.710  0.00  0.00    +0.000 N 
ATOM     23  C   UNL     1       7.122   4.713  17.723  0.00  0.00    +0.000 C 
ATOM     24  N   UNL     1       8.346   4.120  17.675  0.00  0.00    +0.000 N 
ATOM     25  O   UNL     1       6.862   5.623  16.945  0.00  0.00    +0.000 OA
ATOM     26  H   UNL     1       6.687   3.456  19.292  0.00  0.00    +0.000 HD
ATOM     27  H   UNL     1       8.450   3.158  17.957  0.00  0.00    +0.000 HD
ATOM     28  H   UNL     1       8.912   4.417  16.889  0.00  0.00    +0.000 HD
ENDBRANCH   3  22
BRANCH   4  29
ATOM     29  C   UNL     1       3.886   2.492  19.732  0.00  0.00    +0.000 C 
ATOM     30  N   UNL     1       2.745   1.911  19.252  0.00  0.00    +0.000 N 
ATOM     31  O   UNL     1       4.783   1.830  20.247  0.00  0.00    +0.000 OA
ATOM     32  H   UNL     1       2.045   2.493  18.806  0.00  0.00    +0.000 HD
ATOM     33  H   UNL     1       2.634   0.909  19.294  0.00  0.00    +0.000 HD
ENDBRANCH   4  29
TORSDOF 5
ENDMDL
MODEL 6
REMARK VINA RESULT:      -8.6      1.234      2.616
REMARK  Name = 
REMARK  6 active torsions:
REMARK  status: ('A' for Active; 'I' for Inactive)
REMARK    1  A    between atoms: C_1  and  C_2
REMARK    2  A    between atoms: C_4  and  C_5
REMARK    3  A    between atoms: C_8  and  N_9
REMARK    4  A    between atoms: C_11  and  N_12
REMARK    5  A    between atoms: C_16  and  C_17
REMARK    6  A    between atoms: C_26  and  O_27
REMARK                            x       y       z     vdW  Elec       q    Type
REMARK                         _______ _______ _______ _____ _____    ______ ____
ROOT
ATOM      1  N   UNL     1       3.249   6.186  19.143  0.00  0.00    +0.000 N 
ATOM      2  C   UNL     1       4.405   6.115  18.410  0.00  0.00    +0.000 A 
ATOM      3  C   UNL     1       4.891   4.841  18.534  0.00  0.00    +0.000 A 
ATOM      4  C   UNL     1       3.933   4.170  19.344  0.00  0.00    +0.000 A 
ATOM      5  N   UNL     1       2.970   5.015  19.771  0.00  0.00    +0.000 NA
ENDROOT
BRANCH   1   9
ATOM      6  C   UNL     1       0.765   9.624  19.554  0.00  0.00    +0.000 A 
ATOM      7  C   UNL     1       1.384   9.303  18.330  0.00  0.00    +0.000 A 
ATOM      8  C   UNL     1       2.213   8.184  18.192  0.00  0.00    +0.000 A 
ATOM      9  C   UNL     1       2.403   7.316  19.273  0.00  0.00    +0.000 A 
ATOM     10  C   UNL     1       1.762   7.574  20.483  0.00  0.00    +0.000 A 
ATOM     11  C   UNL     1       0.982   8.727  20.619  0.00  0.00    +0.000 A 
ATOM     12  F   UNL     1       0.463   8.967  21.833  0.00  0.00    +0.000 F 
BRANCH   6  16
ATOM     13  C   UNL     1      -3.634  12.022  18.947  0.00  0.00    +0.000 C 
ATOM     14  C   UNL     1      -2.200  12.040  19.392  0.00  0.00    +0.000 A 
ATOM     15  C   UNL     1      -1.402  10.889  19.272  0.00  0.00    +0.000 A 
ATOM     16  C   UNL     1      -0.055  10.856  19.692  0.00  0.00    +0.000 A 
ATOM     17  C   UNL     1       0.466  12.040  20.242  0.00  0.00    +0.000 A 
ATOM     18  C   UNL     1      -0.305  13.204  20.344  0.00  0.00    +0.000 A 
ATOM     19  C   UNL     1      -1.628  13.196  19.920  0.00  0.00    +0.000 A 
BRANCH  19  20
ATOM     20  O   UNL     1      -2.391  14.324  20.013  0.00  0.00    +0.000 OA
ATOM     21  H   UNL     1      -1.833  15.093  19.812  0.00  0.00    +0.000 HD
ENDBRANCH  19  20
ENDBRANCH   6  16
ENDBRANCH   1   9
BRANCH   3  22
ATOM     22  N   UNL     1       6.061   4.326  18.001  0.00  0.00    +0.000 N 
ATOM     23  C   UNL     1       7.304   4.881  18.152  0.00  0.00    +0.000 C 
ATOM     24  N   UNL     1       8.293   4.115  17.615  0.00  0.00    +0.000 N 
ATOM     25  O   UNL     1       7.594   5.927  18.720  0.00  0.00    +0.000 OA
ATOM     26  H   UNL     1       5.981   3.437  17.522  0.00  0.00    +0.000 HD
ATOM     27  H   UNL     1       8.097   3.528  16.818  0.00  0.00    +0.000 HD
ATOM     28  H   UNL     1       9.204   4.557  17.630  0.00  0.00    +0.000 HD
ENDBRANCH   3  22
BRANCH   4  29
ATOM     29  C   UNL     1       3.938   2.747  19.704  0.00  0.00    +0.000 C 
ATOM     30  N   UNL     1       2.757   2.094  19.482  0.00  0.00    +0.000 N 
ATOM     31  O   UNL     1       4.927   2.166  20.144  0.00  0.00    +0.000 OA
ATOM     32  H   UNL     1       1.977   2.608  19.088  0.00  0.00    +0.000 HD
ATOM     33  H   UNL     1       2.688   1.104  19.659  0.00  0.00    +0.000 HD
ENDBRANCH   4  29
TORSDOF 5
ENDMDL
MODEL 7
REMARK VINA RESULT:      -8.5      1.650      3.101
REMARK  Name = 
REMARK  6 active torsions:
REMARK  status: ('A' for Active; 'I' for Inactive)
REMARK    1  A    between atoms: C_1  and  C_2
REMARK    2  A    between atoms: C_4  and  C_5
REMARK    3  A    between atoms: C_8  and  N_9
REMARK    4  A    between atoms: C_11  and  N_12
REMARK    5  A    between atoms: C_16  and  C_17
REMARK    6  A    between atoms: C_26  and  O_27
REMARK                            x       y       z     vdW  Elec       q    Type
REMARK                         _______ _______ _______ _____ _____    ______ ____
ROOT
ATOM      1  N   UNL     1       3.292   6.038  19.494  0.00  0.00    +0.000 N 
ATOM      2  C   UNL     1       4.592   6.051  19.059  0.00  0.00    +0.000 A 
ATOM      3  C   UNL     1       5.051   4.761  19.103  0.00  0.00    +0.000 A 
ATOM      4  C   UNL     1       3.935   3.999  19.546  0.00  0.00    +0.000 A 
ATOM      5  N   UNL     1       2.885   4.792  19.851  0.00  0.00    +0.000 NA
ENDROOT
BRANCH   1   9
ATOM      6  C   UNL     1       0.630   9.356  19.740  0.00  0.00    +0.000 A 
ATOM      7  C   UNL     1       0.812   8.475  20.823  0.00  0.00    +0.000 A 
ATOM      8  C   UNL     1       1.673   7.374  20.744  0.00  0.00    +0.000 A 
ATOM      9  C   UNL     1       2.425   7.155  19.585  0.00  0.00    +0.000 A 
ATOM     10  C   UNL     1       2.310   8.040  18.514  0.00  0.00    +0.000 A 
ATOM     11  C   UNL     1       1.403   9.101  18.589  0.00  0.00    +0.000 A 
ATOM     12  F   UNL     1       1.272   9.865  17.494  0.00  0.00    +0.000 F 
BRANCH   6  16
ATOM     13  C   UNL     1      -1.115  13.437  22.141  0.00  0.00    +0.000 C 
ATOM     14  C   UNL     1      -1.209  12.469  20.997  0.00  0.00    +0.000 A 
ATOM     15  C   UNL     1      -0.302  11.401  20.892  0.00  0.00    +0.000 A 
ATOM     16  C   UNL     1      -0.343  10.477  19.825  0.00  0.00    +0.000 A 
ATOM     17  C   UNL     1      -1.344  10.671  18.858  0.00  0.00    +0.000 A 
ATOM     18  C   UNL     1      -2.272  11.712  18.960  0.00  0.00    +0.000 A 
ATOM     19  C   UNL     1      -2.199  12.602  20.024  0.00  0.00    +0.000 A 
BRANCH  19  20
ATOM     20  O   UNL     1      -3.098  13.623  20.137  0.00  0.00    +0.000 OA
ATOM     21  H   UNL     1      -3.957  13.316  19.803  0.00  0.00    +0.000 HD
ENDBRANCH  19  20
ENDBRANCH   6  16
ENDBRANCH   1   9
BRANCH   3  22
ATOM     22  N   UNL     1       6.322   4.305  18.796  0.00  0.00    +0.000 N 
ATOM     23  C   UNL     1       7.013   4.614  17.653  0.00  0.00    +0.000 C 
ATOM     24  N   UNL     1       8.280   4.118  17.653  0.00  0.00    +0.000 N 
ATOM     25  O   UNL     1       6.627   5.281  16.702  0.00  0.00    +0.000 OA
ATOM     26  H   UNL     1       6.786   3.757  19.510  0.00  0.00    +0.000 HD
ATOM     27  H   UNL     1       8.487   3.265  18.151  0.00  0.00    +0.000 HD
ATOM     28  H   UNL     1       8.770   4.251  16.776  0.00  0.00    +0.000 HD
ENDBRANCH   3  22
BRANCH   4  29
ATOM     29  C   UNL     1       3.872   2.538  19.677  0.00  0.00    +0.000 C 
ATOM     30  N   UNL     1       2.737   1.965  19.173  0.00  0.00    +0.000 N 
ATOM     31  O   UNL     1       4.773   1.866  20.172  0.00  0.00    +0.000 OA
ATOM     32  H   UNL     1       2.034   2.557  18.746  0.00  0.00    +0.000 HD
ATOM     33  H   UNL     1       2.634   0.962  19.181  0.00  0.00    +0.000 HD
ENDBRANCH   4  29
TORSDOF 5
ENDMDL
MODEL 8
REMARK VINA RESULT:      -8.5      0.918      2.839
REMARK  Name = 
REMARK  6 active torsions:
REMARK  status: ('A' for Active; 'I' for Inactive)
REMARK    1  A    between atoms: C_1  and  C_2
REMARK    2  A    between atoms: C_4  and  C_5
REMARK    3  A    between atoms: C_8  and  N_9
REMARK    4  A    between atoms: C_11  and  N_12
REMARK    5  A    between atoms: C_16  and  C_17
REMARK    6  A    between atoms: C_26  and  O_27
REMARK                            x       y       z     vdW  Elec       q    Type
REMARK                         _______ _______ _______ _____ _____    ______ ____
ROOT
ATOM      1  N   UNL     1       3.157   6.487  18.663  0.00  0.00    +0.000 N 
ATOM      2  C   UNL     1       4.294   6.516  17.897  0.00  0.00    +0.000 A 
ATOM      3  C   UNL     1       4.817   5.251  17.892  0.00  0.00    +0.000 A 
ATOM      4  C   UNL     1       3.901   4.482  18.661  0.00  0.00    +0.000 A 
ATOM      5  N   UNL     1       2.927   5.256  19.188  0.00  0.00    +0.000 NA
ENDROOT
BRANCH   1   9
ATOM      6  C   UNL     1       0.597   9.803  19.441  0.00  0.00    +0.000 A 
ATOM      7  C   UNL     1       1.084   9.535  18.147  0.00  0.00    +0.000 A 
ATOM      8  C   UNL     1       1.938   8.457  17.887  0.00  0.00    +0.000 A 
ATOM      9  C   UNL     1       2.286   7.576  18.916  0.00  0.00    +0.000 A 
ATOM     10  C   UNL     1       1.777   7.780  20.198  0.00  0.00    +0.000 A 
ATOM     11  C   UNL     1       0.971   8.894  20.451  0.00  0.00    +0.000 A 
ATOM     12  F   UNL     1       0.585   9.087  21.722  0.00  0.00    +0.000 F 
BRANCH   6  16
ATOM     13  C   UNL     1      -0.069  14.271  21.690  0.00  0.00    +0.000 C 
ATOM     14  C   UNL     1      -0.592  13.177  20.805  0.00  0.00    +0.000 A 
ATOM     15  C   UNL     1       0.191  12.040  20.542  0.00  0.00    +0.000 A 
ATOM     16  C   UNL     1      -0.253  10.995  19.703  0.00  0.00    +0.000 A 
ATOM     17  C   UNL     1      -1.531  11.137  19.136  0.00  0.00    +0.000 A 
ATOM     18  C   UNL     1      -2.336  12.249  19.408  0.00  0.00    +0.000 A 
ATOM     19  C   UNL     1      -1.862  13.258  20.238  0.00  0.00    +0.000 A 
BRANCH  19  20
ATOM     20  O   UNL     1      -2.637  14.348  20.514  0.00  0.00    +0.000 OA
ATOM     21  H   UNL     1      -3.376  14.067  21.078  0.00  0.00    +0.000 HD
ENDBRANCH  19  20
ENDBRANCH   6  16
ENDBRANCH   1   9
BRANCH   3  22
ATOM     22  N   UNL     1       5.984   4.820  17.284  0.00  0.00    +0.000 N 
ATOM     23  C   UNL     1       7.208   4.747  17.896  0.00  0.00    +0.000 C 
ATOM     24  N   UNL     1       8.163   4.191  17.101  0.00  0.00    +0.000 N 
ATOM     25  O   UNL     1       7.497   5.089  19.035  0.00  0.00    +0.000 OA
ATOM     26  H   UNL     1       5.894   4.475  16.336  0.00  0.00    +0.000 HD
ATOM     27  H   UNL     1       8.106   4.294  16.100  0.00  0.00    +0.000 HD
ATOM     28  H   UNL     1       9.093   4.220  17.500  0.00  0.00    +0.000 HD
ENDBRANCH   3  22
BRANCH   4  29
ATOM     29  C   UNL     1       3.953   3.032  18.890  0.00  0.00    +0.000 C 
ATOM     30  N   UNL     1       4.921   2.624  19.765  0.00  0.00    +0.000 N 
ATOM     31  O   UNL     1       3.177   2.239  18.365  0.00  0.00    +0.000 OA
ATOM     32  H   UNL     1       5.519   3.318  20.199  0.00  0.00    +0.000 HD
ATOM     33  H   UNL     1       4.995   1.649  20.013  0.00  0.00    +0.000 HD
ENDBRANCH   4  29
TORSDOF 5
ENDMDL
MODEL 9
REMARK VINA RESULT:      -8.4      4.175      9.540
REMARK  Name = 
REMARK  6 active torsions:
REMARK  status: ('A' for Active; 'I' for Inactive)
REMARK    1  A    between atoms: C_1  and  C_2
REMARK    2  A    between atoms: C_4  and  C_5
REMARK    3  A    between atoms: C_8  and  N_9
REMARK    4  A    between atoms: C_11  and  N_12
REMARK    5  A    between atoms: C_16  and  C_17
REMARK    6  A    between atoms: C_26  and  O_27
REMARK                            x       y       z     vdW  Elec       q    Type
REMARK                         _______ _______ _______ _____ _____    ______ ____
ROOT
ATOM      1  N   UNL     1      -0.232  10.677  20.206  0.00  0.00    +0.000 N 
ATOM      2  C   UNL     1      -1.011  11.545  19.486  0.00  0.00    +0.000 A 
ATOM      3  C   UNL     1      -1.659  12.353  20.383  0.00  0.00    +0.000 A 
ATOM      4  C   UNL     1      -1.181  11.932  21.654  0.00  0.00    +0.000 A 
ATOM      5  N   UNL     1      -0.364  10.862  21.545  0.00  0.00    +0.000 NA
ENDROOT
BRANCH   1   9
ATOM      6  C   UNL     1       2.293   7.646  18.596  0.00  0.00    +0.000 A 
ATOM      7  C   UNL     1       1.853   8.731  17.814  0.00  0.00    +0.000 A 
ATOM      8  C   UNL     1       1.010   9.722  18.332  0.00  0.00    +0.000 A 
ATOM      9  C   UNL     1       0.628   9.682  19.677  0.00  0.00    +0.000 A 
ATOM     10  C   UNL     1       1.090   8.651  20.493  0.00  0.00    +0.000 A 
ATOM     11  C   UNL     1       1.884   7.640  19.945  0.00  0.00    +0.000 A 
ATOM     12  F   UNL     1       2.225   6.629  20.759  0.00  0.00    +0.000 F 
BRANCH   6  16
ATOM     13  C   UNL     1       2.968   2.776  17.457  0.00  0.00    +0.000 C 
ATOM     14  C   UNL     1       3.474   4.189  17.449  0.00  0.00    +0.000 A 
ATOM     15  C   UNL     1       2.702   5.225  18.003  0.00  0.00    +0.000 A 
ATOM     16  C   UNL     1       3.130   6.570  18.003  0.00  0.00    +0.000 A 
ATOM     17  C   UNL     1       4.381   6.836  17.419  0.00  0.00    +0.000 A 
ATOM     18  C   UNL     1       5.176   5.815  16.887  0.00  0.00    +0.000 A 
ATOM     19  C   UNL     1       4.718   4.503  16.905  0.00  0.00    +0.000 A 
BRANCH  19  20
ATOM     20  O   UNL     1       5.483   3.496  16.390  0.00  0.00    +0.000 OA
ATOM     21  H   UNL     1       4.901   2.754  16.157  0.00  0.00    +0.000 HD
ENDBRANCH  19  20
ENDBRANCH   6  16
ENDBRANCH   1   9
BRANCH   3  22
ATOM     22  N   UNL     1      -2.583  13.349  20.110  0.00  0.00    +0.000 N 
ATOM     23  C   UNL     1      -3.908  13.307  20.455  0.00  0.00    +0.000 C 
ATOM     24  N   UNL     1      -4.567  14.461  20.162  0.00  0.00    +0.000 N 
ATOM     25  O   UNL     1      -4.512  12.390  20.999  0.00  0.00    +0.000 OA
ATOM     26  H   UNL     1      -2.219  14.192  19.683  0.00  0.00    +0.000 HD
ATOM     27  H   UNL     1      -4.267  15.026  19.382  0.00  0.00    +0.000 HD
ATOM     28  H   UNL     1      -5.566  14.411  20.318  0.00  0.00    +0.000 HD
ENDBRANCH   3  22
BRANCH   4  29
ATOM     29  C   UNL     1      -1.499  12.541  22.952  0.00  0.00    +0.000 C 
ATOM     30  N   UNL     1      -2.661  12.103  23.523  0.00  0.00    +0.000 N 
ATOM     31  O   UNL     1      -0.772  13.361  23.507  0.00  0.00    +0.000 OA
ATOM     32  H   UNL     1      -3.213  11.403  23.042  0.00  0.00    +0.000 HD
ATOM     33  H   UNL     1      -2.930  12.437  24.436  0.00  0.00    +0.000 HD
ENDBRANCH   4  29
TORSDOF 5
ENDMDL
