MODEL 1
REMARK VINA RESULT:      -6.3      0.000      0.000
REMARK  Name = 
REMARK  13 active torsions:
REMARK  status: ('A' for Active; 'I' for Inactive)
REMARK    1  A    between atoms: C_1  and  C_2
REMARK    2  A    between atoms: C_2  and  C_3
REMARK    3  A    between atoms: C_2  and  C_4
REMARK    4  A    between atoms: C_5  and  C_6
REMARK    5  A    between atoms: C_7  and  P_8
REMARK    6  A    between atoms: P_8  and  O_10
REMARK    7  A    between atoms: P_8  and  C_11
REMARK    8  A    between atoms: C_11  and  C_12
REMARK    9  A    between atoms: C_12  and  O_13
REMARK   10  A    between atoms: C_12  and  C_14
REMARK   11  A    between atoms: C_14  and  C_15
REMARK   12  A    between atoms: C_15  and  O_17
REMARK   13  A    between atoms: N_18  and  C_19
REMARK                            x       y       z     vdW  Elec       q    Type
REMARK                         _______ _______ _______ _____ _____    ______ ____
ROOT
ATOM      1  C   UNL     1      -4.110  13.149  21.451  0.00  0.00    +0.000 A 
ATOM      2  C   UNL     1      -3.306  12.694  20.411  0.00  0.00    +0.000 A 
ATOM      3  N   UNL     1      -4.092  11.947  19.528  0.00  0.00    +0.000 N 
ATOM      4  C   UNL     1      -5.388  11.862  20.048  0.00  0.00    +0.000 A 
ATOM      5  C   UNL     1      -6.535  11.156  19.617  0.00  0.00    +0.000 A 
ATOM      6  C   UNL     1      -7.727  11.271  20.340  0.00  0.00    +0.000 A 
ATOM      7  C   UNL     1      -7.783  12.041  21.492  0.00  0.00    +0.000 A 
ATOM      8  C   UNL     1      -6.640  12.705  21.946  0.00  0.00    +0.000 A 
ATOM      9  C   UNL     1      -5.422  12.614  21.228  0.00  0.00    +0.000 A 
ENDROOT
BRANCH   3  10
ATOM     10  C   UNL     1      -3.651  11.392  18.278  0.00  0.00    +0.000 A 
ATOM     11  C   UNL     1      -2.517  10.569  18.220  0.00  0.00    +0.000 A 
ATOM     12  C   UNL     1      -2.044  10.091  16.995  0.00  0.00    +0.000 A 
ATOM     13  C   UNL     1      -2.732  10.402  15.830  0.00  0.00    +0.000 A 
ATOM     14  F   UNL     1      -2.283   9.938  14.658  0.00  0.00    +0.000 F 
ATOM     15  C   UNL     1      -3.874  11.188  15.866  0.00  0.00    +0.000 A 
ATOM     16  C   UNL     1      -4.328  11.698  17.087  0.00  0.00    +0.000 A 
ENDBRANCH   3  10
BRANCH   1  18
ATOM     17  C   UNL     1      -2.739  13.393  23.571  0.00  0.00    +0.000 C 
ATOM     18  C   UNL     1      -3.735  14.046  22.613  0.00  0.00    +0.000 C 
ATOM     19  C   UNL     1      -3.246  15.419  22.143  0.00  0.00    +0.000 C 
ENDBRANCH   1  18
BRANCH   2  20
ATOM     20  C   UNL     1      -1.923  13.026  20.216  0.00  0.00    +0.000 C 
ATOM     21  C   UNL     1      -0.758  13.276  20.045  0.00  0.00    +0.000 C 
BRANCH  21  22
ATOM     22  P   UNL     1       1.011  13.677  19.804  0.00  0.00    +0.000 P 
ATOM     23  O   UNL     1       0.523  15.117  19.646  0.00  0.00    +0.000 OA
BRANCH  22  24
ATOM     24  O   UNL     1       1.217  13.437  21.418  0.00  0.00    +0.000 OA
ATOM     25  H   UNL     1       1.787  12.662  21.611  0.00  0.00    +0.000 HD
ENDBRANCH  22  24
BRANCH  22  26
ATOM     26  C   UNL     1       2.781  14.079  19.563  0.00  0.00    +0.000 C 
BRANCH  26  27
ATOM     27  C   UNL     1       3.296  14.147  18.118  0.00  0.00    +0.000 C 
BRANCH  27  28
ATOM     28  O   UNL     1       2.655  13.135  17.334  0.00  0.00    +0.000 OA
ATOM     29  H   UNL     1       3.267  12.361  17.306  0.00  0.00    +0.000 HD
ENDBRANCH  27  28
BRANCH  27  30
ATOM     30  C   UNL     1       3.168  15.486  17.386  0.00  0.00    +0.000 C 
BRANCH  30  31
ATOM     31  C   UNL     1       3.526  16.660  18.266  0.00  0.00    +0.000 C 
ATOM     32  O   UNL     1       4.660  16.975  18.591  0.00  0.00    +0.000 OA
BRANCH  31  33
ATOM     33  O   UNL     1       2.443  17.377  18.651  0.00  0.00    +0.000 OA
ATOM     34  H   UNL     1       2.571  18.342  18.599  0.00  0.00    +0.000 HD
ENDBRANCH  31  33
ENDBRANCH  30  31
ENDBRANCH  27  30
ENDBRANCH  26  27
ENDBRANCH  22  26
ENDBRANCH  21  22
ENDBRANCH   2  20
TORSDOF 11
ENDMDL
MODEL 2
REMARK VINA RESULT:      -6.3      0.806      1.495
REMARK  Name = 
REMARK  13 active torsions:
REMARK  status: ('A' for Active; 'I' for Inactive)
REMARK    1  A    between atoms: C_1  and  C_2
REMARK    2  A    between atoms: C_2  and  C_3
REMARK    3  A    between atoms: C_2  and  C_4
REMARK    4  A    between atoms: C_5  and  C_6
REMARK    5  A    between atoms: C_7  and  P_8
REMARK    6  A    between atoms: P_8  and  O_10
REMARK    7  A    between atoms: P_8  and  C_11
REMARK    8  A    between atoms: C_11  and  C_12
REMARK    9  A    between atoms: C_12  and  O_13
REMARK   10  A    between atoms: C_12  and  C_14
REMARK   11  A    between atoms: C_14  and  C_15
REMARK   12  A    between atoms: C_15  and  O_17
REMARK   13  A    between atoms: N_18  and  C_19
REMARK                            x       y       z     vdW  Elec       q    Type
REMARK                         _______ _______ _______ _____ _____    ______ ____
ROOT
ATOM      1  C   UNL     1      -4.061  12.994  21.499  0.00  0.00    +0.000 A 
ATOM      2  C   UNL     1      -3.248  12.539  20.466  0.00  0.00    +0.000 A 
ATOM      3  N   UNL     1      -4.045  11.894  19.515  0.00  0.00    +0.000 N 
ATOM      4  C   UNL     1      -5.363  11.871  19.982  0.00  0.00    +0.000 A 
ATOM      5  C   UNL     1      -6.537  11.268  19.472  0.00  0.00    +0.000 A 
ATOM      6  C   UNL     1      -7.747  11.427  20.156  0.00  0.00    +0.000 A 
ATOM      7  C   UNL     1      -7.798  12.139  21.344  0.00  0.00    +0.000 A 
ATOM      8  C   UNL     1      -6.632  12.699  21.875  0.00  0.00    +0.000 A 
ATOM      9  C   UNL     1      -5.395  12.563  21.199  0.00  0.00    +0.000 A 
ENDROOT
BRANCH   3  10
ATOM     10  C   UNL     1      -3.592  11.376  18.254  0.00  0.00    +0.000 A 
ATOM     11  C   UNL     1      -4.269  11.690  17.066  0.00  0.00    +0.000 A 
ATOM     12  C   UNL     1      -3.874  11.126  15.850  0.00  0.00    +0.000 A 
ATOM     13  C   UNL     1      -2.773  10.281  15.815  0.00  0.00    +0.000 A 
ATOM     14  F   UNL     1      -2.391   9.747  14.650  0.00  0.00    +0.000 F 
ATOM     15  C   UNL     1      -2.069   9.981  16.973  0.00  0.00    +0.000 A 
ATOM     16  C   UNL     1      -2.484  10.515  18.196  0.00  0.00    +0.000 A 
ENDBRANCH   3  10
BRANCH   1  18
ATOM     17  C   UNL     1      -4.379  15.158  22.784  0.00  0.00    +0.000 C 
ATOM     18  C   UNL     1      -3.675  13.803  22.720  0.00  0.00    +0.000 C 
ATOM     19  C   UNL     1      -3.863  13.010  24.016  0.00  0.00    +0.000 C 
ENDBRANCH   1  18
BRANCH   2  20
ATOM     20  C   UNL     1      -1.839  12.786  20.339  0.00  0.00    +0.000 C 
ATOM     21  C   UNL     1      -0.660  12.988  20.204  0.00  0.00    +0.000 C 
BRANCH  21  22
ATOM     22  P   UNL     1       1.137  13.286  20.026  0.00  0.00    +0.000 P 
ATOM     23  O   UNL     1       1.175  13.137  21.547  0.00  0.00    +0.000 OA
BRANCH  22  24
ATOM     24  O   UNL     1       1.261  11.765  19.412  0.00  0.00    +0.000 OA
ATOM     25  H   UNL     1       0.420  11.265  19.478  0.00  0.00    +0.000 HD
ENDBRANCH  22  24
BRANCH  22  26
ATOM     26  C   UNL     1       2.934  13.584  19.848  0.00  0.00    +0.000 C 
BRANCH  26  27
ATOM     27  C   UNL     1       3.379  14.569  18.757  0.00  0.00    +0.000 C 
BRANCH  27  28
ATOM     28  O   UNL     1       3.869  13.841  17.626  0.00  0.00    +0.000 OA
ATOM     29  H   UNL     1       3.701  14.399  16.829  0.00  0.00    +0.000 HD
ENDBRANCH  27  28
BRANCH  27  30
ATOM     30  C   UNL     1       2.349  15.594  18.270  0.00  0.00    +0.000 C 
BRANCH  30  31
ATOM     31  C   UNL     1       2.987  16.898  17.854  0.00  0.00    +0.000 C 
ATOM     32  O   UNL     1       2.717  17.520  16.838  0.00  0.00    +0.000 OA
BRANCH  31  33
ATOM     33  O   UNL     1       3.893  17.350  18.753  0.00  0.00    +0.000 OA
ATOM     34  H   UNL     1       4.817  17.140  18.521  0.00  0.00    +0.000 HD
ENDBRANCH  31  33
ENDBRANCH  30  31
ENDBRANCH  27  30
ENDBRANCH  26  27
ENDBRANCH  22  26
ENDBRANCH  21  22
ENDBRANCH   2  20
TORSDOF 11
ENDMDL
MODEL 3
REMARK VINA RESULT:      -6.1      0.915      1.594
REMARK  Name = 
REMARK  13 active torsions:
REMARK  status: ('A' for Active; 'I' for Inactive)
REMARK    1  A    between atoms: C_1  and  C_2
REMARK    2  A    between atoms: C_2  and  C_3
REMARK    3  A    between atoms: C_2  and  C_4
REMARK    4  A    between atoms: C_5  and  C_6
REMARK    5  A    between atoms: C_7  and  P_8
REMARK    6  A    between atoms: P_8  and  O_10
REMARK    7  A    between atoms: P_8  and  C_11
REMARK    8  A    between atoms: C_11  and  C_12
REMARK    9  A    between atoms: C_12  and  O_13
REMARK   10  A    between atoms: C_12  and  C_14
REMARK   11  A    between atoms: C_14  and  C_15
REMARK   12  A    between atoms: C_15  and  O_17
REMARK   13  A    between atoms: N_18  and  C_19
REMARK                            x       y       z     vdW  Elec       q    Type
REMARK                         _______ _______ _______ _____ _____    ______ ____
ROOT
ATOM      1  C   UNL     1      -3.946  13.114  21.202  0.00  0.00    +0.000 A 
ATOM      2  C   UNL     1      -3.185  12.649  20.134  0.00  0.00    +0.000 A 
ATOM      3  N   UNL     1      -4.009  11.900  19.287  0.00  0.00    +0.000 N 
ATOM      4  C   UNL     1      -5.283  11.825  19.858  0.00  0.00    +0.000 A 
ATOM      5  C   UNL     1      -6.451  11.123  19.477  0.00  0.00    +0.000 A 
ATOM      6  C   UNL     1      -7.612  11.249  20.245  0.00  0.00    +0.000 A 
ATOM      7  C   UNL     1      -7.619  12.026  21.393  0.00  0.00    +0.000 A 
ATOM      8  C   UNL     1      -6.456  12.687  21.798  0.00  0.00    +0.000 A 
ATOM      9  C   UNL     1      -5.267  12.585  21.034  0.00  0.00    +0.000 A 
ENDROOT
BRANCH   3  10
ATOM     10  C   UNL     1      -3.620  11.336  18.025  0.00  0.00    +0.000 A 
ATOM     11  C   UNL     1      -4.315  11.662  16.850  0.00  0.00    +0.000 A 
ATOM     12  C   UNL     1      -3.985  11.056  15.635  0.00  0.00    +0.000 A 
ATOM     13  C   UNL     1      -2.930  10.155  15.586  0.00  0.00    +0.000 A 
ATOM     14  F   UNL     1      -2.610   9.580  14.421  0.00  0.00    +0.000 F 
ATOM     15  C   UNL     1      -2.208   9.841  16.729  0.00  0.00    +0.000 A 
ATOM     16  C   UNL     1      -2.560  10.418  17.953  0.00  0.00    +0.000 A 
ENDBRANCH   3  10
BRANCH   1  18
ATOM     17  C   UNL     1      -2.428  13.398  23.215  0.00  0.00    +0.000 C 
ATOM     18  C   UNL     1      -3.521  14.017  22.343  0.00  0.00    +0.000 C 
ATOM     19  C   UNL     1      -3.126  15.413  21.853  0.00  0.00    +0.000 C 
ENDBRANCH   1  18
BRANCH   2  20
ATOM     20  C   UNL     1      -1.809  12.972  19.883  0.00  0.00    +0.000 C 
ATOM     21  C   UNL     1      -0.663  13.258  19.648  0.00  0.00    +0.000 C 
BRANCH  21  22
ATOM     22  P   UNL     1       1.086  13.669  19.304  0.00  0.00    +0.000 P 
ATOM     23  O   UNL     1       1.398  12.675  20.423  0.00  0.00    +0.000 OA
BRANCH  22  24
ATOM     24  O   UNL     1       0.954  12.782  17.925  0.00  0.00    +0.000 OA
ATOM     25  H   UNL     1       1.473  13.162  17.185  0.00  0.00    +0.000 HD
ENDBRANCH  22  24
BRANCH  22  26
ATOM     26  C   UNL     1       2.837  14.079  18.961  0.00  0.00    +0.000 C 
BRANCH  26  27
ATOM     27  C   UNL     1       3.391  15.371  19.581  0.00  0.00    +0.000 C 
BRANCH  27  28
ATOM     28  O   UNL     1       4.631  15.709  18.950  0.00  0.00    +0.000 OA
ATOM     29  H   UNL     1       5.184  16.165  19.629  0.00  0.00    +0.000 HD
ENDBRANCH  27  28
BRANCH  27  30
ATOM     30  C   UNL     1       2.483  16.604  19.568  0.00  0.00    +0.000 C 
BRANCH  30  31
ATOM     31  C   UNL     1       2.197  17.094  18.169  0.00  0.00    +0.000 C 
ATOM     32  O   UNL     1       3.042  17.333  17.320  0.00  0.00    +0.000 OA
BRANCH  31  33
ATOM     33  O   UNL     1       0.872  17.221  17.917  0.00  0.00    +0.000 OA
ATOM     34  H   UNL     1       0.454  17.972  18.378  0.00  0.00    +0.000 HD
ENDBRANCH  31  33
ENDBRANCH  30  31
ENDBRANCH  27  30
ENDBRANCH  26  27
ENDBRANCH  22  26
ENDBRANCH  21  22
ENDBRANCH   2  20
TORSDOF 11
ENDMDL
MODEL 4
REMARK VINA RESULT:      -6.1      1.330      2.153
REMARK  Name = 
REMARK  13 active torsions:
REMARK  status: ('A' for Active; 'I' for Inactive)
REMARK    1  A    between atoms: C_1  and  C_2
REMARK    2  A    between atoms: C_2  and  C_3
REMARK    3  A    between atoms: C_2  and  C_4
REMARK    4  A    between atoms: C_5  and  C_6
REMARK    5  A    between atoms: C_7  and  P_8
REMARK    6  A    between atoms: P_8  and  O_10
REMARK    7  A    between atoms: P_8  and  C_11
REMARK    8  A    between atoms: C_11  and  C_12
REMARK    9  A    between atoms: C_12  and  O_13
REMARK   10  A    between atoms: C_12  and  C_14
REMARK   11  A    between atoms: C_14  and  C_15
REMARK   12  A    between atoms: C_15  and  O_17
REMARK   13  A    between atoms: N_18  and  C_19
REMARK                            x       y       z     vdW  Elec       q    Type
REMARK                         _______ _______ _______ _____ _____    ______ ____
ROOT
ATOM      1  C   UNL     1      -3.882  13.092  21.141  0.00  0.00    +0.000 A 
ATOM      2  C   UNL     1      -3.130  12.630  20.065  0.00  0.00    +0.000 A 
ATOM      3  N   UNL     1      -3.961  11.885  19.222  0.00  0.00    +0.000 N 
ATOM      4  C   UNL     1      -5.231  11.809  19.803  0.00  0.00    +0.000 A 
ATOM      5  C   UNL     1      -6.402  11.108  19.430  0.00  0.00    +0.000 A 
ATOM      6  C   UNL     1      -7.557  11.232  20.208  0.00  0.00    +0.000 A 
ATOM      7  C   UNL     1      -7.554  12.006  21.358  0.00  0.00    +0.000 A 
ATOM      8  C   UNL     1      -6.387  12.664  21.756  0.00  0.00    +0.000 A 
ATOM      9  C   UNL     1      -5.205  12.565  20.982  0.00  0.00    +0.000 A 
ENDROOT
BRANCH   3  10
ATOM     10  C   UNL     1      -3.583  11.325  17.955  0.00  0.00    +0.000 A 
ATOM     11  C   UNL     1      -4.288  11.654  16.787  0.00  0.00    +0.000 A 
ATOM     12  C   UNL     1      -3.968  11.053  15.568  0.00  0.00    +0.000 A 
ATOM     13  C   UNL     1      -2.914  10.152  15.507  0.00  0.00    +0.000 A 
ATOM     14  F   UNL     1      -2.603   9.580  14.337  0.00  0.00    +0.000 F 
ATOM     15  C   UNL     1      -2.182   9.834  16.642  0.00  0.00    +0.000 A 
ATOM     16  C   UNL     1      -2.523  10.407  17.871  0.00  0.00    +0.000 A 
ENDBRANCH   3  10
BRANCH   1  18
ATOM     17  C   UNL     1      -2.360  13.362  23.153  0.00  0.00    +0.000 C 
ATOM     18  C   UNL     1      -3.447  13.991  22.281  0.00  0.00    +0.000 C 
ATOM     19  C   UNL     1      -3.039  15.382  21.791  0.00  0.00    +0.000 C 
ENDBRANCH   1  18
BRANCH   2  20
ATOM     20  C   UNL     1      -1.756  12.953  19.804  0.00  0.00    +0.000 C 
ATOM     21  C   UNL     1      -0.611  13.230  19.557  0.00  0.00    +0.000 C 
BRANCH  21  22
ATOM     22  P   UNL     1       1.138  13.634  19.201  0.00  0.00    +0.000 P 
ATOM     23  O   UNL     1       1.420  12.998  20.563  0.00  0.00    +0.000 OA
BRANCH  22  24
ATOM     24  O   UNL     1       1.132  12.403  18.111  0.00  0.00    +0.000 OA
ATOM     25  H   UNL     1       0.270  11.936  18.079  0.00  0.00    +0.000 HD
ENDBRANCH  22  24
BRANCH  22  26
ATOM     26  C   UNL     1       2.888  14.038  18.847  0.00  0.00    +0.000 C 
BRANCH  26  27
ATOM     27  C   UNL     1       3.495  15.243  19.581  0.00  0.00    +0.000 C 
BRANCH  27  28
ATOM     28  O   UNL     1       2.492  15.861  20.394  0.00  0.00    +0.000 OA
ATOM     29  H   UNL     1       1.616  15.602  20.019  0.00  0.00    +0.000 HD
ENDBRANCH  27  28
BRANCH  27  30
ATOM     30  C   UNL     1       4.736  14.991  20.442  0.00  0.00    +0.000 C 
BRANCH  30  31
ATOM     31  C   UNL     1       4.385  14.619  21.863  0.00  0.00    +0.000 C 
ATOM     32  O   UNL     1       4.294  13.479  22.290  0.00  0.00    +0.000 OA
BRANCH  31  33
ATOM     33  O   UNL     1       4.205  15.700  22.660  0.00  0.00    +0.000 OA
ATOM     34  H   UNL     1       3.269  15.894  22.854  0.00  0.00    +0.000 HD
ENDBRANCH  31  33
ENDBRANCH  30  31
ENDBRANCH  27  30
ENDBRANCH  26  27
ENDBRANCH  22  26
ENDBRANCH  21  22
ENDBRANCH   2  20
TORSDOF 11
ENDMDL
MODEL 5
REMARK VINA RESULT:      -6.0      2.424      4.676
REMARK  Name = 
REMARK  13 active torsions:
REMARK  status: ('A' for Active; 'I' for Inactive)
REMARK    1  A    between atoms: C_1  and  C_2
REMARK    2  A    between atoms: C_2  and  C_3
REMARK    3  A    between atoms: C_2  and  C_4
REMARK    4  A    between atoms: C_5  and  C_6
REMARK    5  A    between atoms: C_7  and  P_8
REMARK    6  A    between atoms: P_8  and  O_10
REMARK    7  A    between atoms: P_8  and  C_11
REMARK    8  A    between atoms: C_11  and  C_12
REMARK    9  A    between atoms: C_12  and  O_13
REMARK   10  A    between atoms: C_12  and  C_14
REMARK   11  A    between atoms: C_14  and  C_15
REMARK   12  A    between atoms: C_15  and  O_17
REMARK   13  A    between atoms: N_18  and  C_19
REMARK                            x       y       z     vdW  Elec       q    Type
REMARK                         _______ _______ _______ _____ _____    ______ ____
ROOT
ATOM      1  C   UNL     1      -3.239  11.699  18.368  0.00  0.00    +0.000 A 
ATOM      2  C   UNL     1      -2.697  12.456  19.403  0.00  0.00    +0.000 A 
ATOM      3  N   UNL     1      -3.692  12.691  20.357  0.00  0.00    +0.000 N 
ATOM      4  C   UNL     1      -4.893  12.145  19.893  0.00  0.00    +0.000 A 
ATOM      5  C   UNL     1      -6.210  12.180  20.407  0.00  0.00    +0.000 A 
ATOM      6  C   UNL     1      -7.235  11.518  19.724  0.00  0.00    +0.000 A 
ATOM      7  C   UNL     1      -6.978  10.858  18.532  0.00  0.00    +0.000 A 
ATOM      8  C   UNL     1      -5.687  10.857  17.997  0.00  0.00    +0.000 A 
ATOM      9  C   UNL     1      -4.627  11.512  18.672  0.00  0.00    +0.000 A 
ENDROOT
BRANCH   3  10
ATOM     10  C   UNL     1      -3.502  13.349  21.620  0.00  0.00    +0.000 A 
ATOM     11  C   UNL     1      -3.454  14.749  21.697  0.00  0.00    +0.000 A 
ATOM     12  C   UNL     1      -3.194  15.387  22.913  0.00  0.00    +0.000 A 
ATOM     13  C   UNL     1      -3.026  14.626  24.062  0.00  0.00    +0.000 A 
ATOM     14  F   UNL     1      -2.785  15.237  25.227  0.00  0.00    +0.000 F 
ATOM     15  C   UNL     1      -3.102  13.241  24.015  0.00  0.00    +0.000 A 
ATOM     16  C   UNL     1      -3.325  12.599  22.793  0.00  0.00    +0.000 A 
ENDBRANCH   3  10
BRANCH   1  18
ATOM     17  C   UNL     1      -2.009   9.725  17.355  0.00  0.00    +0.000 C 
ATOM     18  C   UNL     1      -2.545  11.140  17.142  0.00  0.00    +0.000 C 
ATOM     19  C   UNL     1      -3.428  11.226  15.895  0.00  0.00    +0.000 C 
ENDBRANCH   1  18
BRANCH   2  20
ATOM     20  C   UNL     1      -1.320  12.841  19.525  0.00  0.00    +0.000 C 
ATOM     21  C   UNL     1      -0.173  13.191  19.636  0.00  0.00    +0.000 C 
BRANCH  21  22
ATOM     22  P   UNL     1       1.577  13.704  19.785  0.00  0.00    +0.000 P 
ATOM     23  O   UNL     1       1.452  13.227  21.232  0.00  0.00    +0.000 OA
BRANCH  22  24
ATOM     24  O   UNL     1       1.972  12.378  18.896  0.00  0.00    +0.000 OA
ATOM     25  H   UNL     1       1.199  11.997  18.430  0.00  0.00    +0.000 HD
ENDBRANCH  22  24
BRANCH  22  26
ATOM     26  C   UNL     1       3.328  14.217  19.935  0.00  0.00    +0.000 C 
BRANCH  26  27
ATOM     27  C   UNL     1       4.132  14.362  18.635  0.00  0.00    +0.000 C 
BRANCH  27  28
ATOM     28  O   UNL     1       3.233  14.465  17.525  0.00  0.00    +0.000 OA
ATOM     29  H   UNL     1       3.237  15.410  17.238  0.00  0.00    +0.000 HD
ENDBRANCH  27  28
BRANCH  27  30
ATOM     30  C   UNL     1       5.141  15.512  18.555  0.00  0.00    +0.000 C 
BRANCH  30  31
ATOM     31  C   UNL     1       4.495  16.861  18.760  0.00  0.00    +0.000 C 
ATOM     32  O   UNL     1       4.767  17.641  19.659  0.00  0.00    +0.000 OA
BRANCH  31  33
ATOM     33  O   UNL     1       3.576  17.153  17.809  0.00  0.00    +0.000 OA
ATOM     34  H   UNL     1       3.171  18.035  17.910  0.00  0.00    +0.000 HD
ENDBRANCH  31  33
ENDBRANCH  30  31
ENDBRANCH  27  30
ENDBRANCH  26  27
ENDBRANCH  22  26
ENDBRANCH  21  22
ENDBRANCH   2  20
TORSDOF 11
ENDMDL
MODEL 6
REMARK VINA RESULT:      -5.9      0.991      1.399
REMARK  Name = 
REMARK  13 active torsions:
REMARK  status: ('A' for Active; 'I' for Inactive)
REMARK    1  A    between atoms: C_1  and  C_2
REMARK    2  A    between atoms: C_2  and  C_3
REMARK    3  A    between atoms: C_2  and  C_4
REMARK    4  A    between atoms: C_5  and  C_6
REMARK    5  A    between atoms: C_7  and  P_8
REMARK    6  A    between atoms: P_8  and  O_10
REMARK    7  A    between atoms: P_8  and  C_11
REMARK    8  A    between atoms: C_11  and  C_12
REMARK    9  A    between atoms: C_12  and  O_13
REMARK   10  A    between atoms: C_12  and  C_14
REMARK   11  A    between atoms: C_14  and  C_15
REMARK   12  A    between atoms: C_15  and  O_17
REMARK   13  A    between atoms: N_18  and  C_19
REMARK                            x       y       z     vdW  Elec       q    Type
REMARK                         _______ _______ _______ _____ _____    ______ ____
ROOT
ATOM      1  C   UNL     1      -3.868  13.066  21.143  0.00  0.00    +0.000 A 
ATOM      2  C   UNL     1      -3.155  12.583  20.050  0.00  0.00    +0.000 A 
ATOM      3  N   UNL     1      -4.023  11.846  19.237  0.00  0.00    +0.000 N 
ATOM      4  C   UNL     1      -5.277  11.796  19.854  0.00  0.00    +0.000 A 
ATOM      5  C   UNL     1      -6.469  11.113  19.519  0.00  0.00    +0.000 A 
ATOM      6  C   UNL     1      -7.600  11.262  20.329  0.00  0.00    +0.000 A 
ATOM      7  C   UNL     1      -7.551  12.043  21.473  0.00  0.00    +0.000 A 
ATOM      8  C   UNL     1      -6.362  12.685  21.832  0.00  0.00    +0.000 A 
ATOM      9  C   UNL     1      -5.204  12.560  21.026  0.00  0.00    +0.000 A 
ENDROOT
BRANCH   3  10
ATOM     10  C   UNL     1      -3.690  11.271  17.963  0.00  0.00    +0.000 A 
ATOM     11  C   UNL     1      -2.648  10.339  17.848  0.00  0.00    +0.000 A 
ATOM     12  C   UNL     1      -2.276   9.836  16.599  0.00  0.00    +0.000 A 
ATOM     13  C   UNL     1      -2.975  10.233  15.467  0.00  0.00    +0.000 A 
ATOM     14  F   UNL     1      -2.623   9.746  14.272  0.00  0.00    +0.000 F 
ATOM     15  C   UNL     1      -4.030  11.130  15.561  0.00  0.00    +0.000 A 
ATOM     16  C   UNL     1      -4.381  11.663  16.805  0.00  0.00    +0.000 A 
ENDBRANCH   3  10
BRANCH   1  18
ATOM     17  C   UNL     1      -2.286  13.322  23.110  0.00  0.00    +0.000 C 
ATOM     18  C   UNL     1      -3.385  13.964  22.264  0.00  0.00    +0.000 C 
ATOM     19  C   UNL     1      -2.967  15.345  21.752  0.00  0.00    +0.000 C 
ENDBRANCH   1  18
BRANCH   2  20
ATOM     20  C   UNL     1      -1.784  12.881  19.747  0.00  0.00    +0.000 C 
ATOM     21  C   UNL     1      -0.635  13.153  19.513  0.00  0.00    +0.000 C 
BRANCH  21  22
ATOM     22  P   UNL     1       1.109  13.557  19.131  0.00  0.00    +0.000 P 
ATOM     23  O   UNL     1       1.431  12.728  20.374  0.00  0.00    +0.000 OA
BRANCH  22  24
ATOM     24  O   UNL     1       1.012  12.491  17.881  0.00  0.00    +0.000 OA
ATOM     25  H   UNL     1       0.129  12.495  17.454  0.00  0.00    +0.000 HD
ENDBRANCH  22  24
BRANCH  22  26
ATOM     26  C   UNL     1       2.853  13.960  18.749  0.00  0.00    +0.000 C 
BRANCH  26  27
ATOM     27  C   UNL     1       3.255  15.442  18.779  0.00  0.00    +0.000 C 
BRANCH  27  28
ATOM     28  O   UNL     1       4.207  15.699  17.741  0.00  0.00    +0.000 OA
ATOM     29  H   UNL     1       3.742  15.557  16.881  0.00  0.00    +0.000 HD
ENDBRANCH  27  28
BRANCH  27  30
ATOM     30  C   UNL     1       2.132  16.479  18.680  0.00  0.00    +0.000 C 
BRANCH  30  31
ATOM     31  C   UNL     1       2.129  17.437  19.847  0.00  0.00    +0.000 C 
ATOM     32  O   UNL     1       2.428  18.620  19.787  0.00  0.00    +0.000 OA
BRANCH  31  33
ATOM     33  O   UNL     1       1.722  16.858  21.002  0.00  0.00    +0.000 OA
ATOM     34  H   UNL     1       1.756  15.883  20.986  0.00  0.00    +0.000 HD
ENDBRANCH  31  33
ENDBRANCH  30  31
ENDBRANCH  27  30
ENDBRANCH  26  27
ENDBRANCH  22  26
ENDBRANCH  21  22
ENDBRANCH   2  20
TORSDOF 11
ENDMDL
MODEL 7
REMARK VINA RESULT:      -5.9      4.092      8.017
REMARK  Name = 
REMARK  13 active torsions:
REMARK  status: ('A' for Active; 'I' for Inactive)
REMARK    1  A    between atoms: C_1  and  C_2
REMARK    2  A    between atoms: C_2  and  C_3
REMARK    3  A    between atoms: C_2  and  C_4
REMARK    4  A    between atoms: C_5  and  C_6
REMARK    5  A    between atoms: C_7  and  P_8
REMARK    6  A    between atoms: P_8  and  O_10
REMARK    7  A    between atoms: P_8  and  C_11
REMARK    8  A    between atoms: C_11  and  C_12
REMARK    9  A    between atoms: C_12  and  O_13
REMARK   10  A    between atoms: C_12  and  C_14
REMARK   11  A    between atoms: C_14  and  C_15
REMARK   12  A    between atoms: C_15  and  O_17
REMARK   13  A    between atoms: N_18  and  C_19
REMARK                            x       y       z     vdW  Elec       q    Type
REMARK                         _______ _______ _______ _____ _____    ______ ____
ROOT
ATOM      1  C   UNL     1       0.022  15.801  19.209  0.00  0.00    +0.000 A 
ATOM      2  C   UNL     1      -0.567  14.618  19.646  0.00  0.00    +0.000 A 
ATOM      3  N   UNL     1       0.381  13.593  19.586  0.00  0.00    +0.000 N 
ATOM      4  C   UNL     1       1.560  14.108  19.036  0.00  0.00    +0.000 A 
ATOM      5  C   UNL     1       2.779  13.494  18.667  0.00  0.00    +0.000 A 
ATOM      6  C   UNL     1       3.814  14.276  18.144  0.00  0.00    +0.000 A 
ATOM      7  C   UNL     1       3.642  15.638  17.951  0.00  0.00    +0.000 A 
ATOM      8  C   UNL     1       2.423  16.242  18.272  0.00  0.00    +0.000 A 
ATOM      9  C   UNL     1       1.361  15.476  18.814  0.00  0.00    +0.000 A 
ENDROOT
BRANCH   3  10
ATOM     10  C   UNL     1       0.190  12.246  20.047  0.00  0.00    +0.000 A 
ATOM     11  C   UNL     1      -0.204  11.234  19.158  0.00  0.00    +0.000 A 
ATOM     12  C   UNL     1      -0.463   9.941  19.619  0.00  0.00    +0.000 A 
ATOM     13  C   UNL     1      -0.287   9.648  20.965  0.00  0.00    +0.000 A 
ATOM     14  F   UNL     1      -0.529   8.408  21.406  0.00  0.00    +0.000 F 
ATOM     15  C   UNL     1       0.132  10.625  21.857  0.00  0.00    +0.000 A 
ATOM     16  C   UNL     1       0.356  11.929  21.405  0.00  0.00    +0.000 A 
ENDBRANCH   3  10
BRANCH   1  18
ATOM     17  C   UNL     1       0.145  18.188  20.058  0.00  0.00    +0.000 C 
ATOM     18  C   UNL     1      -0.578  17.191  19.152  0.00  0.00    +0.000 C 
ATOM     19  C   UNL     1      -0.685  17.711  17.716  0.00  0.00    +0.000 C 
ENDBRANCH   1  18
BRANCH   2  20
ATOM     20  C   UNL     1      -1.896  14.491  20.175  0.00  0.00    +0.000 C 
ATOM     21  C   UNL     1      -3.011  14.357  20.610  0.00  0.00    +0.000 C 
BRANCH  21  22
ATOM     22  P   UNL     1      -4.709  14.180  21.267  0.00  0.00    +0.000 P 
ATOM     23  O   UNL     1      -4.391  15.450  22.056  0.00  0.00    +0.000 OA
BRANCH  22  24
ATOM     24  O   UNL     1      -5.258  14.676  19.798  0.00  0.00    +0.000 OA
ATOM     25  H   UNL     1      -5.385  15.647  19.755  0.00  0.00    +0.000 HD
ENDBRANCH  22  24
BRANCH  22  26
ATOM     26  C   UNL     1      -6.408  14.003  21.925  0.00  0.00    +0.000 C 
BRANCH  26  27
ATOM     27  C   UNL     1      -7.310  12.946  21.269  0.00  0.00    +0.000 C 
BRANCH  27  28
ATOM     28  O   UNL     1      -7.909  13.495  20.091  0.00  0.00    +0.000 OA
ATOM     29  H   UNL     1      -8.438  14.279  20.374  0.00  0.00    +0.000 HD
ENDBRANCH  27  28
BRANCH  27  30
ATOM     30  C   UNL     1      -6.674  11.600  20.913  0.00  0.00    +0.000 C 
BRANCH  30  31
ATOM     31  C   UNL     1      -6.602  11.374  19.421  0.00  0.00    +0.000 C 
ATOM     32  O   UNL     1      -5.845  11.953  18.658  0.00  0.00    +0.000 OA
BRANCH  31  33
ATOM     33  O   UNL     1      -7.459  10.417  18.993  0.00  0.00    +0.000 OA
ATOM     34  H   UNL     1      -8.082  10.724  18.309  0.00  0.00    +0.000 HD
ENDBRANCH  31  33
ENDBRANCH  30  31
ENDBRANCH  27  30
ENDBRANCH  26  27
ENDBRANCH  22  26
ENDBRANCH  21  22
ENDBRANCH   2  20
TORSDOF 11
ENDMDL
MODEL 8
REMARK VINA RESULT:      -5.9     10.012     12.905
REMARK  Name = 
REMARK  13 active torsions:
REMARK  status: ('A' for Active; 'I' for Inactive)
REMARK    1  A    between atoms: C_1  and  C_2
REMARK    2  A    between atoms: C_2  and  C_3
REMARK    3  A    between atoms: C_2  and  C_4
REMARK    4  A    between atoms: C_5  and  C_6
REMARK    5  A    between atoms: C_7  and  P_8
REMARK    6  A    between atoms: P_8  and  O_10
REMARK    7  A    between atoms: P_8  and  C_11
REMARK    8  A    between atoms: C_11  and  C_12
REMARK    9  A    between atoms: C_12  and  O_13
REMARK   10  A    between atoms: C_12  and  C_14
REMARK   11  A    between atoms: C_14  and  C_15
REMARK   12  A    between atoms: C_15  and  O_17
REMARK   13  A    between atoms: N_18  and  C_19
REMARK                            x       y       z     vdW  Elec       q    Type
REMARK                         _______ _______ _______ _____ _____    ______ ____
ROOT
ATOM      1  C   UNL     1       9.429  16.109  20.525  0.00  0.00    +0.000 A 
ATOM      2  C   UNL     1       8.969  14.796  20.502  0.00  0.00    +0.000 A 
ATOM      3  N   UNL     1       9.470  14.162  19.361  0.00  0.00    +0.000 N 
ATOM      4  C   UNL     1      10.192  15.098  18.613  0.00  0.00    +0.000 A 
ATOM      5  C   UNL     1      10.816  15.019  17.346  0.00  0.00    +0.000 A 
ATOM      6  C   UNL     1      11.495  16.132  16.841  0.00  0.00    +0.000 A 
ATOM      7  C   UNL     1      11.531  17.320  17.554  0.00  0.00    +0.000 A 
ATOM      8  C   UNL     1      10.879  17.418  18.786  0.00  0.00    +0.000 A 
ATOM      9  C   UNL     1      10.192  16.303  19.327  0.00  0.00    +0.000 A 
ENDROOT
BRANCH   3  10
ATOM     10  C   UNL     1       9.304  12.774  19.032  0.00  0.00    +0.000 A 
ATOM     11  C   UNL     1       8.569  12.389  17.900  0.00  0.00    +0.000 A 
ATOM     12  C   UNL     1       8.344  11.039  17.622  0.00  0.00    +0.000 A 
ATOM     13  C   UNL     1       8.890  10.070  18.452  0.00  0.00    +0.000 A 
ATOM     14  F   UNL     1       8.680   8.777  18.182  0.00  0.00    +0.000 F 
ATOM     15  C   UNL     1       9.647  10.427  19.560  0.00  0.00    +0.000 A 
ATOM     16  C   UNL     1       9.843  11.777  19.861  0.00  0.00    +0.000 A 
ENDBRANCH   3  10
BRANCH   1  18
ATOM     17  C   UNL     1       7.736  17.513  21.789  0.00  0.00    +0.000 C 
ATOM     18  C   UNL     1       9.211  17.169  21.586  0.00  0.00    +0.000 C 
ATOM     19  C   UNL     1       9.890  16.804  22.908  0.00  0.00    +0.000 C 
ENDBRANCH   1  18
BRANCH   2  20
ATOM     20  C   UNL     1       8.197  14.162  21.533  0.00  0.00    +0.000 C 
ATOM     21  C   UNL     1       7.575  13.620  22.411  0.00  0.00    +0.000 C 
BRANCH  21  22
ATOM     22  P   UNL     1       6.608  12.794  23.726  0.00  0.00    +0.000 P 
ATOM     23  O   UNL     1       7.005  13.996  24.584  0.00  0.00    +0.000 OA
BRANCH  22  24
ATOM     24  O   UNL     1       5.248  13.238  22.914  0.00  0.00    +0.000 OA
ATOM     25  H   UNL     1       4.925  12.534  22.313  0.00  0.00    +0.000 HD
ENDBRANCH  22  24
BRANCH  22  26
ATOM     26  C   UNL     1       5.641  11.969  25.043  0.00  0.00    +0.000 C 
BRANCH  26  27
ATOM     27  C   UNL     1       6.243  11.956  26.456  0.00  0.00    +0.000 C 
BRANCH  27  28
ATOM     28  O   UNL     1       5.848  13.142  27.154  0.00  0.00    +0.000 OA
ATOM     29  H   UNL     1       5.976  13.899  26.533  0.00  0.00    +0.000 HD
ENDBRANCH  27  28
BRANCH  27  30
ATOM     30  C   UNL     1       5.939  10.744  27.341  0.00  0.00    +0.000 C 
BRANCH  30  31
ATOM     31  C   UNL     1       4.465  10.421  27.389  0.00  0.00    +0.000 C 
ATOM     32  O   UNL     1       3.587  11.193  27.744  0.00  0.00    +0.000 OA
BRANCH  31  33
ATOM     33  O   UNL     1       4.187   9.167  26.960  0.00  0.00    +0.000 OA
ATOM     34  H   UNL     1       3.902   8.562  27.671  0.00  0.00    +0.000 HD
ENDBRANCH  31  33
ENDBRANCH  30  31
ENDBRANCH  27  30
ENDBRANCH  26  27
ENDBRANCH  22  26
ENDBRANCH  21  22
ENDBRANCH   2  20
TORSDOF 11
ENDMDL
MODEL 9
REMARK VINA RESULT:      -5.9      2.591      4.796
REMARK  Name = 
REMARK  13 active torsions:
REMARK  status: ('A' for Active; 'I' for Inactive)
REMARK    1  A    between atoms: C_1  and  C_2
REMARK    2  A    between atoms: C_2  and  C_3
REMARK    3  A    between atoms: C_2  and  C_4
REMARK    4  A    between atoms: C_5  and  C_6
REMARK    5  A    between atoms: C_7  and  P_8
REMARK    6  A    between atoms: P_8  and  O_10
REMARK    7  A    between atoms: P_8  and  C_11
REMARK    8  A    between atoms: C_11  and  C_12
REMARK    9  A    between atoms: C_12  and  O_13
REMARK   10  A    between atoms: C_12  and  C_14
REMARK   11  A    between atoms: C_14  and  C_15
REMARK   12  A    between atoms: C_15  and  O_17
REMARK   13  A    between atoms: N_18  and  C_19
REMARK                            x       y       z     vdW  Elec       q    Type
REMARK                         _______ _______ _______ _____ _____    ______ ____
ROOT
ATOM      1  C   UNL     1      -3.121  11.761  18.392  0.00  0.00    +0.000 A 
ATOM      2  C   UNL     1      -2.629  12.526  19.445  0.00  0.00    +0.000 A 
ATOM      3  N   UNL     1      -3.656  12.733  20.371  0.00  0.00    +0.000 N 
ATOM      4  C   UNL     1      -4.830  12.160  19.869  0.00  0.00    +0.000 A 
ATOM      5  C   UNL     1      -6.162  12.162  20.344  0.00  0.00    +0.000 A 
ATOM      6  C   UNL     1      -7.150  11.479  19.629  0.00  0.00    +0.000 A 
ATOM      7  C   UNL     1      -6.843  10.831  18.443  0.00  0.00    +0.000 A 
ATOM      8  C   UNL     1      -5.537  10.863  17.946  0.00  0.00    +0.000 A 
ATOM      9  C   UNL     1      -4.513  11.539  18.654  0.00  0.00    +0.000 A 
ENDROOT
BRANCH   3  10
ATOM     10  C   UNL     1      -3.520  13.390  21.641  0.00  0.00    +0.000 A 
ATOM     11  C   UNL     1      -3.371  12.644  22.820  0.00  0.00    +0.000 A 
ATOM     12  C   UNL     1      -3.313  13.280  24.063  0.00  0.00    +0.000 A 
ATOM     13  C   UNL     1      -3.361  14.666  24.124  0.00  0.00    +0.000 A 
ATOM     14  F   UNL     1      -3.299  15.275  25.314  0.00  0.00    +0.000 F 
ATOM     15  C   UNL     1      -3.476  15.425  22.968  0.00  0.00    +0.000 A 
ATOM     16  C   UNL     1      -3.571  14.790  21.726  0.00  0.00    +0.000 A 
ENDBRANCH   3  10
BRANCH   1  18
ATOM     17  C   UNL     1      -1.774   9.841  17.425  0.00  0.00    +0.000 C 
ATOM     18  C   UNL     1      -2.379  11.225  17.185  0.00  0.00    +0.000 C 
ATOM     19  C   UNL     1      -3.244  11.249  15.922  0.00  0.00    +0.000 C 
ENDBRANCH   1  18
BRANCH   2  20
ATOM     20  C   UNL     1      -1.265  12.943  19.610  0.00  0.00    +0.000 C 
ATOM     21  C   UNL     1      -0.119  13.296  19.719  0.00  0.00    +0.000 C 
BRANCH  21  22
ATOM     22  P   UNL     1       1.625  13.817  19.908  0.00  0.00    +0.000 P 
ATOM     23  O   UNL     1       1.440  13.426  21.374  0.00  0.00    +0.000 OA
BRANCH  22  24
ATOM     24  O   UNL     1       2.053  12.441  19.115  0.00  0.00    +0.000 OA
ATOM     25  H   UNL     1       1.995  12.538  18.141  0.00  0.00    +0.000 HD
ENDBRANCH  22  24
BRANCH  22  26
ATOM     26  C   UNL     1       3.369  14.339  20.098  0.00  0.00    +0.000 C 
BRANCH  26  27
ATOM     27  C   UNL     1       4.210  14.463  18.819  0.00  0.00    +0.000 C 
BRANCH  27  28
ATOM     28  O   UNL     1       3.347  14.437  17.676  0.00  0.00    +0.000 OA
ATOM     29  H   UNL     1       2.723  13.683  17.804  0.00  0.00    +0.000 HD
ENDBRANCH  27  28
BRANCH  27  30
ATOM     30  C   UNL     1       5.140  15.674  18.702  0.00  0.00    +0.000 C 
BRANCH  30  31
ATOM     31  C   UNL     1       6.483  15.314  18.115  0.00  0.00    +0.000 C 
ATOM     32  O   UNL     1       7.486  16.009  18.173  0.00  0.00    +0.000 OA
BRANCH  31  33
ATOM     33  O   UNL     1       6.489  14.096  17.523  0.00  0.00    +0.000 OA
ATOM     34  H   UNL     1       7.250  13.949  16.932  0.00  0.00    +0.000 HD
ENDBRANCH  31  33
ENDBRANCH  30  31
ENDBRANCH  27  30
ENDBRANCH  26  27
ENDBRANCH  22  26
ENDBRANCH  21  22
ENDBRANCH   2  20
TORSDOF 11
ENDMDL
