MODEL 1
REMARK VINA RESULT:      -7.8      0.000      0.000
REMARK  Name = 
REMARK  7 active torsions:
REMARK  status: ('A' for Active; 'I' for Inactive)
REMARK    1  A    between atoms: C_1  and  O_2
REMARK    2  A    between atoms: O_2  and  C_3
REMARK    3  A    between atoms: C_9  and  C_10
REMARK    4  A    between atoms: C_10  and  C_11
REMARK    5  A    between atoms: C_11  and  N_12
REMARK    6  A    between atoms: N_12  and  C_13
REMARK    7  A    between atoms: C_13  and  C_14
REMARK                            x       y       z     vdW  Elec       q    Type
REMARK                         _______ _______ _______ _____ _____    ______ ____
ROOT
ATOM      1  C   UNL     1       5.806   3.309  12.218  0.00  0.00    +0.000 A 
ATOM      2  C   UNL     1       6.985   3.941  11.824  0.00  0.00    +0.000 A 
ATOM      3  C   UNL     1       7.698   4.756  12.711  0.00  0.00    +0.000 A 
ATOM      4  C   UNL     1       7.190   4.917  14.005  0.00  0.00    +0.000 A 
ATOM      5  N   UNL     1       7.677   5.649  15.061  0.00  0.00    +0.000 N 
ATOM      6  C   UNL     1       6.855   5.517  16.147  0.00  0.00    +0.000 A 
ATOM      7  C   UNL     1       5.809   4.682  15.803  0.00  0.00    +0.000 A 
ATOM      8  C   UNL     1       6.013   4.306  14.436  0.00  0.00    +0.000 A 
ATOM      9  C   UNL     1       5.309   3.493  13.518  0.00  0.00    +0.000 A 
ATOM     10  H   UNL     1       8.523   6.201  15.034  0.00  0.00    +0.000 HD
ENDROOT
BRANCH   1  12
ATOM     11  C   UNL     1       3.792   3.072  10.988  0.00  0.00    +0.000 C 
ATOM     12  O   UNL     1       5.029   2.514  11.418  0.00  0.00    +0.000 OA
ENDBRANCH   1  12
BRANCH   7  13
ATOM     13  C   UNL     1       4.695   4.250  16.713  0.00  0.00    +0.000 C 
BRANCH  13  14
ATOM     14  C   UNL     1       4.888   4.800  18.135  0.00  0.00    +0.000 C 
BRANCH  14  15
ATOM     15  N   UNL     1       4.139   6.044  18.353  0.00  0.00    +0.000 NA
ATOM     16  H   UNL     1       4.469   6.764  17.712  0.00  0.00    +0.000 HD
BRANCH  15  17
ATOM     17  C   UNL     1       2.711   5.820  18.111  0.00  0.00    +0.000 C 
BRANCH  17  18
ATOM     18  C   UNL     1       2.135   4.782  19.046  0.00  0.00    +0.000 A 
ATOM     19  C   UNL     1       1.376   3.714  18.547  0.00  0.00    +0.000 A 
ATOM     20  C   UNL     1       0.866   2.741  19.409  0.00  0.00    +0.000 A 
ATOM     21  C   UNL     1       1.110   2.824  20.778  0.00  0.00    +0.000 A 
ATOM     22  C   UNL     1       1.867   3.877  21.287  0.00  0.00    +0.000 A 
ATOM     23  C   UNL     1       2.379   4.850  20.427  0.00  0.00    +0.000 A 
ENDBRANCH  17  18
ENDBRANCH  15  17
ENDBRANCH  14  15
ENDBRANCH  13  14
ENDBRANCH   7  13
TORSDOF 6
ENDMDL
MODEL 2
REMARK VINA RESULT:      -7.8      0.205      1.071
REMARK  Name = 
REMARK  7 active torsions:
REMARK  status: ('A' for Active; 'I' for Inactive)
REMARK    1  A    between atoms: C_1  and  O_2
REMARK    2  A    between atoms: O_2  and  C_3
REMARK    3  A    between atoms: C_9  and  C_10
REMARK    4  A    between atoms: C_10  and  C_11
REMARK    5  A    between atoms: C_11  and  N_12
REMARK    6  A    between atoms: N_12  and  C_13
REMARK    7  A    between atoms: C_13  and  C_14
REMARK                            x       y       z     vdW  Elec       q    Type
REMARK                         _______ _______ _______ _____ _____    ______ ____
ROOT
ATOM      1  C   UNL     1       5.678   3.315  12.185  0.00  0.00    +0.000 A 
ATOM      2  C   UNL     1       6.897   3.860  11.781  0.00  0.00    +0.000 A 
ATOM      3  C   UNL     1       7.655   4.654  12.651  0.00  0.00    +0.000 A 
ATOM      4  C   UNL     1       7.151   4.884  13.936  0.00  0.00    +0.000 A 
ATOM      5  N   UNL     1       7.676   5.614  14.973  0.00  0.00    +0.000 N 
ATOM      6  C   UNL     1       6.842   5.565  16.056  0.00  0.00    +0.000 A 
ATOM      7  C   UNL     1       5.748   4.789  15.729  0.00  0.00    +0.000 A 
ATOM      8  C   UNL     1       5.935   4.360  14.375  0.00  0.00    +0.000 A 
ATOM      9  C   UNL     1       5.187   3.567  13.475  0.00  0.00    +0.000 A 
ATOM     10  H   UNL     1       8.556   6.112  14.937  0.00  0.00    +0.000 HD
ENDROOT
BRANCH   1  12
ATOM     11  C   UNL     1       3.680   3.181  10.915  0.00  0.00    +0.000 C 
ATOM     12  O   UNL     1       4.857   2.547  11.402  0.00  0.00    +0.000 OA
ENDBRANCH   1  12
BRANCH   7  13
ATOM     13  C   UNL     1       4.603   4.454  16.642  0.00  0.00    +0.000 C 
BRANCH  13  14
ATOM     14  C   UNL     1       4.833   5.010  18.056  0.00  0.00    +0.000 C 
BRANCH  14  15
ATOM     15  N   UNL     1       3.932   6.128  18.364  0.00  0.00    +0.000 NA
ATOM     16  H   UNL     1       4.125   6.910  17.740  0.00  0.00    +0.000 HD
BRANCH  15  17
ATOM     17  C   UNL     1       2.538   5.715  18.179  0.00  0.00    +0.000 C 
BRANCH  17  18
ATOM     18  C   UNL     1       2.116   4.680  19.195  0.00  0.00    +0.000 A 
ATOM     19  C   UNL     1       2.464   4.822  20.547  0.00  0.00    +0.000 A 
ATOM     20  C   UNL     1       2.051   3.878  21.489  0.00  0.00    +0.000 A 
ATOM     21  C   UNL     1       1.284   2.784  21.093  0.00  0.00    +0.000 A 
ATOM     22  C   UNL     1       0.927   2.635  19.755  0.00  0.00    +0.000 A 
ATOM     23  C   UNL     1       1.338   3.577  18.811  0.00  0.00    +0.000 A 
ENDBRANCH  17  18
ENDBRANCH  15  17
ENDBRANCH  14  15
ENDBRANCH  13  14
ENDBRANCH   7  13
TORSDOF 6
ENDMDL
MODEL 3
REMARK VINA RESULT:      -7.6      1.127      1.343
REMARK  Name = 
REMARK  7 active torsions:
REMARK  status: ('A' for Active; 'I' for Inactive)
REMARK    1  A    between atoms: C_1  and  O_2
REMARK    2  A    between atoms: O_2  and  C_3
REMARK    3  A    between atoms: C_9  and  C_10
REMARK    4  A    between atoms: C_10  and  C_11
REMARK    5  A    between atoms: C_11  and  N_12
REMARK    6  A    between atoms: N_12  and  C_13
REMARK    7  A    between atoms: C_13  and  C_14
REMARK                            x       y       z     vdW  Elec       q    Type
REMARK                         _______ _______ _______ _____ _____    ______ ____
ROOT
ATOM      1  C   UNL     1       5.734   3.383  12.247  0.00  0.00    +0.000 A 
ATOM      2  C   UNL     1       6.967   3.951  11.927  0.00  0.00    +0.000 A 
ATOM      3  C   UNL     1       7.658   4.743  12.852  0.00  0.00    +0.000 A 
ATOM      4  C   UNL     1       7.072   4.948  14.106  0.00  0.00    +0.000 A 
ATOM      5  N   UNL     1       7.521   5.672  15.184  0.00  0.00    +0.000 N 
ATOM      6  C   UNL     1       6.621   5.596  16.212  0.00  0.00    +0.000 A 
ATOM      7  C   UNL     1       5.561   4.809  15.807  0.00  0.00    +0.000 A 
ATOM      8  C   UNL     1       5.838   4.402  14.462  0.00  0.00    +0.000 A 
ATOM      9  C   UNL     1       5.160   3.611  13.507  0.00  0.00    +0.000 A 
ATOM     10  H   UNL     1       8.393   6.182  15.209  0.00  0.00    +0.000 HD
ENDROOT
BRANCH   1  12
ATOM     11  C   UNL     1       3.726   3.168  11.003  0.00  0.00    +0.000 C 
ATOM     12  O   UNL     1       4.975   2.615  11.405  0.00  0.00    +0.000 OA
ENDBRANCH   1  12
BRANCH   7  13
ATOM     13  C   UNL     1       4.367   4.446  16.643  0.00  0.00    +0.000 C 
BRANCH  13  14
ATOM     14  C   UNL     1       4.692   4.513  18.143  0.00  0.00    +0.000 C 
BRANCH  14  15
ATOM     15  N   UNL     1       5.294   3.268  18.635  0.00  0.00    +0.000 NA
ATOM     16  H   UNL     1       6.288   3.408  18.810  0.00  0.00    +0.000 HD
BRANCH  15  17
ATOM     17  C   UNL     1       4.652   2.860  19.888  0.00  0.00    +0.000 C 
BRANCH  17  18
ATOM     18  C   UNL     1       3.150   3.009  19.828  0.00  0.00    +0.000 A 
ATOM     19  C   UNL     1       2.386   2.203  18.971  0.00  0.00    +0.000 A 
ATOM     20  C   UNL     1       0.996   2.323  18.936  0.00  0.00    +0.000 A 
ATOM     21  C   UNL     1       0.353   3.248  19.756  0.00  0.00    +0.000 A 
ATOM     22  C   UNL     1       1.100   4.051  20.616  0.00  0.00    +0.000 A 
ATOM     23  C   UNL     1       2.490   3.932  20.654  0.00  0.00    +0.000 A 
ENDBRANCH  17  18
ENDBRANCH  15  17
ENDBRANCH  14  15
ENDBRANCH  13  14
ENDBRANCH   7  13
TORSDOF 6
ENDMDL
MODEL 4
REMARK VINA RESULT:      -7.6      2.135      3.872
REMARK  Name = 
REMARK  7 active torsions:
REMARK  status: ('A' for Active; 'I' for Inactive)
REMARK    1  A    between atoms: C_1  and  O_2
REMARK    2  A    between atoms: O_2  and  C_3
REMARK    3  A    between atoms: C_9  and  C_10
REMARK    4  A    between atoms: C_10  and  C_11
REMARK    5  A    between atoms: C_11  and  N_12
REMARK    6  A    between atoms: N_12  and  C_13
REMARK    7  A    between atoms: C_13  and  C_14
REMARK                            x       y       z     vdW  Elec       q    Type
REMARK                         _______ _______ _______ _____ _____    ______ ____
ROOT
ATOM      1  C   UNL     1       6.283   5.343  15.728  0.00  0.00    +0.000 A 
ATOM      2  C   UNL     1       6.899   6.181  16.658  0.00  0.00    +0.000 A 
ATOM      3  C   UNL     1       6.737   5.974  18.034  0.00  0.00    +0.000 A 
ATOM      4  C   UNL     1       5.937   4.903  18.446  0.00  0.00    +0.000 A 
ATOM      5  N   UNL     1       5.610   4.479  19.711  0.00  0.00    +0.000 N 
ATOM      6  C   UNL     1       4.798   3.380  19.647  0.00  0.00    +0.000 A 
ATOM      7  C   UNL     1       4.586   3.072  18.317  0.00  0.00    +0.000 A 
ATOM      8  C   UNL     1       5.301   4.046  17.547  0.00  0.00    +0.000 A 
ATOM      9  C   UNL     1       5.477   4.280  16.165  0.00  0.00    +0.000 A 
ATOM     10  H   UNL     1       5.930   4.918  20.563  0.00  0.00    +0.000 HD
ENDROOT
BRANCH   1  12
ATOM     11  C   UNL     1       6.752   4.315  13.643  0.00  0.00    +0.000 C 
ATOM     12  O   UNL     1       6.363   5.477  14.368  0.00  0.00    +0.000 OA
ENDBRANCH   1  12
BRANCH   7  13
ATOM     13  C   UNL     1       3.773   1.919  17.802  0.00  0.00    +0.000 C 
BRANCH  13  14
ATOM     14  C   UNL     1       2.593   1.604  18.733  0.00  0.00    +0.000 C 
BRANCH  14  15
ATOM     15  N   UNL     1       1.300   1.924  18.115  0.00  0.00    +0.000 NA
ATOM     16  H   UNL     1       0.758   1.071  17.984  0.00  0.00    +0.000 HD
BRANCH  15  17
ATOM     17  C   UNL     1       0.540   2.831  18.980  0.00  0.00    +0.000 C 
BRANCH  17  18
ATOM     18  C   UNL     1       1.242   4.157  19.164  0.00  0.00    +0.000 A 
ATOM     19  C   UNL     1       1.672   4.897  18.053  0.00  0.00    +0.000 A 
ATOM     20  C   UNL     1       2.297   6.134  18.223  0.00  0.00    +0.000 A 
ATOM     21  C   UNL     1       2.497   6.646  19.503  0.00  0.00    +0.000 A 
ATOM     22  C   UNL     1       2.070   5.923  20.615  0.00  0.00    +0.000 A 
ATOM     23  C   UNL     1       1.444   4.686  20.448  0.00  0.00    +0.000 A 
ENDBRANCH  17  18
ENDBRANCH  15  17
ENDBRANCH  14  15
ENDBRANCH  13  14
ENDBRANCH   7  13
TORSDOF 6
ENDMDL
MODEL 5
REMARK VINA RESULT:      -7.6      2.119      4.028
REMARK  Name = 
REMARK  7 active torsions:
REMARK  status: ('A' for Active; 'I' for Inactive)
REMARK    1  A    between atoms: C_1  and  O_2
REMARK    2  A    between atoms: O_2  and  C_3
REMARK    3  A    between atoms: C_9  and  C_10
REMARK    4  A    between atoms: C_10  and  C_11
REMARK    5  A    between atoms: C_11  and  N_12
REMARK    6  A    between atoms: N_12  and  C_13
REMARK    7  A    between atoms: C_13  and  C_14
REMARK                            x       y       z     vdW  Elec       q    Type
REMARK                         _______ _______ _______ _____ _____    ______ ____
ROOT
ATOM      1  C   UNL     1       6.063   5.289  15.782  0.00  0.00    +0.000 A 
ATOM      2  C   UNL     1       6.668   6.152  16.697  0.00  0.00    +0.000 A 
ATOM      3  C   UNL     1       6.537   5.948  18.076  0.00  0.00    +0.000 A 
ATOM      4  C   UNL     1       5.779   4.854  18.507  0.00  0.00    +0.000 A 
ATOM      5  N   UNL     1       5.488   4.428  19.780  0.00  0.00    +0.000 N 
ATOM      6  C   UNL     1       4.710   3.303  19.736  0.00  0.00    +0.000 A 
ATOM      7  C   UNL     1       4.484   2.981  18.412  0.00  0.00    +0.000 A 
ATOM      8  C   UNL     1       5.154   3.973  17.625  0.00  0.00    +0.000 A 
ATOM      9  C   UNL     1       5.298   4.204  16.238  0.00  0.00    +0.000 A 
ATOM     10  H   UNL     1       5.809   4.882  20.624  0.00  0.00    +0.000 HD
ENDROOT
BRANCH   1  12
ATOM     11  C   UNL     1       6.523   4.263  13.694  0.00  0.00    +0.000 C 
ATOM     12  O   UNL     1       6.115   5.418  14.420  0.00  0.00    +0.000 OA
ENDBRANCH   1  12
BRANCH   7  13
ATOM     13  C   UNL     1       3.699   1.800  17.917  0.00  0.00    +0.000 C 
BRANCH  13  14
ATOM     14  C   UNL     1       2.494   1.508  18.825  0.00  0.00    +0.000 C 
BRANCH  14  15
ATOM     15  N   UNL     1       1.229   1.944  18.221  0.00  0.00    +0.000 NA
ATOM     16  H   UNL     1       0.628   1.137  18.054  0.00  0.00    +0.000 HD
BRANCH  15  17
ATOM     17  C   UNL     1       0.532   2.866  19.123  0.00  0.00    +0.000 C 
BRANCH  17  18
ATOM     18  C   UNL     1       1.223   4.207  19.203  0.00  0.00    +0.000 A 
ATOM     19  C   UNL     1       1.496   4.797  20.446  0.00  0.00    +0.000 A 
ATOM     20  C   UNL     1       2.157   6.024  20.519  0.00  0.00    +0.000 A 
ATOM     21  C   UNL     1       2.553   6.676  19.353  0.00  0.00    +0.000 A 
ATOM     22  C   UNL     1       2.292   6.099  18.112  0.00  0.00    +0.000 A 
ATOM     23  C   UNL     1       1.632   4.871  18.036  0.00  0.00    +0.000 A 
ENDBRANCH  17  18
ENDBRANCH  15  17
ENDBRANCH  14  15
ENDBRANCH  13  14
ENDBRANCH   7  13
TORSDOF 6
ENDMDL
MODEL 6
REMARK VINA RESULT:      -7.4      1.295      1.844
REMARK  Name = 
REMARK  7 active torsions:
REMARK  status: ('A' for Active; 'I' for Inactive)
REMARK    1  A    between atoms: C_1  and  O_2
REMARK    2  A    between atoms: O_2  and  C_3
REMARK    3  A    between atoms: C_9  and  C_10
REMARK    4  A    between atoms: C_10  and  C_11
REMARK    5  A    between atoms: C_11  and  N_12
REMARK    6  A    between atoms: N_12  and  C_13
REMARK    7  A    between atoms: C_13  and  C_14
REMARK                            x       y       z     vdW  Elec       q    Type
REMARK                         _______ _______ _______ _____ _____    ______ ____
ROOT
ATOM      1  C   UNL     1       5.934   3.381  12.400  0.00  0.00    +0.000 A 
ATOM      2  C   UNL     1       7.143   4.008  12.097  0.00  0.00    +0.000 A 
ATOM      3  C   UNL     1       7.783   4.831  13.031  0.00  0.00    +0.000 A 
ATOM      4  C   UNL     1       7.170   5.007  14.277  0.00  0.00    +0.000 A 
ATOM      5  N   UNL     1       7.569   5.751  15.361  0.00  0.00    +0.000 N 
ATOM      6  C   UNL     1       6.661   5.632  16.377  0.00  0.00    +0.000 A 
ATOM      7  C   UNL     1       5.645   4.795  15.958  0.00  0.00    +0.000 A 
ATOM      8  C   UNL     1       5.959   4.402  14.616  0.00  0.00    +0.000 A 
ATOM      9  C   UNL     1       5.333   3.581  13.652  0.00  0.00    +0.000 A 
ATOM     10  H   UNL     1       8.416   6.302  15.398  0.00  0.00    +0.000 HD
ENDROOT
BRANCH   1  12
ATOM     11  C   UNL     1       5.791   1.304  11.265  0.00  0.00    +0.000 C 
ATOM     12  O   UNL     1       5.224   2.578  11.547  0.00  0.00    +0.000 OA
ENDBRANCH   1  12
BRANCH   7  13
ATOM     13  C   UNL     1       4.459   4.374  16.777  0.00  0.00    +0.000 C 
BRANCH  13  14
ATOM     14  C   UNL     1       4.718   3.040  17.494  0.00  0.00    +0.000 C 
BRANCH  14  15
ATOM     15  N   UNL     1       5.265   3.235  18.843  0.00  0.00    +0.000 NA
ATOM     16  H   UNL     1       5.208   4.219  19.102  0.00  0.00    +0.000 HD
BRANCH  15  17
ATOM     17  C   UNL     1       4.499   2.451  19.815  0.00  0.00    +0.000 C 
BRANCH  17  18
ATOM     18  C   UNL     1       3.073   2.935  19.933  0.00  0.00    +0.000 A 
ATOM     19  C   UNL     1       2.786   4.173  20.527  0.00  0.00    +0.000 A 
ATOM     20  C   UNL     1       1.470   4.632  20.613  0.00  0.00    +0.000 A 
ATOM     21  C   UNL     1       0.427   3.860  20.106  0.00  0.00    +0.000 A 
ATOM     22  C   UNL     1       0.699   2.630  19.509  0.00  0.00    +0.000 A 
ATOM     23  C   UNL     1       2.013   2.170  19.422  0.00  0.00    +0.000 A 
ENDBRANCH  17  18
ENDBRANCH  15  17
ENDBRANCH  14  15
ENDBRANCH  13  14
ENDBRANCH   7  13
TORSDOF 6
ENDMDL
MODEL 7
REMARK VINA RESULT:      -7.3      0.906      1.165
REMARK  Name = 
REMARK  7 active torsions:
REMARK  status: ('A' for Active; 'I' for Inactive)
REMARK    1  A    between atoms: C_1  and  O_2
REMARK    2  A    between atoms: O_2  and  C_3
REMARK    3  A    between atoms: C_9  and  C_10
REMARK    4  A    between atoms: C_10  and  C_11
REMARK    5  A    between atoms: C_11  and  N_12
REMARK    6  A    between atoms: N_12  and  C_13
REMARK    7  A    between atoms: C_13  and  C_14
REMARK                            x       y       z     vdW  Elec       q    Type
REMARK                         _______ _______ _______ _____ _____    ______ ____
ROOT
ATOM      1  C   UNL     1       5.969   3.432  12.477  0.00  0.00    +0.000 A 
ATOM      2  C   UNL     1       6.999   4.291  12.092  0.00  0.00    +0.000 A 
ATOM      3  C   UNL     1       7.620   5.133  13.022  0.00  0.00    +0.000 A 
ATOM      4  C   UNL     1       7.175   5.087  14.348  0.00  0.00    +0.000 A 
ATOM      5  N   UNL     1       7.598   5.795  15.447  0.00  0.00    +0.000 N 
ATOM      6  C   UNL     1       6.880   5.426  16.551  0.00  0.00    +0.000 A 
ATOM      7  C   UNL     1       5.969   4.458  16.176  0.00  0.00    +0.000 A 
ATOM      8  C   UNL     1       6.146   4.246  14.770  0.00  0.00    +0.000 A 
ATOM      9  C   UNL     1       5.532   3.410  13.810  0.00  0.00    +0.000 A 
ATOM     10  H   UNL     1       8.336   6.485  15.435  0.00  0.00    +0.000 HD
ENDROOT
BRANCH   1  12
ATOM     11  C   UNL     1       4.060   3.084  11.114  0.00  0.00    +0.000 C 
ATOM     12  O   UNL     1       5.287   2.590  11.639  0.00  0.00    +0.000 OA
ENDBRANCH   1  12
BRANCH   7  13
ATOM     13  C   UNL     1       5.003   3.760  17.090  0.00  0.00    +0.000 C 
BRANCH  13  14
ATOM     14  C   UNL     1       3.599   4.378  16.998  0.00  0.00    +0.000 C 
BRANCH  14  15
ATOM     15  N   UNL     1       3.514   5.665  17.700  0.00  0.00    +0.000 NA
ATOM     16  H   UNL     1       2.555   6.009  17.679  0.00  0.00    +0.000 HD
BRANCH  15  17
ATOM     17  C   UNL     1       3.921   5.501  19.099  0.00  0.00    +0.000 C 
BRANCH  17  18
ATOM     18  C   UNL     1       3.018   4.545  19.842  0.00  0.00    +0.000 A 
ATOM     19  C   UNL     1       3.552   3.437  20.516  0.00  0.00    +0.000 A 
ATOM     20  C   UNL     1       2.720   2.568  21.224  0.00  0.00    +0.000 A 
ATOM     21  C   UNL     1       1.346   2.797  21.269  0.00  0.00    +0.000 A 
ATOM     22  C   UNL     1       0.803   3.898  20.608  0.00  0.00    +0.000 A 
ATOM     23  C   UNL     1       1.634   4.768  19.900  0.00  0.00    +0.000 A 
ENDBRANCH  17  18
ENDBRANCH  15  17
ENDBRANCH  14  15
ENDBRANCH  13  14
ENDBRANCH   7  13
TORSDOF 6
ENDMDL
MODEL 8
REMARK VINA RESULT:      -7.2      4.888      7.817
REMARK  Name = 
REMARK  7 active torsions:
REMARK  status: ('A' for Active; 'I' for Inactive)
REMARK    1  A    between atoms: C_1  and  O_2
REMARK    2  A    between atoms: O_2  and  C_3
REMARK    3  A    between atoms: C_9  and  C_10
REMARK    4  A    between atoms: C_10  and  C_11
REMARK    5  A    between atoms: C_11  and  N_12
REMARK    6  A    between atoms: N_12  and  C_13
REMARK    7  A    between atoms: C_13  and  C_14
REMARK                            x       y       z     vdW  Elec       q    Type
REMARK                         _______ _______ _______ _____ _____    ______ ____
ROOT
ATOM      1  C   UNL     1       2.969   5.771  18.094  0.00  0.00    +0.000 A 
ATOM      2  C   UNL     1       2.624   4.485  17.676  0.00  0.00    +0.000 A 
ATOM      3  C   UNL     1       3.557   3.660  17.036  0.00  0.00    +0.000 A 
ATOM      4  C   UNL     1       4.845   4.167  16.827  0.00  0.00    +0.000 A 
ATOM      5  N   UNL     1       5.937   3.585  16.232  0.00  0.00    +0.000 N 
ATOM      6  C   UNL     1       6.999   4.448  16.246  0.00  0.00    +0.000 A 
ATOM      7  C   UNL     1       6.602   5.618  16.863  0.00  0.00    +0.000 A 
ATOM      8  C   UNL     1       5.226   5.448  17.225  0.00  0.00    +0.000 A 
ATOM      9  C   UNL     1       4.263   6.262  17.864  0.00  0.00    +0.000 A 
ATOM     10  H   UNL     1       5.950   2.652  15.844  0.00  0.00    +0.000 HD
ENDROOT
BRANCH   1  12
ATOM     11  C   UNL     1       2.318   8.032  18.393  0.00  0.00    +0.000 C 
ATOM     12  O   UNL     1       2.122   6.657  18.705  0.00  0.00    +0.000 OA
ENDBRANCH   1  12
BRANCH   7  13
ATOM     13  C   UNL     1       7.470   6.818  17.112  0.00  0.00    +0.000 C 
BRANCH  13  14
ATOM     14  C   UNL     1       7.740   7.012  18.612  0.00  0.00    +0.000 C 
BRANCH  14  15
ATOM     15  N   UNL     1       8.792   8.005  18.861  0.00  0.00    +0.000 NA
ATOM     16  H   UNL     1       9.669   7.692  18.446  0.00  0.00    +0.000 HD
BRANCH  15  17
ATOM     17  C   UNL     1       8.424   9.290  18.260  0.00  0.00    +0.000 C 
BRANCH  17  18
ATOM     18  C   UNL     1       9.279  10.423  18.778  0.00  0.00    +0.000 A 
ATOM     19  C   UNL     1       9.375  10.673  20.155  0.00  0.00    +0.000 A 
ATOM     20  C   UNL     1      10.186  11.704  20.634  0.00  0.00    +0.000 A 
ATOM     21  C   UNL     1      10.911  12.494  19.745  0.00  0.00    +0.000 A 
ATOM     22  C   UNL     1      10.829  12.252  18.375  0.00  0.00    +0.000 A 
ATOM     23  C   UNL     1      10.019  11.222  17.893  0.00  0.00    +0.000 A 
ENDBRANCH  17  18
ENDBRANCH  15  17
ENDBRANCH  14  15
ENDBRANCH  13  14
ENDBRANCH   7  13
TORSDOF 6
ENDMDL
MODEL 9
REMARK VINA RESULT:      -7.2      5.456      8.602
REMARK  Name = 
REMARK  7 active torsions:
REMARK  status: ('A' for Active; 'I' for Inactive)
REMARK    1  A    between atoms: C_1  and  O_2
REMARK    2  A    between atoms: O_2  and  C_3
REMARK    3  A    between atoms: C_9  and  C_10
REMARK    4  A    between atoms: C_10  and  C_11
REMARK    5  A    between atoms: C_11  and  N_12
REMARK    6  A    between atoms: N_12  and  C_13
REMARK    7  A    between atoms: C_13  and  C_14
REMARK                            x       y       z     vdW  Elec       q    Type
REMARK                         _______ _______ _______ _____ _____    ______ ____
ROOT
ATOM      1  C   UNL     1       3.083   6.395  17.949  0.00  0.00    +0.000 A 
ATOM      2  C   UNL     1       2.919   5.066  18.338  0.00  0.00    +0.000 A 
ATOM      3  C   UNL     1       4.022   4.216  18.487  0.00  0.00    +0.000 A 
ATOM      4  C   UNL     1       5.293   4.742  18.232  0.00  0.00    +0.000 A 
ATOM      5  N   UNL     1       6.527   4.141  18.297  0.00  0.00    +0.000 N 
ATOM      6  C   UNL     1       7.506   5.037  17.965  0.00  0.00    +0.000 A 
ATOM      7  C   UNL     1       6.910   6.249  17.678  0.00  0.00    +0.000 A 
ATOM      8  C   UNL     1       5.498   6.064  17.837  0.00  0.00    +0.000 A 
ATOM      9  C   UNL     1       4.367   6.898  17.688  0.00  0.00    +0.000 A 
ATOM     10  H   UNL     1       6.682   3.177  18.556  0.00  0.00    +0.000 HD
ENDROOT
BRANCH   1  12
ATOM     11  C   UNL     1       2.153   8.507  18.494  0.00  0.00    +0.000 C 
ATOM     12  O   UNL     1       2.069   7.294  17.755  0.00  0.00    +0.000 OA
ENDBRANCH   1  12
BRANCH   7  13
ATOM     13  C   UNL     1       7.627   7.512  17.296  0.00  0.00    +0.000 C 
BRANCH  13  14
ATOM     14  C   UNL     1       8.370   8.120  18.496  0.00  0.00    +0.000 C 
BRANCH  14  15
ATOM     15  N   UNL     1       8.645   9.550  18.309  0.00  0.00    +0.000 NA
ATOM     16  H   UNL     1       7.773  10.053  18.148  0.00  0.00    +0.000 HD
BRANCH  15  17
ATOM     17  C   UNL     1       9.285  10.100  19.508  0.00  0.00    +0.000 C 
BRANCH  17  18
ATOM     18  C   UNL     1      10.322  11.144  19.166  0.00  0.00    +0.000 A 
ATOM     19  C   UNL     1      10.661  11.404  17.830  0.00  0.00    +0.000 A 
ATOM     20  C   UNL     1      11.600  12.387  17.513  0.00  0.00    +0.000 A 
ATOM     21  C   UNL     1      12.210  13.123  18.528  0.00  0.00    +0.000 A 
ATOM     22  C   UNL     1      11.878  12.878  19.859  0.00  0.00    +0.000 A 
ATOM     23  C   UNL     1      10.939  11.897  20.177  0.00  0.00    +0.000 A 
ENDBRANCH  17  18
ENDBRANCH  15  17
ENDBRANCH  14  15
ENDBRANCH  13  14
ENDBRANCH   7  13
TORSDOF 6
ENDMDL
