MODEL 1
REMARK VINA RESULT:      -9.0      0.000      0.000
REMARK  Name = 
REMARK  12 active torsions:
REMARK  status: ('A' for Active; 'I' for Inactive)
REMARK    1  A    between atoms: C_1  and  C_2
REMARK    2  A    between atoms: C_2  and  C_3
REMARK    3  A    between atoms: C_3  and  C_4
REMARK    4  A    between atoms: C_4  and  C_5
REMARK    5  A    between atoms: C_5  and  S_6
REMARK    6  A    between atoms: S_6  and  N_9
REMARK    7  A    between atoms: N_9  and  C_10
REMARK    8  A    between atoms: C_13  and  N_14
REMARK    9  A    between atoms: N_14  and  C_15
REMARK   10  A    between atoms: C_24  and  C_25
REMARK   11  A    between atoms: C_32  and  O_33
REMARK   12  A    between atoms: O_33  and  C_34
REMARK                            x       y       z     vdW  Elec       q    Type
REMARK                         _______ _______ _______ _____ _____    ______ ____
ROOT
ATOM      1  N   UNL     1       2.076   6.567  19.000  0.00  0.00    +0.000 N 
ATOM      2  H   UNL     1       1.617   6.130  18.185  0.00  0.00    +0.000 HD
ENDROOT
BRANCH   1   3
ATOM      3  C   UNL     1       3.289   5.837  19.286  0.00  0.00    +0.000 A 
ATOM      4  C   UNL     1       4.423   5.764  18.389  0.00  0.00    +0.000 A 
ATOM      5  C   UNL     1       4.601   6.340  17.104  0.00  0.00    +0.000 A 
ATOM      6  C   UNL     1       5.761   6.103  16.348  0.00  0.00    +0.000 A 
ATOM      7  C   UNL     1       6.809   5.369  16.886  0.00  0.00    +0.000 A 
ATOM      8  C   UNL     1       6.638   4.761  18.117  0.00  0.00    +0.000 A 
ATOM      9  C   UNL     1       5.417   4.846  18.756  0.00  0.00    +0.000 A 
ATOM     10  N   UNL     1       5.103   3.794  19.493  0.00  0.00    +0.000 NA
ATOM     11  C   UNL     1       3.808   3.684  19.846  0.00  0.00    +0.000 A 
ATOM     12  C   UNL     1       2.881   2.788  19.295  0.00  0.00    +0.000 A 
ATOM     13  C   UNL     1       1.623   2.649  19.901  0.00  0.00    +0.000 A 
ATOM     14  C   UNL     1       1.316   3.463  20.988  0.00  0.00    +0.000 A 
ATOM     15  C   UNL     1       2.092   4.602  21.157  0.00  0.00    +0.000 A 
ATOM     16  C   UNL     1       3.163   4.800  20.261  0.00  0.00    +0.000 A 
BRANCH  12  17
ATOM     17  C   UNL     1       2.940   2.537  17.814  0.00  0.00    +0.000 C 
ATOM     18  N   UNL     1       3.987   1.822  17.303  0.00  0.00    +0.000 N 
ATOM     19  O   UNL     1       2.137   3.073  17.054  0.00  0.00    +0.000 OA
ATOM     20  H   UNL     1       4.765   1.579  17.907  0.00  0.00    +0.000 HD
ATOM     21  H   UNL     1       4.204   1.989  16.328  0.00  0.00    +0.000 HD
ENDBRANCH  12  17
ENDBRANCH   1   3
BRANCH   1  25
ATOM     22  C   UNL     1       1.333  10.734  18.753  0.00  0.00    +0.000 A 
ATOM     23  C   UNL     1       1.957  10.065  17.710  0.00  0.00    +0.000 A 
ATOM     24  C   UNL     1       2.213   8.696  17.796  0.00  0.00    +0.000 A 
ATOM     25  C   UNL     1       1.818   7.957  18.925  0.00  0.00    +0.000 A 
ATOM     26  C   UNL     1       1.275   8.665  20.025  0.00  0.00    +0.000 A 
ATOM     27  C   UNL     1       1.017  10.041  19.931  0.00  0.00    +0.000 A 
BRANCH  22  28
ATOM     28  N   UNL     1       1.041  12.128  18.638  0.00  0.00    +0.000 N 
ATOM     29  H   UNL     1       1.218  12.485  17.694  0.00  0.00    +0.000 HD
BRANCH  28  30
ATOM     30  S   UNL     1      -0.541  12.601  19.067  0.00  0.00    +0.000 S 
ATOM     31  O   UNL     1      -0.667  14.029  19.011  0.00  0.00    +0.000 OA
ATOM     32  O   UNL     1      -0.844  11.854  20.280  0.00  0.00    +0.000 OA
BRANCH  30  33
ATOM     33  C   UNL     1      -1.476  11.884  17.731  0.00  0.00    +0.000 C 
BRANCH  33  34
ATOM     34  C   UNL     1      -2.221  10.621  18.178  0.00  0.00    +0.000 C 
BRANCH  34  35
ATOM     35  C   UNL     1      -2.818   9.865  16.988  0.00  0.00    +0.000 C 
BRANCH  35  37
ATOM     36  C   UNL     1      -3.026  10.042  14.476  0.00  0.00    +0.000 C 
ATOM     37  C   UNL     1      -3.068  10.794  15.796  0.00  0.00    +0.000 C 
ENDBRANCH  35  37
ENDBRANCH  34  35
ENDBRANCH  33  34
ENDBRANCH  30  33
ENDBRANCH  28  30
ENDBRANCH  22  28
BRANCH  26  38
ATOM     38  O   UNL     1       0.980   7.919  21.155  0.00  0.00    +0.000 OA
ATOM     39  C   UNL     1      -0.216   8.277  21.839  0.00  0.00    +0.000 C 
ENDBRANCH  26  38
ENDBRANCH   1  25
TORSDOF 10
ENDMDL
MODEL 2
REMARK VINA RESULT:      -8.7      2.455      3.113
REMARK  Name = 
REMARK  12 active torsions:
REMARK  status: ('A' for Active; 'I' for Inactive)
REMARK    1  A    between atoms: C_1  and  C_2
REMARK    2  A    between atoms: C_2  and  C_3
REMARK    3  A    between atoms: C_3  and  C_4
REMARK    4  A    between atoms: C_4  and  C_5
REMARK    5  A    between atoms: C_5  and  S_6
REMARK    6  A    between atoms: S_6  and  N_9
REMARK    7  A    between atoms: N_9  and  C_10
REMARK    8  A    between atoms: C_13  and  N_14
REMARK    9  A    between atoms: N_14  and  C_15
REMARK   10  A    between atoms: C_24  and  C_25
REMARK   11  A    between atoms: C_32  and  O_33
REMARK   12  A    between atoms: O_33  and  C_34
REMARK                            x       y       z     vdW  Elec       q    Type
REMARK                         _______ _______ _______ _____ _____    ______ ____
ROOT
ATOM      1  N   UNL     1       2.094   6.630  18.933  0.00  0.00    +0.000 N 
ATOM      2  H   UNL     1       1.675   6.195  18.096  0.00  0.00    +0.000 HD
ENDROOT
BRANCH   1   3
ATOM      3  C   UNL     1       3.313   5.924  19.253  0.00  0.00    +0.000 A 
ATOM      4  C   UNL     1       4.463   5.852  18.376  0.00  0.00    +0.000 A 
ATOM      5  C   UNL     1       4.654   6.407  17.083  0.00  0.00    +0.000 A 
ATOM      6  C   UNL     1       5.829   6.175  16.351  0.00  0.00    +0.000 A 
ATOM      7  C   UNL     1       6.879   5.467  16.920  0.00  0.00    +0.000 A 
ATOM      8  C   UNL     1       6.696   4.879  18.158  0.00  0.00    +0.000 A 
ATOM      9  C   UNL     1       5.464   4.956  18.776  0.00  0.00    +0.000 A 
ATOM     10  N   UNL     1       5.154   3.913  19.526  0.00  0.00    +0.000 NA
ATOM     11  C   UNL     1       3.855   3.790  19.860  0.00  0.00    +0.000 A 
ATOM     12  C   UNL     1       2.951   2.870  19.310  0.00  0.00    +0.000 A 
ATOM     13  C   UNL     1       1.685   2.723  19.899  0.00  0.00    +0.000 A 
ATOM     14  C   UNL     1       1.348   3.551  20.965  0.00  0.00    +0.000 A 
ATOM     15  C   UNL     1       2.104   4.705  21.126  0.00  0.00    +0.000 A 
ATOM     16  C   UNL     1       3.186   4.903  20.244  0.00  0.00    +0.000 A 
BRANCH  12  17
ATOM     17  C   UNL     1       3.038   2.593  17.835  0.00  0.00    +0.000 C 
ATOM     18  N   UNL     1       4.115   1.905  17.352  0.00  0.00    +0.000 N 
ATOM     19  O   UNL     1       2.227   3.087  17.055  0.00  0.00    +0.000 OA
ATOM     20  H   UNL     1       4.893   1.700  17.970  0.00  0.00    +0.000 HD
ATOM     21  H   UNL     1       4.340   2.061  16.377  0.00  0.00    +0.000 HD
ENDBRANCH  12  17
ENDBRANCH   1   3
BRANCH   1  25
ATOM     22  C   UNL     1       1.262  10.782  18.722  0.00  0.00    +0.000 A 
ATOM     23  C   UNL     1       1.944  10.146  17.695  0.00  0.00    +0.000 A 
ATOM     24  C   UNL     1       2.228   8.781  17.769  0.00  0.00    +0.000 A 
ATOM     25  C   UNL     1       1.806   8.015  18.870  0.00  0.00    +0.000 A 
ATOM     26  C   UNL     1       1.203   8.692  19.958  0.00  0.00    +0.000 A 
ATOM     27  C   UNL     1       0.915  10.063  19.875  0.00  0.00    +0.000 A 
BRANCH  22  28
ATOM     28  N   UNL     1       0.942  12.171  18.617  0.00  0.00    +0.000 N 
ATOM     29  H   UNL     1       0.120  12.423  19.174  0.00  0.00    +0.000 HD
BRANCH  28  30
ATOM     30  S   UNL     1       2.186  13.261  19.035  0.00  0.00    +0.000 S 
ATOM     31  O   UNL     1       3.291  13.127  18.131  0.00  0.00    +0.000 OA
ATOM     32  O   UNL     1       2.353  13.110  20.475  0.00  0.00    +0.000 OA
BRANCH  30  33
ATOM     33  C   UNL     1       1.378  14.820  18.735  0.00  0.00    +0.000 C 
BRANCH  33  34
ATOM     34  C   UNL     1       2.383  15.977  18.690  0.00  0.00    +0.000 C 
BRANCH  34  35
ATOM     35  C   UNL     1       1.679  17.335  18.640  0.00  0.00    +0.000 C 
BRANCH  35  37
ATOM     36  C   UNL     1       0.059  18.254  16.931  0.00  0.00    +0.000 C 
ATOM     37  C   UNL     1       1.492  17.823  17.200  0.00  0.00    +0.000 C 
ENDBRANCH  35  37
ENDBRANCH  34  35
ENDBRANCH  33  34
ENDBRANCH  30  33
ENDBRANCH  28  30
ENDBRANCH  22  28
BRANCH  26  38
ATOM     38  O   UNL     1       0.880   7.920  21.063  0.00  0.00    +0.000 OA
ATOM     39  C   UNL     1      -0.214   8.386  21.847  0.00  0.00    +0.000 C 
ENDBRANCH  26  38
ENDBRANCH   1  25
TORSDOF 10
ENDMDL
MODEL 3
REMARK VINA RESULT:      -8.5      1.782      2.488
REMARK  Name = 
REMARK  12 active torsions:
REMARK  status: ('A' for Active; 'I' for Inactive)
REMARK    1  A    between atoms: C_1  and  C_2
REMARK    2  A    between atoms: C_2  and  C_3
REMARK    3  A    between atoms: C_3  and  C_4
REMARK    4  A    between atoms: C_4  and  C_5
REMARK    5  A    between atoms: C_5  and  S_6
REMARK    6  A    between atoms: S_6  and  N_9
REMARK    7  A    between atoms: N_9  and  C_10
REMARK    8  A    between atoms: C_13  and  N_14
REMARK    9  A    between atoms: N_14  and  C_15
REMARK   10  A    between atoms: C_24  and  C_25
REMARK   11  A    between atoms: C_32  and  O_33
REMARK   12  A    between atoms: O_33  and  C_34
REMARK                            x       y       z     vdW  Elec       q    Type
REMARK                         _______ _______ _______ _____ _____    ______ ____
ROOT
ATOM      1  N   UNL     1       2.142   6.678  18.862  0.00  0.00    +0.000 N 
ATOM      2  H   UNL     1       1.757   6.312  17.977  0.00  0.00    +0.000 HD
ENDROOT
BRANCH   1   3
ATOM      3  C   UNL     1       3.322   5.916  19.196  0.00  0.00    +0.000 A 
ATOM      4  C   UNL     1       4.482   5.798  18.337  0.00  0.00    +0.000 A 
ATOM      5  C   UNL     1       4.719   6.353  17.053  0.00  0.00    +0.000 A 
ATOM      6  C   UNL     1       5.896   6.073  16.338  0.00  0.00    +0.000 A 
ATOM      7  C   UNL     1       6.903   5.315  16.918  0.00  0.00    +0.000 A 
ATOM      8  C   UNL     1       6.673   4.728  18.149  0.00  0.00    +0.000 A 
ATOM      9  C   UNL     1       5.435   4.856  18.747  0.00  0.00    +0.000 A 
ATOM     10  N   UNL     1       5.066   3.823  19.485  0.00  0.00    +0.000 NA
ATOM     11  C   UNL     1       3.758   3.756  19.796  0.00  0.00    +0.000 A 
ATOM     12  C   UNL     1       2.823   2.880  19.225  0.00  0.00    +0.000 A 
ATOM     13  C   UNL     1       1.542   2.786  19.791  0.00  0.00    +0.000 A 
ATOM     14  C   UNL     1       1.225   3.622  20.858  0.00  0.00    +0.000 A 
ATOM     15  C   UNL     1       2.028   4.740  21.040  0.00  0.00    +0.000 A 
ATOM     16  C   UNL     1       3.134   4.895  20.178  0.00  0.00    +0.000 A 
BRANCH  12  17
ATOM     17  C   UNL     1       2.922   2.610  17.749  0.00  0.00    +0.000 C 
ATOM     18  N   UNL     1       3.986   1.896  17.276  0.00  0.00    +0.000 N 
ATOM     19  O   UNL     1       2.136   3.131  16.961  0.00  0.00    +0.000 OA
ATOM     20  H   UNL     1       4.750   1.665  17.903  0.00  0.00    +0.000 HD
ATOM     21  H   UNL     1       4.228   2.051  16.305  0.00  0.00    +0.000 HD
ENDBRANCH  12  17
ENDBRANCH   1   3
BRANCH   1  25
ATOM     22  C   UNL     1       1.432  10.858  18.886  0.00  0.00    +0.000 A 
ATOM     23  C   UNL     1       2.099  10.261  17.826  0.00  0.00    +0.000 A 
ATOM     24  C   UNL     1       2.343   8.887  17.823  0.00  0.00    +0.000 A 
ATOM     25  C   UNL     1       1.895   8.072  18.877  0.00  0.00    +0.000 A 
ATOM     26  C   UNL     1       1.307   8.703  20.001  0.00  0.00    +0.000 A 
ATOM     27  C   UNL     1       1.060  10.085  19.995  0.00  0.00    +0.000 A 
BRANCH  22  28
ATOM     28  N   UNL     1       1.153  12.259  18.860  0.00  0.00    +0.000 N 
ATOM     29  H   UNL     1       1.631  12.736  18.089  0.00  0.00    +0.000 HD
BRANCH  28  30
ATOM     30  S   UNL     1      -0.494  12.695  18.776  0.00  0.00    +0.000 S 
ATOM     31  O   UNL     1      -1.261  11.635  18.188  0.00  0.00    +0.000 OA
ATOM     32  O   UNL     1      -0.502  14.043  18.223  0.00  0.00    +0.000 OA
BRANCH  30  33
ATOM     33  C   UNL     1      -0.897  12.808  20.508  0.00  0.00    +0.000 C 
BRANCH  33  34
ATOM     34  C   UNL     1      -2.347  12.390  20.779  0.00  0.00    +0.000 C 
BRANCH  34  35
ATOM     35  C   UNL     1      -3.076  13.410  21.656  0.00  0.00    +0.000 C 
BRANCH  35  37
ATOM     36  C   UNL     1      -3.886  12.696  23.940  0.00  0.00    +0.000 C 
ATOM     37  C   UNL     1      -4.209  12.762  22.456  0.00  0.00    +0.000 C 
ENDBRANCH  35  37
ENDBRANCH  34  35
ENDBRANCH  33  34
ENDBRANCH  30  33
ENDBRANCH  28  30
ENDBRANCH  22  28
BRANCH  26  38
ATOM     38  O   UNL     1       0.957   7.880  21.059  0.00  0.00    +0.000 OA
ATOM     39  C   UNL     1      -0.126   8.332  21.866  0.00  0.00    +0.000 C 
ENDBRANCH  26  38
ENDBRANCH   1  25
TORSDOF 10
ENDMDL
MODEL 4
REMARK VINA RESULT:      -8.5      1.983      2.291
REMARK  Name = 
REMARK  12 active torsions:
REMARK  status: ('A' for Active; 'I' for Inactive)
REMARK    1  A    between atoms: C_1  and  C_2
REMARK    2  A    between atoms: C_2  and  C_3
REMARK    3  A    between atoms: C_3  and  C_4
REMARK    4  A    between atoms: C_4  and  C_5
REMARK    5  A    between atoms: C_5  and  S_6
REMARK    6  A    between atoms: S_6  and  N_9
REMARK    7  A    between atoms: N_9  and  C_10
REMARK    8  A    between atoms: C_13  and  N_14
REMARK    9  A    between atoms: N_14  and  C_15
REMARK   10  A    between atoms: C_24  and  C_25
REMARK   11  A    between atoms: C_32  and  O_33
REMARK   12  A    between atoms: O_33  and  C_34
REMARK                            x       y       z     vdW  Elec       q    Type
REMARK                         _______ _______ _______ _____ _____    ______ ____
ROOT
ATOM      1  N   UNL     1       2.114   6.615  18.945  0.00  0.00    +0.000 N 
ATOM      2  H   UNL     1       1.685   6.179  18.114  0.00  0.00    +0.000 HD
ENDROOT
BRANCH   1   3
ATOM      3  C   UNL     1       3.332   5.904  19.255  0.00  0.00    +0.000 A 
ATOM      4  C   UNL     1       4.480   5.837  18.374  0.00  0.00    +0.000 A 
ATOM      5  C   UNL     1       4.668   6.404  17.087  0.00  0.00    +0.000 A 
ATOM      6  C   UNL     1       5.842   6.176  16.349  0.00  0.00    +0.000 A 
ATOM      7  C   UNL     1       6.891   5.461  16.908  0.00  0.00    +0.000 A 
ATOM      8  C   UNL     1       6.711   4.862  18.142  0.00  0.00    +0.000 A 
ATOM      9  C   UNL     1       5.480   4.936  18.763  0.00  0.00    +0.000 A 
ATOM     10  N   UNL     1       5.170   3.887  19.506  0.00  0.00    +0.000 NA
ATOM     11  C   UNL     1       3.872   3.763  19.841  0.00  0.00    +0.000 A 
ATOM     12  C   UNL     1       2.964   2.850  19.286  0.00  0.00    +0.000 A 
ATOM     13  C   UNL     1       1.700   2.700  19.876  0.00  0.00    +0.000 A 
ATOM     14  C   UNL     1       1.367   3.519  20.951  0.00  0.00    +0.000 A 
ATOM     15  C   UNL     1       2.126   4.670  21.120  0.00  0.00    +0.000 A 
ATOM     16  C   UNL     1       3.206   4.874  20.238  0.00  0.00    +0.000 A 
BRANCH  12  17
ATOM     17  C   UNL     1       3.047   2.586  17.808  0.00  0.00    +0.000 C 
ATOM     18  N   UNL     1       4.121   1.900  17.316  0.00  0.00    +0.000 N 
ATOM     19  O   UNL     1       2.236   3.089  17.035  0.00  0.00    +0.000 OA
ATOM     20  H   UNL     1       4.900   1.687  17.930  0.00  0.00    +0.000 HD
ATOM     21  H   UNL     1       4.344   2.064  16.342  0.00  0.00    +0.000 HD
ENDBRANCH  12  17
ENDBRANCH   1   3
BRANCH   1  25
ATOM     22  C   UNL     1       1.302  10.771  18.731  0.00  0.00    +0.000 A 
ATOM     23  C   UNL     1       2.040  10.143  17.737  0.00  0.00    +0.000 A 
ATOM     24  C   UNL     1       2.317   8.778  17.813  0.00  0.00    +0.000 A 
ATOM     25  C   UNL     1       1.833   8.001  18.880  0.00  0.00    +0.000 A 
ATOM     26  C   UNL     1       1.170   8.668  19.939  0.00  0.00    +0.000 A 
ATOM     27  C   UNL     1       0.890  10.041  19.855  0.00  0.00    +0.000 A 
BRANCH  22  28
ATOM     28  N   UNL     1       0.991  12.161  18.622  0.00  0.00    +0.000 N 
ATOM     29  H   UNL     1       0.049  12.376  18.963  0.00  0.00    +0.000 HD
BRANCH  28  30
ATOM     30  S   UNL     1       2.065  13.233  19.402  0.00  0.00    +0.000 S 
ATOM     31  O   UNL     1       3.247  13.418  18.611  0.00  0.00    +0.000 OA
ATOM     32  O   UNL     1       2.133  12.765  20.780  0.00  0.00    +0.000 OA
BRANCH  30  33
ATOM     33  C   UNL     1       1.111  14.737  19.378  0.00  0.00    +0.000 C 
BRANCH  33  34
ATOM     34  C   UNL     1      -0.378  14.457  19.139  0.00  0.00    +0.000 C 
BRANCH  34  35
ATOM     35  C   UNL     1      -1.167  14.444  20.450  0.00  0.00    +0.000 C 
BRANCH  35  37
ATOM     36  C   UNL     1      -3.272  13.054  20.597  0.00  0.00    +0.000 C 
ATOM     37  C   UNL     1      -1.759  13.062  20.740  0.00  0.00    +0.000 C 
ENDBRANCH  35  37
ENDBRANCH  34  35
ENDBRANCH  33  34
ENDBRANCH  30  33
ENDBRANCH  28  30
ENDBRANCH  22  28
BRANCH  26  38
ATOM     38  O   UNL     1       0.784   7.886  21.016  0.00  0.00    +0.000 OA
ATOM     39  C   UNL     1      -0.097   8.505  21.948  0.00  0.00    +0.000 C 
ENDBRANCH  26  38
ENDBRANCH   1  25
TORSDOF 10
ENDMDL
MODEL 5
REMARK VINA RESULT:      -8.5      0.823      1.087
REMARK  Name = 
REMARK  12 active torsions:
REMARK  status: ('A' for Active; 'I' for Inactive)
REMARK    1  A    between atoms: C_1  and  C_2
REMARK    2  A    between atoms: C_2  and  C_3
REMARK    3  A    between atoms: C_3  and  C_4
REMARK    4  A    between atoms: C_4  and  C_5
REMARK    5  A    between atoms: C_5  and  S_6
REMARK    6  A    between atoms: S_6  and  N_9
REMARK    7  A    between atoms: N_9  and  C_10
REMARK    8  A    between atoms: C_13  and  N_14
REMARK    9  A    between atoms: N_14  and  C_15
REMARK   10  A    between atoms: C_24  and  C_25
REMARK   11  A    between atoms: C_32  and  O_33
REMARK   12  A    between atoms: O_33  and  C_34
REMARK                            x       y       z     vdW  Elec       q    Type
REMARK                         _______ _______ _______ _____ _____    ______ ____
ROOT
ATOM      1  N   UNL     1       2.167   6.509  18.985  0.00  0.00    +0.000 N 
ATOM      2  H   UNL     1       1.704   6.073  18.172  0.00  0.00    +0.000 HD
ENDROOT
BRANCH   1   3
ATOM      3  C   UNL     1       3.373   5.769  19.275  0.00  0.00    +0.000 A 
ATOM      4  C   UNL     1       4.504   5.676  18.375  0.00  0.00    +0.000 A 
ATOM      5  C   UNL     1       4.684   6.239  17.084  0.00  0.00    +0.000 A 
ATOM      6  C   UNL     1       5.839   5.984  16.327  0.00  0.00    +0.000 A 
ATOM      7  C   UNL     1       6.881   5.244  16.869  0.00  0.00    +0.000 A 
ATOM      8  C   UNL     1       6.706   4.649  18.105  0.00  0.00    +0.000 A 
ATOM      9  C   UNL     1       5.488   4.751  18.747  0.00  0.00    +0.000 A 
ATOM     10  N   UNL     1       5.166   3.709  19.494  0.00  0.00    +0.000 NA
ATOM     11  C   UNL     1       3.871   3.616  19.851  0.00  0.00    +0.000 A 
ATOM     12  C   UNL     1       2.933   2.724  19.310  0.00  0.00    +0.000 A 
ATOM     13  C   UNL     1       1.676   2.604  19.922  0.00  0.00    +0.000 A 
ATOM     14  C   UNL     1       1.380   3.430  21.002  0.00  0.00    +0.000 A 
ATOM     15  C   UNL     1       2.168   4.563  21.159  0.00  0.00    +0.000 A 
ATOM     16  C   UNL     1       3.239   4.742  20.259  0.00  0.00    +0.000 A 
BRANCH  12  17
ATOM     17  C   UNL     1       2.985   2.461  17.832  0.00  0.00    +0.000 C 
ATOM     18  N   UNL     1       4.034   1.749  17.321  0.00  0.00    +0.000 N 
ATOM     19  O   UNL     1       2.173   2.983  17.072  0.00  0.00    +0.000 OA
ATOM     20  H   UNL     1       4.818   1.518  17.922  0.00  0.00    +0.000 HD
ATOM     21  H   UNL     1       4.244   1.908  16.343  0.00  0.00    +0.000 HD
ENDBRANCH  12  17
ENDBRANCH   1   3
BRANCH   1  25
ATOM     22  C   UNL     1       1.462  10.682  18.725  0.00  0.00    +0.000 A 
ATOM     23  C   UNL     1       2.090  10.006  17.688  0.00  0.00    +0.000 A 
ATOM     24  C   UNL     1       2.333   8.635  17.779  0.00  0.00    +0.000 A 
ATOM     25  C   UNL     1       1.922   7.901  18.906  0.00  0.00    +0.000 A 
ATOM     26  C   UNL     1       1.375   8.616  20.000  0.00  0.00    +0.000 A 
ATOM     27  C   UNL     1       1.129   9.994  19.901  0.00  0.00    +0.000 A 
BRANCH  22  28
ATOM     28  N   UNL     1       1.184  12.078  18.604  0.00  0.00    +0.000 N 
ATOM     29  H   UNL     1       1.448  12.449  17.686  0.00  0.00    +0.000 HD
BRANCH  28  30
ATOM     30  S   UNL     1      -0.431  12.549  18.891  0.00  0.00    +0.000 S 
ATOM     31  O   UNL     1      -0.726  13.769  18.198  0.00  0.00    +0.000 OA
ATOM     32  O   UNL     1      -0.611  12.426  20.332  0.00  0.00    +0.000 OA
BRANCH  30  33
ATOM     33  C   UNL     1      -1.311  11.211  18.111  0.00  0.00    +0.000 C 
BRANCH  33  34
ATOM     34  C   UNL     1      -2.747  11.612  17.753  0.00  0.00    +0.000 C 
BRANCH  34  35
ATOM     35  C   UNL     1      -3.673  10.396  17.682  0.00  0.00    +0.000 C 
BRANCH  35  37
ATOM     36  C   UNL     1      -5.219  12.089  18.746  0.00  0.00    +0.000 C 
ATOM     37  C   UNL     1      -5.125  10.771  17.995  0.00  0.00    +0.000 C 
ENDBRANCH  35  37
ENDBRANCH  34  35
ENDBRANCH  33  34
ENDBRANCH  30  33
ENDBRANCH  28  30
ENDBRANCH  22  28
BRANCH  26  38
ATOM     38  O   UNL     1       1.062   7.875  21.128  0.00  0.00    +0.000 OA
ATOM     39  C   UNL     1      -0.095   8.293  21.845  0.00  0.00    +0.000 C 
ENDBRANCH  26  38
ENDBRANCH   1  25
TORSDOF 10
ENDMDL
MODEL 6
REMARK VINA RESULT:      -8.5      2.428      3.491
REMARK  Name = 
REMARK  12 active torsions:
REMARK  status: ('A' for Active; 'I' for Inactive)
REMARK    1  A    between atoms: C_1  and  C_2
REMARK    2  A    between atoms: C_2  and  C_3
REMARK    3  A    between atoms: C_3  and  C_4
REMARK    4  A    between atoms: C_4  and  C_5
REMARK    5  A    between atoms: C_5  and  S_6
REMARK    6  A    between atoms: S_6  and  N_9
REMARK    7  A    between atoms: N_9  and  C_10
REMARK    8  A    between atoms: C_13  and  N_14
REMARK    9  A    between atoms: N_14  and  C_15
REMARK   10  A    between atoms: C_24  and  C_25
REMARK   11  A    between atoms: C_32  and  O_33
REMARK   12  A    between atoms: O_33  and  C_34
REMARK                            x       y       z     vdW  Elec       q    Type
REMARK                         _______ _______ _______ _____ _____    ______ ____
ROOT
ATOM      1  N   UNL     1       2.097   6.649  18.934  0.00  0.00    +0.000 N 
ATOM      2  H   UNL     1       1.672   6.216  18.099  0.00  0.00    +0.000 HD
ENDROOT
BRANCH   1   3
ATOM      3  C   UNL     1       3.313   5.935  19.249  0.00  0.00    +0.000 A 
ATOM      4  C   UNL     1       4.462   5.863  18.371  0.00  0.00    +0.000 A 
ATOM      5  C   UNL     1       4.655   6.425  17.082  0.00  0.00    +0.000 A 
ATOM      6  C   UNL     1       5.829   6.192  16.348  0.00  0.00    +0.000 A 
ATOM      7  C   UNL     1       6.876   5.475  16.911  0.00  0.00    +0.000 A 
ATOM      8  C   UNL     1       6.690   4.880  18.146  0.00  0.00    +0.000 A 
ATOM      9  C   UNL     1       5.459   4.959  18.765  0.00  0.00    +0.000 A 
ATOM     10  N   UNL     1       5.144   3.914  19.509  0.00  0.00    +0.000 NA
ATOM     11  C   UNL     1       3.845   3.795  19.843  0.00  0.00    +0.000 A 
ATOM     12  C   UNL     1       2.936   2.882  19.288  0.00  0.00    +0.000 A 
ATOM     13  C   UNL     1       1.670   2.737  19.876  0.00  0.00    +0.000 A 
ATOM     14  C   UNL     1       1.337   3.561  20.947  0.00  0.00    +0.000 A 
ATOM     15  C   UNL     1       2.098   4.710  21.115  0.00  0.00    +0.000 A 
ATOM     16  C   UNL     1       3.182   4.909  20.234  0.00  0.00    +0.000 A 
BRANCH  12  17
ATOM     17  C   UNL     1       3.021   2.614  17.811  0.00  0.00    +0.000 C 
ATOM     18  N   UNL     1       4.093   1.920  17.324  0.00  0.00    +0.000 N 
ATOM     19  O   UNL     1       2.215   3.120  17.034  0.00  0.00    +0.000 OA
ATOM     20  H   UNL     1       4.868   1.705  17.940  0.00  0.00    +0.000 HD
ATOM     21  H   UNL     1       4.319   2.080  16.349  0.00  0.00    +0.000 HD
ENDBRANCH  12  17
ENDBRANCH   1   3
BRANCH   1  25
ATOM     22  C   UNL     1       1.291  10.806  18.724  0.00  0.00    +0.000 A 
ATOM     23  C   UNL     1       1.963  10.164  17.693  0.00  0.00    +0.000 A 
ATOM     24  C   UNL     1       2.239   8.798  17.768  0.00  0.00    +0.000 A 
ATOM     25  C   UNL     1       1.818   8.035  18.871  0.00  0.00    +0.000 A 
ATOM     26  C   UNL     1       1.225   8.717  19.962  0.00  0.00    +0.000 A 
ATOM     27  C   UNL     1       0.946  10.090  19.879  0.00  0.00    +0.000 A 
BRANCH  22  28
ATOM     28  N   UNL     1       0.980  12.197  18.619  0.00  0.00    +0.000 N 
ATOM     29  H   UNL     1       0.146  12.450  19.159  0.00  0.00    +0.000 HD
BRANCH  28  30
ATOM     30  S   UNL     1       2.219  13.279  19.071  0.00  0.00    +0.000 S 
ATOM     31  O   UNL     1       3.313  13.197  18.148  0.00  0.00    +0.000 OA
ATOM     32  O   UNL     1       2.407  13.064  20.500  0.00  0.00    +0.000 OA
BRANCH  30  33
ATOM     33  C   UNL     1       1.392  14.842  18.853  0.00  0.00    +0.000 C 
BRANCH  33  34
ATOM     34  C   UNL     1       2.355  15.925  18.353  0.00  0.00    +0.000 C 
BRANCH  34  35
ATOM     35  C   UNL     1       3.211  16.489  19.489  0.00  0.00    +0.000 C 
BRANCH  35  37
ATOM     36  C   UNL     1       5.508  15.480  19.783  0.00  0.00    +0.000 C 
ATOM     37  C   UNL     1       4.690  16.563  19.101  0.00  0.00    +0.000 C 
ENDBRANCH  35  37
ENDBRANCH  34  35
ENDBRANCH  33  34
ENDBRANCH  30  33
ENDBRANCH  28  30
ENDBRANCH  22  28
BRANCH  26  38
ATOM     38  O   UNL     1       0.902   7.948  21.069  0.00  0.00    +0.000 OA
ATOM     39  C   UNL     1      -0.225   8.386  21.821  0.00  0.00    +0.000 C 
ENDBRANCH  26  38
ENDBRANCH   1  25
TORSDOF 10
ENDMDL
MODEL 7
REMARK VINA RESULT:      -8.5      1.916      2.647
REMARK  Name = 
REMARK  12 active torsions:
REMARK  status: ('A' for Active; 'I' for Inactive)
REMARK    1  A    between atoms: C_1  and  C_2
REMARK    2  A    between atoms: C_2  and  C_3
REMARK    3  A    between atoms: C_3  and  C_4
REMARK    4  A    between atoms: C_4  and  C_5
REMARK    5  A    between atoms: C_5  and  S_6
REMARK    6  A    between atoms: S_6  and  N_9
REMARK    7  A    between atoms: N_9  and  C_10
REMARK    8  A    between atoms: C_13  and  N_14
REMARK    9  A    between atoms: N_14  and  C_15
REMARK   10  A    between atoms: C_24  and  C_25
REMARK   11  A    between atoms: C_32  and  O_33
REMARK   12  A    between atoms: O_33  and  C_34
REMARK                            x       y       z     vdW  Elec       q    Type
REMARK                         _______ _______ _______ _____ _____    ______ ____
ROOT
ATOM      1  N   UNL     1       2.158   6.705  18.861  0.00  0.00    +0.000 N 
ATOM      2  H   UNL     1       1.788   6.342  17.967  0.00  0.00    +0.000 HD
ENDROOT
BRANCH   1   3
ATOM      3  C   UNL     1       3.349   5.961  19.197  0.00  0.00    +0.000 A 
ATOM      4  C   UNL     1       4.509   5.854  18.335  0.00  0.00    +0.000 A 
ATOM      5  C   UNL     1       4.734   6.403  17.046  0.00  0.00    +0.000 A 
ATOM      6  C   UNL     1       5.912   6.135  16.330  0.00  0.00    +0.000 A 
ATOM      7  C   UNL     1       6.932   5.395  16.913  0.00  0.00    +0.000 A 
ATOM      8  C   UNL     1       6.714   4.812  18.148  0.00  0.00    +0.000 A 
ATOM      9  C   UNL     1       5.476   4.927  18.748  0.00  0.00    +0.000 A 
ATOM     10  N   UNL     1       5.123   3.894  19.494  0.00  0.00    +0.000 NA
ATOM     11  C   UNL     1       3.817   3.811  19.810  0.00  0.00    +0.000 A 
ATOM     12  C   UNL     1       2.892   2.919  19.247  0.00  0.00    +0.000 A 
ATOM     13  C   UNL     1       1.614   2.811  19.818  0.00  0.00    +0.000 A 
ATOM     14  C   UNL     1       1.288   3.650  20.880  0.00  0.00    +0.000 A 
ATOM     15  C   UNL     1       2.077   4.780  21.052  0.00  0.00    +0.000 A 
ATOM     16  C   UNL     1       3.178   4.945  20.186  0.00  0.00    +0.000 A 
BRANCH  12  17
ATOM     17  C   UNL     1       2.991   2.641  17.773  0.00  0.00    +0.000 C 
ATOM     18  N   UNL     1       4.061   1.933  17.303  0.00  0.00    +0.000 N 
ATOM     19  O   UNL     1       2.199   3.149  16.984  0.00  0.00    +0.000 OA
ATOM     20  H   UNL     1       4.828   1.714  17.929  0.00  0.00    +0.000 HD
ATOM     21  H   UNL     1       4.300   2.084  16.330  0.00  0.00    +0.000 HD
ENDBRANCH  12  17
ENDBRANCH   1   3
BRANCH   1  25
ATOM     22  C   UNL     1       1.368  10.870  18.930  0.00  0.00    +0.000 A 
ATOM     23  C   UNL     1       2.078  10.303  17.882  0.00  0.00    +0.000 A 
ATOM     24  C   UNL     1       2.349   8.934  17.864  0.00  0.00    +0.000 A 
ATOM     25  C   UNL     1       1.884   8.093  18.891  0.00  0.00    +0.000 A 
ATOM     26  C   UNL     1       1.249   8.695  20.005  0.00  0.00    +0.000 A 
ATOM     27  C   UNL     1       0.976  10.071  20.015  0.00  0.00    +0.000 A 
BRANCH  22  28
ATOM     28  N   UNL     1       1.063  12.266  18.918  0.00  0.00    +0.000 N 
ATOM     29  H   UNL     1       1.422  12.734  18.079  0.00  0.00    +0.000 HD
BRANCH  28  30
ATOM     30  S   UNL     1      -0.588  12.674  19.055  0.00  0.00    +0.000 S 
ATOM     31  O   UNL     1      -1.024  12.539  20.414  0.00  0.00    +0.000 OA
ATOM     32  O   UNL     1      -1.245  11.963  17.967  0.00  0.00    +0.000 OA
BRANCH  30  33
ATOM     33  C   UNL     1      -0.539  14.404  18.632  0.00  0.00    +0.000 C 
BRANCH  33  34
ATOM     34  C   UNL     1       0.856  15.001  18.857  0.00  0.00    +0.000 C 
BRANCH  34  35
ATOM     35  C   UNL     1       0.778  16.448  19.349  0.00  0.00    +0.000 C 
BRANCH  35  37
ATOM     36  C   UNL     1       0.067  17.844  17.366  0.00  0.00    +0.000 C 
ATOM     37  C   UNL     1      -0.366  17.214  18.680  0.00  0.00    +0.000 C 
ENDBRANCH  35  37
ENDBRANCH  34  35
ENDBRANCH  33  34
ENDBRANCH  30  33
ENDBRANCH  28  30
ENDBRANCH  22  28
BRANCH  26  38
ATOM     38  O   UNL     1       0.883   7.847  21.039  0.00  0.00    +0.000 OA
ATOM     39  C   UNL     1      -0.080   8.363  21.952  0.00  0.00    +0.000 C 
ENDBRANCH  26  38
ENDBRANCH   1  25
TORSDOF 10
ENDMDL
MODEL 8
REMARK VINA RESULT:      -8.5      2.913      4.755
REMARK  Name = 
REMARK  12 active torsions:
REMARK  status: ('A' for Active; 'I' for Inactive)
REMARK    1  A    between atoms: C_1  and  C_2
REMARK    2  A    between atoms: C_2  and  C_3
REMARK    3  A    between atoms: C_3  and  C_4
REMARK    4  A    between atoms: C_4  and  C_5
REMARK    5  A    between atoms: C_5  and  S_6
REMARK    6  A    between atoms: S_6  and  N_9
REMARK    7  A    between atoms: N_9  and  C_10
REMARK    8  A    between atoms: C_13  and  N_14
REMARK    9  A    between atoms: N_14  and  C_15
REMARK   10  A    between atoms: C_24  and  C_25
REMARK   11  A    between atoms: C_32  and  O_33
REMARK   12  A    between atoms: O_33  and  C_34
REMARK                            x       y       z     vdW  Elec       q    Type
REMARK                         _______ _______ _______ _____ _____    ______ ____
ROOT
ATOM      1  N   UNL     1       2.593   7.376  19.719  0.00  0.00    +0.000 N 
ATOM      2  H   UNL     1       3.277   7.159  20.461  0.00  0.00    +0.000 HD
ENDROOT
BRANCH   1   3
ATOM      3  C   UNL     1       2.415   6.197  18.903  0.00  0.00    +0.000 A 
ATOM      4  C   UNL     1       1.982   4.913  19.416  0.00  0.00    +0.000 A 
ATOM      5  C   UNL     1       1.660   4.529  20.743  0.00  0.00    +0.000 A 
ATOM      6  C   UNL     1       1.315   3.205  21.061  0.00  0.00    +0.000 A 
ATOM      7  C   UNL     1       1.190   2.255  20.057  0.00  0.00    +0.000 A 
ATOM      8  C   UNL     1       1.543   2.597  18.764  0.00  0.00    +0.000 A 
ATOM      9  C   UNL     1       2.066   3.849  18.508  0.00  0.00    +0.000 A 
ATOM     10  N   UNL     1       2.945   3.891  17.522  0.00  0.00    +0.000 NA
ATOM     11  C   UNL     1       3.718   4.992  17.465  0.00  0.00    +0.000 A 
ATOM     12  C   UNL     1       5.069   5.066  17.834  0.00  0.00    +0.000 A 
ATOM     13  C   UNL     1       5.796   6.228  17.531  0.00  0.00    +0.000 A 
ATOM     14  C   UNL     1       5.127   7.294  16.938  0.00  0.00    +0.000 A 
ATOM     15  C   UNL     1       3.742   7.300  17.038  0.00  0.00    +0.000 A 
ATOM     16  C   UNL     1       3.130   6.196  17.666  0.00  0.00    +0.000 A 
BRANCH  12  17
ATOM     17  C   UNL     1       5.508   4.302  19.052  0.00  0.00    +0.000 C 
ATOM     18  N   UNL     1       5.150   2.989  19.175  0.00  0.00    +0.000 N 
ATOM     19  O   UNL     1       6.067   4.875  19.985  0.00  0.00    +0.000 OA
ATOM     20  H   UNL     1       4.497   2.587  18.513  0.00  0.00    +0.000 HD
ATOM     21  H   UNL     1       5.120   2.625  20.120  0.00  0.00    +0.000 HD
ENDBRANCH  12  17
ENDBRANCH   1   3
BRANCH   1  25
ATOM     22  C   UNL     1      -0.233  10.055  21.395  0.00  0.00    +0.000 A 
ATOM     23  C   UNL     1       0.251   8.986  22.135  0.00  0.00    +0.000 A 
ATOM     24  C   UNL     1       1.172   8.097  21.579  0.00  0.00    +0.000 A 
ATOM     25  C   UNL     1       1.653   8.280  20.271  0.00  0.00    +0.000 A 
ATOM     26  C   UNL     1       1.078   9.312  19.490  0.00  0.00    +0.000 A 
ATOM     27  C   UNL     1       0.155  10.205  20.056  0.00  0.00    +0.000 A 
BRANCH  22  28
ATOM     28  N   UNL     1      -1.146  10.982  21.987  0.00  0.00    +0.000 N 
ATOM     29  H   UNL     1      -1.234  10.847  22.999  0.00  0.00    +0.000 HD
BRANCH  28  30
ATOM     30  S   UNL     1      -0.812  12.634  21.727  0.00  0.00    +0.000 S 
ATOM     31  O   UNL     1      -1.445  13.087  20.522  0.00  0.00    +0.000 OA
ATOM     32  O   UNL     1       0.624  12.767  21.933  0.00  0.00    +0.000 OA
BRANCH  30  33
ATOM     33  C   UNL     1      -1.639  13.365  23.125  0.00  0.00    +0.000 C 
BRANCH  33  34
ATOM     34  C   UNL     1      -2.903  12.586  23.505  0.00  0.00    +0.000 C 
BRANCH  34  35
ATOM     35  C   UNL     1      -4.138  13.121  22.776  0.00  0.00    +0.000 C 
BRANCH  35  37
ATOM     36  C   UNL     1      -6.260  12.684  24.076  0.00  0.00    +0.000 C 
ATOM     37  C   UNL     1      -5.169  13.692  23.753  0.00  0.00    +0.000 C 
ENDBRANCH  35  37
ENDBRANCH  34  35
ENDBRANCH  33  34
ENDBRANCH  30  33
ENDBRANCH  28  30
ENDBRANCH  22  28
BRANCH  26  38
ATOM     38  O   UNL     1       1.511   9.408  18.177  0.00  0.00    +0.000 OA
ATOM     39  C   UNL     1       2.140  10.634  17.819  0.00  0.00    +0.000 C 
ENDBRANCH  26  38
ENDBRANCH   1  25
TORSDOF 10
ENDMDL
MODEL 9
REMARK VINA RESULT:      -8.4      1.790      2.751
REMARK  Name = 
REMARK  12 active torsions:
REMARK  status: ('A' for Active; 'I' for Inactive)
REMARK    1  A    between atoms: C_1  and  C_2
REMARK    2  A    between atoms: C_2  and  C_3
REMARK    3  A    between atoms: C_3  and  C_4
REMARK    4  A    between atoms: C_4  and  C_5
REMARK    5  A    between atoms: C_5  and  S_6
REMARK    6  A    between atoms: S_6  and  N_9
REMARK    7  A    between atoms: N_9  and  C_10
REMARK    8  A    between atoms: C_13  and  N_14
REMARK    9  A    between atoms: N_14  and  C_15
REMARK   10  A    between atoms: C_24  and  C_25
REMARK   11  A    between atoms: C_32  and  O_33
REMARK   12  A    between atoms: O_33  and  C_34
REMARK                            x       y       z     vdW  Elec       q    Type
REMARK                         _______ _______ _______ _____ _____    ______ ____
ROOT
ATOM      1  N   UNL     1       2.107   6.540  18.989  0.00  0.00    +0.000 N 
ATOM      2  H   UNL     1       1.658   6.101  18.170  0.00  0.00    +0.000 HD
ENDROOT
BRANCH   1   3
ATOM      3  C   UNL     1       3.316   5.810  19.292  0.00  0.00    +0.000 A 
ATOM      4  C   UNL     1       4.464   5.740  18.411  0.00  0.00    +0.000 A 
ATOM      5  C   UNL     1       4.660   6.320  17.131  0.00  0.00    +0.000 A 
ATOM      6  C   UNL     1       5.832   6.086  16.392  0.00  0.00    +0.000 A 
ATOM      7  C   UNL     1       6.872   5.352  16.943  0.00  0.00    +0.000 A 
ATOM      8  C   UNL     1       6.683   4.740  18.169  0.00  0.00    +0.000 A 
ATOM      9  C   UNL     1       5.453   4.822  18.790  0.00  0.00    +0.000 A 
ATOM     10  N   UNL     1       5.129   3.768  19.520  0.00  0.00    +0.000 NA
ATOM     11  C   UNL     1       3.829   3.656  19.853  0.00  0.00    +0.000 A 
ATOM     12  C   UNL     1       2.911   2.761  19.286  0.00  0.00    +0.000 A 
ATOM     13  C   UNL     1       1.644   2.619  19.873  0.00  0.00    +0.000 A 
ATOM     14  C   UNL     1       1.320   3.430  20.957  0.00  0.00    +0.000 A 
ATOM     15  C   UNL     1       2.093   4.569  21.141  0.00  0.00    +0.000 A 
ATOM     16  C   UNL     1       3.177   4.771  20.262  0.00  0.00    +0.000 A 
BRANCH  12  17
ATOM     17  C   UNL     1       2.992   2.514  17.805  0.00  0.00    +0.000 C 
ATOM     18  N   UNL     1       4.059   1.823  17.306  0.00  0.00    +0.000 N 
ATOM     19  O   UNL     1       2.186   3.034  17.037  0.00  0.00    +0.000 OA
ATOM     20  H   UNL     1       4.835   1.595  17.917  0.00  0.00    +0.000 HD
ATOM     21  H   UNL     1       4.284   1.996  16.333  0.00  0.00    +0.000 HD
ENDBRANCH  12  17
ENDBRANCH   1   3
BRANCH   1  25
ATOM     22  C   UNL     1       1.369  10.707  18.727  0.00  0.00    +0.000 A 
ATOM     23  C   UNL     1       2.022  10.040  17.701  0.00  0.00    +0.000 A 
ATOM     24  C   UNL     1       2.276   8.670  17.792  0.00  0.00    +0.000 A 
ATOM     25  C   UNL     1       1.851   7.930  18.909  0.00  0.00    +0.000 A 
ATOM     26  C   UNL     1       1.277   8.637  19.994  0.00  0.00    +0.000 A 
ATOM     27  C   UNL     1       1.020  10.013  19.895  0.00  0.00    +0.000 A 
BRANCH  22  28
ATOM     28  N   UNL     1       1.080  12.101  18.605  0.00  0.00    +0.000 N 
ATOM     29  H   UNL     1       1.310  12.466  17.676  0.00  0.00    +0.000 HD
BRANCH  28  30
ATOM     30  S   UNL     1      -0.526  12.566  18.944  0.00  0.00    +0.000 S 
ATOM     31  O   UNL     1      -0.867  12.233  20.296  0.00  0.00    +0.000 OA
ATOM     32  O   UNL     1      -1.308  12.078  17.815  0.00  0.00    +0.000 OA
BRANCH  30  33
ATOM     33  C   UNL     1      -0.398  14.337  18.798  0.00  0.00    +0.000 C 
BRANCH  33  34
ATOM     34  C   UNL     1       0.830  14.877  19.541  0.00  0.00    +0.000 C 
BRANCH  34  35
ATOM     35  C   UNL     1       1.822  15.542  18.585  0.00  0.00    +0.000 C 
BRANCH  35  37
ATOM     36  C   UNL     1       4.197  15.523  17.722  0.00  0.00    +0.000 C 
ATOM     37  C   UNL     1       3.248  15.024  18.798  0.00  0.00    +0.000 C 
ENDBRANCH  35  37
ENDBRANCH  34  35
ENDBRANCH  33  34
ENDBRANCH  30  33
ENDBRANCH  28  30
ENDBRANCH  22  28
BRANCH  26  38
ATOM     38  O   UNL     1       0.950   7.889  21.115  0.00  0.00    +0.000 OA
ATOM     39  C   UNL     1      -0.201   8.319  21.833  0.00  0.00    +0.000 C 
ENDBRANCH  26  38
ENDBRANCH   1  25
TORSDOF 10
ENDMDL
