MODEL 1
REMARK VINA RESULT:      -7.6      0.000      0.000
REMARK  Name = 
REMARK  6 active torsions:
REMARK  status: ('A' for Active; 'I' for Inactive)
REMARK    1  A    between atoms: C_1  and  C_2
REMARK    2  A    between atoms: N_4  and  C_5
REMARK    3  A    between atoms: C_7  and  C_8
REMARK    4  A    between atoms: C_8  and  O_9
REMARK    5  A    between atoms: C_10  and  C_11
REMARK    6  A    between atoms: C_11  and  N_12
REMARK                            x       y       z     vdW  Elec       q    Type
REMARK                         _______ _______ _______ _____ _____    ______ ____
ROOT
ATOM      1  C   UNL     1       3.529   4.251  18.870  0.00  0.00    +0.000 C 
ATOM      2  O   UNL     1       4.936   4.299  19.220  0.00  0.00    +0.000 OA
ATOM      3  C   UNL     1       5.713   4.051  18.030  0.00  0.00    +0.000 C 
ATOM      4  C   UNL     1       4.804   4.392  16.855  0.00  0.00    +0.000 C 
ATOM      5  C   UNL     1       3.472   3.899  17.375  0.00  0.00    +0.000 C 
ATOM      6  F   UNL     1       3.440   2.535  17.261  0.00  0.00    +0.000 F 
ENDROOT
BRANCH   1  10
ATOM      7  C   UNL     1       2.311   8.972  17.835  0.00  0.00    +0.000 C 
ATOM      8  C   UNL     1       2.323   7.781  18.734  0.00  0.00    +0.000 A 
ATOM      9  C   UNL     1       2.901   6.616  18.419  0.00  0.00    +0.000 A 
ATOM     10  N   UNL     1       2.873   5.511  19.247  0.00  0.00    +0.000 N 
ATOM     11  C   UNL     1       2.324   5.588  20.521  0.00  0.00    +0.000 A 
ATOM     12  O   UNL     1       2.331   4.658  21.324  0.00  0.00    +0.000 OA
ATOM     13  N   UNL     1       1.751   6.786  20.853  0.00  0.00    +0.000 N 
ATOM     14  C   UNL     1       1.670   7.893  20.057  0.00  0.00    +0.000 A 
ATOM     15  O   UNL     1       1.107   8.920  20.417  0.00  0.00    +0.000 OA
ATOM     16  H   UNL     1       1.335   6.853  21.768  0.00  0.00    +0.000 HD
ENDBRANCH   1  10
BRANCH   3  17
ATOM     17  C   UNL     1       7.006   4.869  18.091  0.00  0.00    +0.000 C 
BRANCH  17  18
ATOM     18  O   UNL     1       8.060   4.232  17.374  0.00  0.00    +0.000 OA
ATOM     19  H   UNL     1       7.879   4.382  16.431  0.00  0.00    +0.000 HD
ENDBRANCH  17  18
ENDBRANCH   3  17
BRANCH   4  20
ATOM     20  C   UNL     1       5.242   3.740  15.549  0.00  0.00    +0.000 C 
BRANCH  20  21
ATOM     21  N   UNL     1       5.556   4.790  14.572  0.00  0.00    +0.000 NA
ATOM     22  N   UNL     1       6.740   5.178  14.561  0.00  0.00    +0.000 NA
ATOM     23  N   UNL     1       7.822   5.533  14.562  0.00  0.00    +0.000 NA
ENDBRANCH  20  21
ENDBRANCH   4  20
TORSDOF 5
ENDMDL
MODEL 2
REMARK VINA RESULT:      -7.4      1.091      1.181
REMARK  Name = 
REMARK  6 active torsions:
REMARK  status: ('A' for Active; 'I' for Inactive)
REMARK    1  A    between atoms: C_1  and  C_2
REMARK    2  A    between atoms: N_4  and  C_5
REMARK    3  A    between atoms: C_7  and  C_8
REMARK    4  A    between atoms: C_8  and  O_9
REMARK    5  A    between atoms: C_10  and  C_11
REMARK    6  A    between atoms: C_11  and  N_12
REMARK                            x       y       z     vdW  Elec       q    Type
REMARK                         _______ _______ _______ _____ _____    ______ ____
ROOT
ATOM      1  C   UNL     1       4.234   4.375  18.675  0.00  0.00    +0.000 C 
ATOM      2  O   UNL     1       5.536   4.509  19.301  0.00  0.00    +0.000 OA
ATOM      3  C   UNL     1       6.545   4.492  18.268  0.00  0.00    +0.000 C 
ATOM      4  C   UNL     1       5.836   4.898  16.981  0.00  0.00    +0.000 C 
ATOM      5  C   UNL     1       4.497   4.218  17.169  0.00  0.00    +0.000 C 
ATOM      6  F   UNL     1       4.648   2.884  16.901  0.00  0.00    +0.000 F 
ENDROOT
BRANCH   1  10
ATOM      7  C   UNL     1       2.416   8.921  17.742  0.00  0.00    +0.000 C 
ATOM      8  C   UNL     1       2.538   7.699  18.590  0.00  0.00    +0.000 A 
ATOM      9  C   UNL     1       3.301   6.647  18.273  0.00  0.00    +0.000 A 
ATOM     10  N   UNL     1       3.376   5.507  19.051  0.00  0.00    +0.000 N 
ATOM     11  C   UNL     1       2.734   5.440  20.281  0.00  0.00    +0.000 A 
ATOM     12  O   UNL     1       2.820   4.480  21.044  0.00  0.00    +0.000 OA
ATOM     13  N   UNL     1       1.970   6.526  20.616  0.00  0.00    +0.000 N 
ATOM     14  C   UNL     1       1.785   7.649  19.862  0.00  0.00    +0.000 A 
ATOM     15  O   UNL     1       1.054   8.566  20.219  0.00  0.00    +0.000 OA
ATOM     16  H   UNL     1       1.485   6.486  21.498  0.00  0.00    +0.000 HD
ENDBRANCH   1  10
BRANCH   3  17
ATOM     17  C   UNL     1       7.699   5.414  18.675  0.00  0.00    +0.000 C 
BRANCH  17  18
ATOM     18  O   UNL     1       7.799   5.527  20.092  0.00  0.00    +0.000 OA
ATOM     19  H   UNL     1       8.562   4.985  20.355  0.00  0.00    +0.000 HD
ENDBRANCH  17  18
ENDBRANCH   3  17
BRANCH   4  20
ATOM     20  C   UNL     1       6.581   4.467  15.724  0.00  0.00    +0.000 C 
BRANCH  20  21
ATOM     21  N   UNL     1       7.515   5.531  15.333  0.00  0.00    +0.000 NA
ATOM     22  N   UNL     1       7.827   5.555  14.126  0.00  0.00    +0.000 NA
ATOM     23  N   UNL     1       8.114   5.566  13.025  0.00  0.00    +0.000 NA
ENDBRANCH  20  21
ENDBRANCH   4  20
TORSDOF 5
ENDMDL
MODEL 3
REMARK VINA RESULT:      -7.3      2.791      6.204
REMARK  Name = 
REMARK  6 active torsions:
REMARK  status: ('A' for Active; 'I' for Inactive)
REMARK    1  A    between atoms: C_1  and  C_2
REMARK    2  A    between atoms: N_4  and  C_5
REMARK    3  A    between atoms: C_7  and  C_8
REMARK    4  A    between atoms: C_8  and  O_9
REMARK    5  A    between atoms: C_10  and  C_11
REMARK    6  A    between atoms: C_11  and  N_12
REMARK                            x       y       z     vdW  Elec       q    Type
REMARK                         _______ _______ _______ _____ _____    ______ ____
ROOT
ATOM      1  C   UNL     1       5.360   4.228  18.185  0.00  0.00    +0.000 C 
ATOM      2  O   UNL     1       4.668   2.955  18.111  0.00  0.00    +0.000 OA
ATOM      3  C   UNL     1       3.298   3.154  18.519  0.00  0.00    +0.000 C 
ATOM      4  C   UNL     1       3.011   4.638  18.317  0.00  0.00    +0.000 C 
ATOM      5  C   UNL     1       4.338   5.241  18.723  0.00  0.00    +0.000 C 
ATOM      6  F   UNL     1       4.415   5.238  20.089  0.00  0.00    +0.000 F 
ENDROOT
BRANCH   1  10
ATOM      7  C   UNL     1       5.582   3.565  13.250  0.00  0.00    +0.000 C 
ATOM      8  C   UNL     1       6.049   4.202  14.517  0.00  0.00    +0.000 A 
ATOM      9  C   UNL     1       5.530   3.933  15.720  0.00  0.00    +0.000 A 
ATOM     10  N   UNL     1       5.948   4.557  16.879  0.00  0.00    +0.000 N 
ATOM     11  C   UNL     1       7.026   5.434  16.868  0.00  0.00    +0.000 A 
ATOM     12  O   UNL     1       7.483   5.966  17.877  0.00  0.00    +0.000 OA
ATOM     13  N   UNL     1       7.571   5.693  15.639  0.00  0.00    +0.000 N 
ATOM     14  C   UNL     1       7.158   5.177  14.444  0.00  0.00    +0.000 A 
ATOM     15  O   UNL     1       7.680   5.488  13.380  0.00  0.00    +0.000 OA
ATOM     16  H   UNL     1       8.344   6.340  15.612  0.00  0.00    +0.000 HD
ENDBRANCH   1  10
BRANCH   3  17
ATOM     17  C   UNL     1       2.391   2.217  17.717  0.00  0.00    +0.000 C 
BRANCH  17  18
ATOM     18  O   UNL     1       1.513   1.487  18.570  0.00  0.00    +0.000 OA
ATOM     19  H   UNL     1       2.014   1.300  19.381  0.00  0.00    +0.000 HD
ENDBRANCH  17  18
ENDBRANCH   3  17
BRANCH   4  20
ATOM     20  C   UNL     1       1.826   5.136  19.135  0.00  0.00    +0.000 C 
BRANCH  20  21
ATOM     21  N   UNL     1       1.204   3.996  19.820  0.00  0.00    +0.000 NA
ATOM     22  N   UNL     1       1.670   3.724  20.944  0.00  0.00    +0.000 NA
ATOM     23  N   UNL     1       2.105   3.477  21.966  0.00  0.00    +0.000 NA
ENDBRANCH  20  21
ENDBRANCH   4  20
TORSDOF 5
ENDMDL
MODEL 4
REMARK VINA RESULT:      -7.2      2.690      6.017
REMARK  Name = 
REMARK  6 active torsions:
REMARK  status: ('A' for Active; 'I' for Inactive)
REMARK    1  A    between atoms: C_1  and  C_2
REMARK    2  A    between atoms: N_4  and  C_5
REMARK    3  A    between atoms: C_7  and  C_8
REMARK    4  A    between atoms: C_8  and  O_9
REMARK    5  A    between atoms: C_10  and  C_11
REMARK    6  A    between atoms: C_11  and  N_12
REMARK                            x       y       z     vdW  Elec       q    Type
REMARK                         _______ _______ _______ _____ _____    ______ ____
ROOT
ATOM      1  C   UNL     1       5.190   5.348  18.539  0.00  0.00    +0.000 C 
ATOM      2  O   UNL     1       5.404   4.076  19.203  0.00  0.00    +0.000 OA
ATOM      3  C   UNL     1       4.119   3.529  19.570  0.00  0.00    +0.000 C 
ATOM      4  C   UNL     1       3.101   4.195  18.652  0.00  0.00    +0.000 C 
ATOM      5  C   UNL     1       3.672   5.592  18.560  0.00  0.00    +0.000 C 
ATOM      6  F   UNL     1       3.368   6.262  19.715  0.00  0.00    +0.000 F 
ENDROOT
BRANCH   1  10
ATOM      7  C   UNL     1       5.199   3.809  13.798  0.00  0.00    +0.000 C 
ATOM      8  C   UNL     1       5.799   4.557  14.942  0.00  0.00    +0.000 A 
ATOM      9  C   UNL     1       5.259   4.603  16.165  0.00  0.00    +0.000 A 
ATOM     10  N   UNL     1       5.807   5.329  17.205  0.00  0.00    +0.000 N 
ATOM     11  C   UNL     1       7.029   5.972  17.059  0.00  0.00    +0.000 A 
ATOM     12  O   UNL     1       7.596   6.575  17.968  0.00  0.00    +0.000 OA
ATOM     13  N   UNL     1       7.593   5.907  15.813  0.00  0.00    +0.000 N 
ATOM     14  C   UNL     1       7.070   5.278  14.719  0.00  0.00    +0.000 A 
ATOM     15  O   UNL     1       7.623   5.296  13.626  0.00  0.00    +0.000 OA
ATOM     16  H   UNL     1       8.473   6.382  15.687  0.00  0.00    +0.000 HD
ENDBRANCH   1  10
BRANCH   3  17
ATOM     17  C   UNL     1       4.170   2.002  19.460  0.00  0.00    +0.000 C 
BRANCH  17  18
ATOM     18  O   UNL     1       5.268   1.465  20.194  0.00  0.00    +0.000 OA
ATOM     19  H   UNL     1       6.073   1.784  19.753  0.00  0.00    +0.000 HD
ENDBRANCH  17  18
ENDBRANCH   3  17
BRANCH   4  20
ATOM     20  C   UNL     1       1.678   4.140  19.195  0.00  0.00    +0.000 C 
BRANCH  20  21
ATOM     21  N   UNL     1       1.703   4.426  20.635  0.00  0.00    +0.000 NA
ATOM     22  N   UNL     1       1.580   3.437  21.383  0.00  0.00    +0.000 NA
ATOM     23  N   UNL     1       1.459   2.530  22.059  0.00  0.00    +0.000 NA
ENDBRANCH  20  21
ENDBRANCH   4  20
TORSDOF 5
ENDMDL
MODEL 5
REMARK VINA RESULT:      -7.2      2.534      6.013
REMARK  Name = 
REMARK  6 active torsions:
REMARK  status: ('A' for Active; 'I' for Inactive)
REMARK    1  A    between atoms: C_1  and  C_2
REMARK    2  A    between atoms: N_4  and  C_5
REMARK    3  A    between atoms: C_7  and  C_8
REMARK    4  A    between atoms: C_8  and  O_9
REMARK    5  A    between atoms: C_10  and  C_11
REMARK    6  A    between atoms: C_11  and  N_12
REMARK                            x       y       z     vdW  Elec       q    Type
REMARK                         _______ _______ _______ _____ _____    ______ ____
ROOT
ATOM      1  C   UNL     1       5.448   4.378  17.935  0.00  0.00    +0.000 C 
ATOM      2  O   UNL     1       4.529   3.256  17.886  0.00  0.00    +0.000 OA
ATOM      3  C   UNL     1       3.246   3.694  18.382  0.00  0.00    +0.000 C 
ATOM      4  C   UNL     1       3.226   5.209  18.220  0.00  0.00    +0.000 C 
ATOM      5  C   UNL     1       4.663   5.548  18.550  0.00  0.00    +0.000 C 
ATOM      6  F   UNL     1       4.820   5.494  19.909  0.00  0.00    +0.000 F 
ENDROOT
BRANCH   1  10
ATOM      7  C   UNL     1       5.486   3.509  13.027  0.00  0.00    +0.000 C 
ATOM      8  C   UNL     1       6.019   4.174  14.252  0.00  0.00    +0.000 A 
ATOM      9  C   UNL     1       5.527   3.977  15.480  0.00  0.00    +0.000 A 
ATOM     10  N   UNL     1       6.008   4.628  16.599  0.00  0.00    +0.000 N 
ATOM     11  C   UNL     1       7.122   5.455  16.520  0.00  0.00    +0.000 A 
ATOM     12  O   UNL     1       7.633   6.006  17.492  0.00  0.00    +0.000 OA
ATOM     13  N   UNL     1       7.640   5.640  15.266  0.00  0.00    +0.000 N 
ATOM     14  C   UNL     1       7.168   5.095  14.106  0.00  0.00    +0.000 A 
ATOM     15  O   UNL     1       7.669   5.340  13.015  0.00  0.00    +0.000 OA
ATOM     16  H   UNL     1       8.439   6.250  15.190  0.00  0.00    +0.000 HD
ENDBRANCH   1  10
BRANCH   3  17
ATOM     17  C   UNL     1       2.135   2.960  17.624  0.00  0.00    +0.000 C 
BRANCH  17  18
ATOM     18  O   UNL     1       1.706   1.797  18.327  0.00  0.00    +0.000 OA
ATOM     19  H   UNL     1       2.387   1.616  18.996  0.00  0.00    +0.000 HD
ENDBRANCH  17  18
ENDBRANCH   3  17
BRANCH   4  20
ATOM     20  C   UNL     1       2.204   5.895  19.118  0.00  0.00    +0.000 C 
BRANCH  20  21
ATOM     21  N   UNL     1       2.589   7.301  19.295  0.00  0.00    +0.000 NA
ATOM     22  N   UNL     1       2.327   8.055  18.338  0.00  0.00    +0.000 NA
ATOM     23  N   UNL     1       2.092   8.737  17.458  0.00  0.00    +0.000 NA
ENDBRANCH  20  21
ENDBRANCH   4  20
TORSDOF 5
ENDMDL
MODEL 6
REMARK VINA RESULT:      -7.2      2.663      3.288
REMARK  Name = 
REMARK  6 active torsions:
REMARK  status: ('A' for Active; 'I' for Inactive)
REMARK    1  A    between atoms: C_1  and  C_2
REMARK    2  A    between atoms: N_4  and  C_5
REMARK    3  A    between atoms: C_7  and  C_8
REMARK    4  A    between atoms: C_8  and  O_9
REMARK    5  A    between atoms: C_10  and  C_11
REMARK    6  A    between atoms: C_11  and  N_12
REMARK                            x       y       z     vdW  Elec       q    Type
REMARK                         _______ _______ _______ _____ _____    ______ ____
ROOT
ATOM      1  C   UNL     1       5.199   3.371  18.457  0.00  0.00    +0.000 C 
ATOM      2  O   UNL     1       6.423   3.848  19.072  0.00  0.00    +0.000 OA
ATOM      3  C   UNL     1       6.857   5.033  18.371  0.00  0.00    +0.000 C 
ATOM      4  C   UNL     1       5.617   5.592  17.684  0.00  0.00    +0.000 C 
ATOM      5  C   UNL     1       4.917   4.315  17.277  0.00  0.00    +0.000 C 
ATOM      6  F   UNL     1       5.546   3.810  16.171  0.00  0.00    +0.000 F 
ENDROOT
BRANCH   1  10
ATOM      7  C   UNL     1       1.031   5.176  20.510  0.00  0.00    +0.000 C 
ATOM      8  C   UNL     1       2.145   4.185  20.443  0.00  0.00    +0.000 A 
ATOM      9  C   UNL     1       3.126   4.229  19.535  0.00  0.00    +0.000 A 
ATOM     10  N   UNL     1       4.131   3.284  19.463  0.00  0.00    +0.000 N 
ATOM     11  C   UNL     1       4.236   2.280  20.418  0.00  0.00    +0.000 A 
ATOM     12  O   UNL     1       5.146   1.454  20.443  0.00  0.00    +0.000 OA
ATOM     13  N   UNL     1       3.244   2.248  21.361  0.00  0.00    +0.000 N 
ATOM     14  C   UNL     1       2.178   3.097  21.445  0.00  0.00    +0.000 A 
ATOM     15  O   UNL     1       1.310   2.978  22.302  0.00  0.00    +0.000 OA
ATOM     16  H   UNL     1       3.297   1.516  22.052  0.00  0.00    +0.000 HD
ENDBRANCH   1  10
BRANCH   3  17
ATOM     17  C   UNL     1       7.520   5.993  19.364  0.00  0.00    +0.000 C 
BRANCH  17  18
ATOM     18  O   UNL     1       8.016   5.299  20.505  0.00  0.00    +0.000 OA
ATOM     19  H   UNL     1       8.385   5.976  21.097  0.00  0.00    +0.000 HD
ENDBRANCH  17  18
ENDBRANCH   3  17
BRANCH   4  20
ATOM     20  C   UNL     1       5.943   6.521  16.521  0.00  0.00    +0.000 C 
BRANCH  20  21
ATOM     21  N   UNL     1       7.342   6.317  16.123  0.00  0.00    +0.000 NA
ATOM     22  N   UNL     1       7.512   5.754  15.024  0.00  0.00    +0.000 NA
ATOM     23  N   UNL     1       7.660   5.232  14.024  0.00  0.00    +0.000 NA
ENDBRANCH  20  21
ENDBRANCH   4  20
TORSDOF 5
ENDMDL
MODEL 7
REMARK VINA RESULT:      -7.1      2.184      2.822
REMARK  Name = 
REMARK  6 active torsions:
REMARK  status: ('A' for Active; 'I' for Inactive)
REMARK    1  A    between atoms: C_1  and  C_2
REMARK    2  A    between atoms: N_4  and  C_5
REMARK    3  A    between atoms: C_7  and  C_8
REMARK    4  A    between atoms: C_8  and  O_9
REMARK    5  A    between atoms: C_10  and  C_11
REMARK    6  A    between atoms: C_11  and  N_12
REMARK                            x       y       z     vdW  Elec       q    Type
REMARK                         _______ _______ _______ _____ _____    ______ ____
ROOT
ATOM      1  C   UNL     1       5.140   3.523  17.861  0.00  0.00    +0.000 C 
ATOM      2  O   UNL     1       6.155   4.423  18.375  0.00  0.00    +0.000 OA
ATOM      3  C   UNL     1       6.671   5.206  17.278  0.00  0.00    +0.000 C 
ATOM      4  C   UNL     1       5.597   5.175  16.197  0.00  0.00    +0.000 C 
ATOM      5  C   UNL     1       5.089   3.758  16.343  0.00  0.00    +0.000 C 
ATOM      6  F   UNL     1       5.989   2.912  15.753  0.00  0.00    +0.000 F 
ENDROOT
BRANCH   1  10
ATOM      7  C   UNL     1       2.016   6.515  20.337  0.00  0.00    +0.000 C 
ATOM      8  C   UNL     1       2.403   5.186  19.779  0.00  0.00    +0.000 A 
ATOM      9  C   UNL     1       3.544   4.962  19.117  0.00  0.00    +0.000 A 
ATOM     10  N   UNL     1       3.873   3.735  18.574  0.00  0.00    +0.000 N 
ATOM     11  C   UNL     1       3.069   2.622  18.789  0.00  0.00    +0.000 A 
ATOM     12  O   UNL     1       3.345   1.493  18.389  0.00  0.00    +0.000 OA
ATOM     13  N   UNL     1       1.912   2.846  19.486  0.00  0.00    +0.000 N 
ATOM     14  C   UNL     1       1.484   4.045  19.980  0.00  0.00    +0.000 A 
ATOM     15  O   UNL     1       0.414   4.170  20.565  0.00  0.00    +0.000 OA
ATOM     16  H   UNL     1       1.310   2.052  19.637  0.00  0.00    +0.000 HD
ENDBRANCH   1  10
BRANCH   3  17
ATOM     17  C   UNL     1       7.026   6.609  17.781  0.00  0.00    +0.000 C 
BRANCH  17  18
ATOM     18  O   UNL     1       7.906   7.277  16.882  0.00  0.00    +0.000 OA
ATOM     19  H   UNL     1       8.573   6.623  16.615  0.00  0.00    +0.000 HD
ENDBRANCH  17  18
ENDBRANCH   3  17
BRANCH   4  20
ATOM     20  C   UNL     1       6.133   5.504  14.809  0.00  0.00    +0.000 C 
BRANCH  20  21
ATOM     21  N   UNL     1       7.548   5.119  14.739  0.00  0.00    +0.000 NA
ATOM     22  N   UNL     1       8.192   5.606  13.788  0.00  0.00    +0.000 NA
ATOM     23  N   UNL     1       8.771   6.048  12.914  0.00  0.00    +0.000 NA
ENDBRANCH  20  21
ENDBRANCH   4  20
TORSDOF 5
ENDMDL
MODEL 8
REMARK VINA RESULT:      -7.1      1.147      1.271
REMARK  Name = 
REMARK  6 active torsions:
REMARK  status: ('A' for Active; 'I' for Inactive)
REMARK    1  A    between atoms: C_1  and  C_2
REMARK    2  A    between atoms: N_4  and  C_5
REMARK    3  A    between atoms: C_7  and  C_8
REMARK    4  A    between atoms: C_8  and  O_9
REMARK    5  A    between atoms: C_10  and  C_11
REMARK    6  A    between atoms: C_11  and  N_12
REMARK                            x       y       z     vdW  Elec       q    Type
REMARK                         _______ _______ _______ _____ _____    ______ ____
ROOT
ATOM      1  C   UNL     1       4.114   4.895  18.434  0.00  0.00    +0.000 C 
ATOM      2  O   UNL     1       5.482   5.166  18.836  0.00  0.00    +0.000 OA
ATOM      3  C   UNL     1       6.311   5.186  17.654  0.00  0.00    +0.000 C 
ATOM      4  C   UNL     1       5.372   5.471  16.487  0.00  0.00    +0.000 C 
ATOM      5  C   UNL     1       4.147   4.692  16.911  0.00  0.00    +0.000 C 
ATOM      6  F   UNL     1       4.372   3.364  16.666  0.00  0.00    +0.000 F 
ENDROOT
BRANCH   1  10
ATOM      7  C   UNL     1       2.037   9.382  17.808  0.00  0.00    +0.000 C 
ATOM      8  C   UNL     1       2.265   8.134  18.593  0.00  0.00    +0.000 A 
ATOM      9  C   UNL     1       3.056   7.134  18.187  0.00  0.00    +0.000 A 
ATOM     10  N   UNL     1       3.229   5.968  18.908  0.00  0.00    +0.000 N 
ATOM     11  C   UNL     1       2.664   5.819  20.169  0.00  0.00    +0.000 A 
ATOM     12  O   UNL     1       2.839   4.834  20.882  0.00  0.00    +0.000 OA
ATOM     13  N   UNL     1       1.873   6.852  20.594  0.00  0.00    +0.000 N 
ATOM     14  C   UNL     1       1.591   7.995  19.902  0.00  0.00    +0.000 A 
ATOM     15  O   UNL     1       0.841   8.859  20.340  0.00  0.00    +0.000 OA
ATOM     16  H   UNL     1       1.443   6.752  21.500  0.00  0.00    +0.000 HD
ENDBRANCH   1  10
BRANCH   3  17
ATOM     17  C   UNL     1       7.427   6.219  17.838  0.00  0.00    +0.000 C 
BRANCH  17  18
ATOM     18  O   UNL     1       7.258   7.330  16.962  0.00  0.00    +0.000 OA
ATOM     19  H   UNL     1       6.348   7.646  17.095  0.00  0.00    +0.000 HD
ENDBRANCH  17  18
ENDBRANCH   3  17
BRANCH   4  20
ATOM     20  C   UNL     1       5.944   5.047  15.140  0.00  0.00    +0.000 C 
BRANCH  20  21
ATOM     21  N   UNL     1       7.410   5.119  15.198  0.00  0.00    +0.000 NA
ATOM     22  N   UNL     1       7.971   5.506  14.154  0.00  0.00    +0.000 NA
ATOM     23  N   UNL     1       8.477   5.852  13.195  0.00  0.00    +0.000 NA
ENDBRANCH  20  21
ENDBRANCH   4  20
TORSDOF 5
ENDMDL
MODEL 9
REMARK VINA RESULT:      -7.0      2.468      3.119
REMARK  Name = 
REMARK  6 active torsions:
REMARK  status: ('A' for Active; 'I' for Inactive)
REMARK    1  A    between atoms: C_1  and  C_2
REMARK    2  A    between atoms: N_4  and  C_5
REMARK    3  A    between atoms: C_7  and  C_8
REMARK    4  A    between atoms: C_8  and  O_9
REMARK    5  A    between atoms: C_10  and  C_11
REMARK    6  A    between atoms: C_11  and  N_12
REMARK                            x       y       z     vdW  Elec       q    Type
REMARK                         _______ _______ _______ _____ _____    ______ ____
ROOT
ATOM      1  C   UNL     1       5.177   3.315  17.867  0.00  0.00    +0.000 C 
ATOM      2  O   UNL     1       6.271   3.895  18.623  0.00  0.00    +0.000 OA
ATOM      3  C   UNL     1       6.846   4.967  17.846  0.00  0.00    +0.000 C 
ATOM      4  C   UNL     1       5.765   5.401  16.863  0.00  0.00    +0.000 C 
ATOM      5  C   UNL     1       5.135   4.068  16.528  0.00  0.00    +0.000 C 
ATOM      6  F   UNL     1       5.952   3.411  15.647  0.00  0.00    +0.000 F 
ENDROOT
BRANCH   1  10
ATOM      7  C   UNL     1       1.870   5.885  20.570  0.00  0.00    +0.000 C 
ATOM      8  C   UNL     1       2.381   4.618  19.970  0.00  0.00    +0.000 A 
ATOM      9  C   UNL     1       3.497   4.539  19.237  0.00  0.00    +0.000 A 
ATOM     10  N   UNL     1       3.939   3.365  18.657  0.00  0.00    +0.000 N 
ATOM     11  C   UNL     1       3.289   2.161  18.902  0.00  0.00    +0.000 A 
ATOM     12  O   UNL     1       3.675   1.078  18.468  0.00  0.00    +0.000 OA
ATOM     13  N   UNL     1       2.158   2.238  19.669  0.00  0.00    +0.000 N 
ATOM     14  C   UNL     1       1.619   3.372  20.207  0.00  0.00    +0.000 A 
ATOM     15  O   UNL     1       0.580   3.361  20.855  0.00  0.00    +0.000 OA
ATOM     16  H   UNL     1       1.667   1.375  19.843  0.00  0.00    +0.000 HD
ENDBRANCH   1  10
BRANCH   3  17
ATOM     17  C   UNL     1       7.327   6.073  18.790  0.00  0.00    +0.000 C 
BRANCH  17  18
ATOM     18  O   UNL     1       7.673   5.550  20.070  0.00  0.00    +0.000 OA
ATOM     19  H   UNL     1       8.592   5.244  20.000  0.00  0.00    +0.000 HD
ENDBRANCH  17  18
ENDBRANCH   3  17
BRANCH   4  20
ATOM     20  C   UNL     1       6.317   6.149  15.656  0.00  0.00    +0.000 C 
BRANCH  20  21
ATOM     21  N   UNL     1       7.604   5.556  15.272  0.00  0.00    +0.000 NA
ATOM     22  N   UNL     1       7.839   5.526  14.048  0.00  0.00    +0.000 NA
ATOM     23  N   UNL     1       8.044   5.495  12.929  0.00  0.00    +0.000 NA
ENDBRANCH  20  21
ENDBRANCH   4  20
TORSDOF 5
ENDMDL
