MODEL 1
REMARK VINA RESULT:      -9.3      0.000      0.000
REMARK  Name = 
REMARK  6 active torsions:
REMARK  status: ('A' for Active; 'I' for Inactive)
REMARK    1  A    between atoms: N_10  and  C_11
REMARK    2  A    between atoms: C_11  and  C_12
REMARK    3  A    between atoms: C_16  and  C_17
REMARK    4  A    between atoms: C_25  and  N_26
REMARK    5  A    between atoms: N_26  and  C_27
REMARK    6  A    between atoms: C_27  and  C_28
REMARK                            x       y       z     vdW  Elec       q    Type
REMARK                         _______ _______ _______ _____ _____    ______ ____
ROOT
ATOM      1  O   UNL     1       0.733   7.969  22.079  0.00  0.00    +0.000 OA
ATOM      2  C   UNL     1       1.157   8.305  20.976  0.00  0.00    +0.000 A 
ATOM      3  C   UNL     1       0.918   9.609  20.440  0.00  0.00    +0.000 A 
ATOM      4  C   UNL     1       0.211  10.701  21.023  0.00  0.00    +0.000 A 
ATOM      5  C   UNL     1       0.175  11.782  20.161  0.00  0.00    +0.000 A 
ATOM      6  S   UNL     1       0.998  11.495  18.703  0.00  0.00    +0.000 S 
ATOM      7  C   UNL     1       1.367   9.897  19.172  0.00  0.00    +0.000 A 
ATOM      8  N   UNL     1       2.029   9.039  18.348  0.00  0.00    +0.000 NA
ATOM      9  C   UNL     1       2.243   7.882  18.861  0.00  0.00    +0.000 A 
ATOM     10  N   UNL     1       1.872   7.456  20.129  0.00  0.00    +0.000 N 
ATOM     11  C   UNL     1      -0.509  13.082  20.453  0.00  0.00    +0.000 C 
ATOM     12  C   UNL     1      -1.570  12.874  21.580  0.00  0.00    +0.000 C 
ATOM     13  C   UNL     1      -0.891  12.131  22.754  0.00  0.00    +0.000 C 
ATOM     14  C   UNL     1      -0.475  10.707  22.356  0.00  0.00    +0.000 C 
ENDROOT
BRANCH  12  15
ATOM     15  N   UNL     1      -2.761  12.132  21.110  0.00  0.00    +0.000 NA
ATOM     16  H   UNL     1      -3.398  11.977  21.886  0.00  0.00    +0.000 HD
BRANCH  15  17
ATOM     17  C   UNL     1      -3.481  12.854  20.049  0.00  0.00    +0.000 C 
BRANCH  17  18
ATOM     18  C   UNL     1      -3.679  11.971  18.848  0.00  0.00    +0.000 A 
ATOM     19  C   UNL     1      -4.836  12.123  18.070  0.00  0.00    +0.000 A 
ATOM     20  C   UNL     1      -4.978  11.427  16.877  0.00  0.00    +0.000 A 
ATOM     21  C   UNL     1      -4.006  10.512  16.486  0.00  0.00    +0.000 A 
ATOM     22  C   UNL     1      -2.892  10.303  17.293  0.00  0.00    +0.000 A 
ATOM     23  F   UNL     1      -1.971   9.404  16.926  0.00  0.00    +0.000 F 
ATOM     24  C   UNL     1      -2.708  11.036  18.460  0.00  0.00    +0.000 A 
ENDBRANCH  17  18
ENDBRANCH  15  17
ENDBRANCH  12  15
BRANCH  10  25
ATOM     25  C   UNL     1       2.179   6.127  20.641  0.00  0.00    +0.000 C 
BRANCH  25  26
ATOM     26  C   UNL     1       2.346   5.125  19.527  0.00  0.00    +0.000 A 
ATOM     27  C   UNL     1       1.333   4.224  19.203  0.00  0.00    +0.000 A 
ATOM     28  C   UNL     1       1.409   3.472  18.032  0.00  0.00    +0.000 A 
ATOM     29  C   UNL     1       2.533   3.563  17.219  0.00  0.00    +0.000 A 
ATOM     30  C   UNL     1       3.618   4.381  17.567  0.00  0.00    +0.000 A 
ATOM     31  C   UNL     1       3.496   5.163  18.726  0.00  0.00    +0.000 A 
BRANCH  30  32
ATOM     32  C   UNL     1       4.853   4.431  16.770  0.00  0.00    +0.000 A 
ATOM     33  C   UNL     1       4.831   4.381  15.364  0.00  0.00    +0.000 A 
ATOM     34  C   UNL     1       5.999   4.525  14.622  0.00  0.00    +0.000 A 
ATOM     35  C   UNL     1       7.221   4.665  15.276  0.00  0.00    +0.000 A 
ATOM     36  C   UNL     1       7.273   4.681  16.665  0.00  0.00    +0.000 A 
ATOM     37  C   UNL     1       6.098   4.587  17.402  0.00  0.00    +0.000 A 
ENDBRANCH  30  32
ENDBRANCH  25  26
ENDBRANCH  10  25
TORSDOF 6
ENDMDL
MODEL 2
REMARK VINA RESULT:      -9.2      3.447      5.463
REMARK  Name = 
REMARK  6 active torsions:
REMARK  status: ('A' for Active; 'I' for Inactive)
REMARK    1  A    between atoms: N_10  and  C_11
REMARK    2  A    between atoms: C_11  and  C_12
REMARK    3  A    between atoms: C_16  and  C_17
REMARK    4  A    between atoms: C_25  and  N_26
REMARK    5  A    between atoms: N_26  and  C_27
REMARK    6  A    between atoms: C_27  and  C_28
REMARK                            x       y       z     vdW  Elec       q    Type
REMARK                         _______ _______ _______ _____ _____    ______ ____
ROOT
ATOM      1  O   UNL     1      -0.686  12.398  19.852  0.00  0.00    +0.000 OA
ATOM      2  C   UNL     1      -1.210  11.625  19.054  0.00  0.00    +0.000 A 
ATOM      3  C   UNL     1      -2.624  11.605  18.840  0.00  0.00    +0.000 A 
ATOM      4  C   UNL     1      -3.632  12.411  19.442  0.00  0.00    +0.000 A 
ATOM      5  C   UNL     1      -4.888  12.053  18.987  0.00  0.00    +0.000 A 
ATOM      6  S   UNL     1      -4.846  10.799  17.842  0.00  0.00    +0.000 S 
ATOM      7  C   UNL     1      -3.150  10.669  17.978  0.00  0.00    +0.000 A 
ATOM      8  N   UNL     1      -2.442   9.730  17.295  0.00  0.00    +0.000 NA
ATOM      9  C   UNL     1      -1.175   9.781  17.495  0.00  0.00    +0.000 A 
ATOM     10  N   UNL     1      -0.501  10.678  18.313  0.00  0.00    +0.000 N 
ATOM     11  C   UNL     1      -6.170  12.685  19.437  0.00  0.00    +0.000 C 
ATOM     12  C   UNL     1      -5.948  13.400  20.807  0.00  0.00    +0.000 C 
ATOM     13  C   UNL     1      -4.697  14.302  20.687  0.00  0.00    +0.000 C 
ATOM     14  C   UNL     1      -3.422  13.472  20.481  0.00  0.00    +0.000 C 
ENDROOT
BRANCH  12  15
ATOM     15  N   UNL     1      -5.801  12.447  21.929  0.00  0.00    +0.000 NA
ATOM     16  H   UNL     1      -4.816  12.260  22.096  0.00  0.00    +0.000 HD
BRANCH  15  17
ATOM     17  C   UNL     1      -6.399  12.957  23.173  0.00  0.00    +0.000 C 
BRANCH  17  18
ATOM     18  C   UNL     1      -5.487  13.956  23.828  0.00  0.00    +0.000 A 
ATOM     19  C   UNL     1      -4.211  13.549  24.245  0.00  0.00    +0.000 A 
ATOM     20  C   UNL     1      -3.296  14.479  24.718  0.00  0.00    +0.000 A 
ATOM     21  C   UNL     1      -3.667  15.813  24.855  0.00  0.00    +0.000 A 
ATOM     22  C   UNL     1      -4.956  16.207  24.512  0.00  0.00    +0.000 A 
ATOM     23  F   UNL     1      -5.317  17.487  24.668  0.00  0.00    +0.000 F 
ATOM     24  C   UNL     1      -5.865  15.298  23.982  0.00  0.00    +0.000 A 
ENDBRANCH  17  18
ENDBRANCH  15  17
ENDBRANCH  12  15
BRANCH  10  25
ATOM     25  C   UNL     1       0.948  10.680  18.463  0.00  0.00    +0.000 C 
BRANCH  25  26
ATOM     26  C   UNL     1       1.448   9.394  19.070  0.00  0.00    +0.000 A 
ATOM     27  C   UNL     1       1.111   9.027  20.372  0.00  0.00    +0.000 A 
ATOM     28  C   UNL     1       1.383   7.740  20.832  0.00  0.00    +0.000 A 
ATOM     29  C   UNL     1       2.059   6.838  20.018  0.00  0.00    +0.000 A 
ATOM     30  C   UNL     1       2.505   7.206  18.740  0.00  0.00    +0.000 A 
ATOM     31  C   UNL     1       2.178   8.492  18.283  0.00  0.00    +0.000 A 
BRANCH  30  32
ATOM     32  C   UNL     1       3.295   6.301  17.892  0.00  0.00    +0.000 A 
ATOM     33  C   UNL     1       4.315   6.776  17.048  0.00  0.00    +0.000 A 
ATOM     34  C   UNL     1       5.117   5.897  16.325  0.00  0.00    +0.000 A 
ATOM     35  C   UNL     1       4.873   4.528  16.389  0.00  0.00    +0.000 A 
ATOM     36  C   UNL     1       3.848   4.036  17.187  0.00  0.00    +0.000 A 
ATOM     37  C   UNL     1       3.082   4.913  17.946  0.00  0.00    +0.000 A 
ENDBRANCH  30  32
ENDBRANCH  25  26
ENDBRANCH  10  25
TORSDOF 6
ENDMDL
MODEL 3
REMARK VINA RESULT:      -9.1      2.396      3.013
REMARK  Name = 
REMARK  6 active torsions:
REMARK  status: ('A' for Active; 'I' for Inactive)
REMARK    1  A    between atoms: N_10  and  C_11
REMARK    2  A    between atoms: C_11  and  C_12
REMARK    3  A    between atoms: C_16  and  C_17
REMARK    4  A    between atoms: C_25  and  N_26
REMARK    5  A    between atoms: N_26  and  C_27
REMARK    6  A    between atoms: C_27  and  C_28
REMARK                            x       y       z     vdW  Elec       q    Type
REMARK                         _______ _______ _______ _____ _____    ______ ____
ROOT
ATOM      1  O   UNL     1       0.663   8.362  22.291  0.00  0.00    +0.000 OA
ATOM      2  C   UNL     1       0.988   8.664  21.146  0.00  0.00    +0.000 A 
ATOM      3  C   UNL     1       0.630   9.922  20.567  0.00  0.00    +0.000 A 
ATOM      4  C   UNL     1      -0.104  10.998  21.145  0.00  0.00    +0.000 A 
ATOM      5  C   UNL     1      -0.267  12.029  20.237  0.00  0.00    +0.000 A 
ATOM      6  S   UNL     1       0.472  11.716  18.740  0.00  0.00    +0.000 S 
ATOM      7  C   UNL     1       0.973  10.169  19.257  0.00  0.00    +0.000 A 
ATOM      8  N   UNL     1       1.631   9.311  18.431  0.00  0.00    +0.000 NA
ATOM      9  C   UNL     1       1.953   8.197  18.983  0.00  0.00    +0.000 A 
ATOM     10  N   UNL     1       1.696   7.817  20.293  0.00  0.00    +0.000 N 
ATOM     11  C   UNL     1      -1.011  13.298  20.514  0.00  0.00    +0.000 C 
ATOM     12  C   UNL     1      -1.977  13.086  21.722  0.00  0.00    +0.000 C 
ATOM     13  C   UNL     1      -1.174  12.448  22.880  0.00  0.00    +0.000 C 
ATOM     14  C   UNL     1      -0.697  11.033  22.522  0.00  0.00    +0.000 C 
ENDROOT
BRANCH  12  15
ATOM     15  N   UNL     1      -3.148  12.251  21.375  0.00  0.00    +0.000 NA
ATOM     16  H   UNL     1      -3.503  11.792  22.208  0.00  0.00    +0.000 HD
BRANCH  15  17
ATOM     17  C   UNL     1      -4.234  13.040  20.774  0.00  0.00    +0.000 C 
BRANCH  17  18
ATOM     18  C   UNL     1      -5.546  12.728  21.439  0.00  0.00    +0.000 A 
ATOM     19  C   UNL     1      -6.511  11.989  20.738  0.00  0.00    +0.000 A 
ATOM     20  C   UNL     1      -7.668  11.562  21.374  0.00  0.00    +0.000 A 
ATOM     21  C   UNL     1      -7.915  11.931  22.692  0.00  0.00    +0.000 A 
ATOM     22  C   UNL     1      -6.994  12.727  23.368  0.00  0.00    +0.000 A 
ATOM     23  F   UNL     1      -7.247  13.101  24.628  0.00  0.00    +0.000 F 
ATOM     24  C   UNL     1      -5.804  13.114  22.763  0.00  0.00    +0.000 A 
ENDBRANCH  17  18
ENDBRANCH  15  17
ENDBRANCH  12  15
BRANCH  10  25
ATOM     25  C   UNL     1       2.122   6.538  20.845  0.00  0.00    +0.000 C 
BRANCH  25  26
ATOM     26  C   UNL     1       2.304   5.498  19.767  0.00  0.00    +0.000 A 
ATOM     27  C   UNL     1       1.289   4.597  19.449  0.00  0.00    +0.000 A 
ATOM     28  C   UNL     1       1.385   3.807  18.306  0.00  0.00    +0.000 A 
ATOM     29  C   UNL     1       2.528   3.860  17.516  0.00  0.00    +0.000 A 
ATOM     30  C   UNL     1       3.613   4.680  17.863  0.00  0.00    +0.000 A 
ATOM     31  C   UNL     1       3.473   5.500  18.993  0.00  0.00    +0.000 A 
BRANCH  30  32
ATOM     32  C   UNL     1       4.866   4.692  17.093  0.00  0.00    +0.000 A 
ATOM     33  C   UNL     1       6.122   4.768  17.722  0.00  0.00    +0.000 A 
ATOM     34  C   UNL     1       7.300   4.682  16.986  0.00  0.00    +0.000 A 
ATOM     35  C   UNL     1       7.242   4.577  15.598  0.00  0.00    +0.000 A 
ATOM     36  C   UNL     1       6.013   4.537  14.950  0.00  0.00    +0.000 A 
ATOM     37  C   UNL     1       4.839   4.572  15.694  0.00  0.00    +0.000 A 
ENDBRANCH  30  32
ENDBRANCH  25  26
ENDBRANCH  10  25
TORSDOF 6
ENDMDL
MODEL 4
REMARK VINA RESULT:      -9.1      1.456      1.841
REMARK  Name = 
REMARK  6 active torsions:
REMARK  status: ('A' for Active; 'I' for Inactive)
REMARK    1  A    between atoms: N_10  and  C_11
REMARK    2  A    between atoms: C_11  and  C_12
REMARK    3  A    between atoms: C_16  and  C_17
REMARK    4  A    between atoms: C_25  and  N_26
REMARK    5  A    between atoms: N_26  and  C_27
REMARK    6  A    between atoms: C_27  and  C_28
REMARK                            x       y       z     vdW  Elec       q    Type
REMARK                         _______ _______ _______ _____ _____    ______ ____
ROOT
ATOM      1  O   UNL     1       0.764   9.152  22.506  0.00  0.00    +0.000 OA
ATOM      2  C   UNL     1       0.845   9.304  21.290  0.00  0.00    +0.000 A 
ATOM      3  C   UNL     1       0.273  10.438  20.632  0.00  0.00    +0.000 A 
ATOM      4  C   UNL     1      -0.437  11.537  21.195  0.00  0.00    +0.000 A 
ATOM      5  C   UNL     1      -0.857  12.411  20.208  0.00  0.00    +0.000 A 
ATOM      6  S   UNL     1      -0.380  11.931  18.650  0.00  0.00    +0.000 S 
ATOM      7  C   UNL     1       0.346  10.512  19.259  0.00  0.00    +0.000 A 
ATOM      8  N   UNL     1       0.917   9.587  18.441  0.00  0.00    +0.000 NA
ATOM      9  C   UNL     1       1.434   8.589  19.061  0.00  0.00    +0.000 A 
ATOM     10  N   UNL     1       1.458   8.388  20.434  0.00  0.00    +0.000 N 
ATOM     11  C   UNL     1      -1.650  13.657  20.456  0.00  0.00    +0.000 C 
ATOM     12  C   UNL     1      -2.355  13.562  21.846  0.00  0.00    +0.000 C 
ATOM     13  C   UNL     1      -1.298  13.154  22.899  0.00  0.00    +0.000 C 
ATOM     14  C   UNL     1      -0.767  11.735  22.644  0.00  0.00    +0.000 C 
ENDROOT
BRANCH  12  15
ATOM     15  N   UNL     1      -3.488  12.611  21.846  0.00  0.00    +0.000 NA
ATOM     16  H   UNL     1      -3.663  12.284  22.791  0.00  0.00    +0.000 HD
BRANCH  15  17
ATOM     17  C   UNL     1      -4.722  13.219  21.323  0.00  0.00    +0.000 C 
BRANCH  17  18
ATOM     18  C   UNL     1      -5.379  12.309  20.323  0.00  0.00    +0.000 A 
ATOM     19  C   UNL     1      -6.607  11.712  20.643  0.00  0.00    +0.000 A 
ATOM     20  C   UNL     1      -7.306  10.987  19.688  0.00  0.00    +0.000 A 
ATOM     21  C   UNL     1      -6.754  10.782  18.427  0.00  0.00    +0.000 A 
ATOM     22  C   UNL     1      -5.502  11.311  18.130  0.00  0.00    +0.000 A 
ATOM     23  F   UNL     1      -4.963  11.092  16.925  0.00  0.00    +0.000 F 
ATOM     24  C   UNL     1      -4.816  12.088  19.057  0.00  0.00    +0.000 A 
ENDBRANCH  17  18
ENDBRANCH  15  17
ENDBRANCH  12  15
BRANCH  10  25
ATOM     25  C   UNL     1       2.093   7.234  21.056  0.00  0.00    +0.000 C 
BRANCH  25  26
ATOM     26  C   UNL     1       2.262   6.097  20.080  0.00  0.00    +0.000 A 
ATOM     27  C   UNL     1       1.299   5.096  19.957  0.00  0.00    +0.000 A 
ATOM     28  C   UNL     1       1.356   4.193  18.898  0.00  0.00    +0.000 A 
ATOM     29  C   UNL     1       2.415   4.239  18.000  0.00  0.00    +0.000 A 
ATOM     30  C   UNL     1       3.457   5.167  18.152  0.00  0.00    +0.000 A 
ATOM     31  C   UNL     1       3.353   6.095  19.200  0.00  0.00    +0.000 A 
BRANCH  30  32
ATOM     32  C   UNL     1       4.632   5.182  17.267  0.00  0.00    +0.000 A 
ATOM     33  C   UNL     1       5.696   6.080  17.463  0.00  0.00    +0.000 A 
ATOM     34  C   UNL     1       6.842   6.018  16.675  0.00  0.00    +0.000 A 
ATOM     35  C   UNL     1       6.919   5.092  15.638  0.00  0.00    +0.000 A 
ATOM     36  C   UNL     1       5.865   4.218  15.401  0.00  0.00    +0.000 A 
ATOM     37  C   UNL     1       4.743   4.250  16.222  0.00  0.00    +0.000 A 
ENDBRANCH  30  32
ENDBRANCH  25  26
ENDBRANCH  10  25
TORSDOF 6
ENDMDL
MODEL 5
REMARK VINA RESULT:      -9.1      1.065      1.355
REMARK  Name = 
REMARK  6 active torsions:
REMARK  status: ('A' for Active; 'I' for Inactive)
REMARK    1  A    between atoms: N_10  and  C_11
REMARK    2  A    between atoms: C_11  and  C_12
REMARK    3  A    between atoms: C_16  and  C_17
REMARK    4  A    between atoms: C_25  and  N_26
REMARK    5  A    between atoms: N_26  and  C_27
REMARK    6  A    between atoms: C_27  and  C_28
REMARK                            x       y       z     vdW  Elec       q    Type
REMARK                         _______ _______ _______ _____ _____    ______ ____
ROOT
ATOM      1  O   UNL     1       0.647   8.147  22.207  0.00  0.00    +0.000 OA
ATOM      2  C   UNL     1       1.029   8.449  21.080  0.00  0.00    +0.000 A 
ATOM      3  C   UNL     1       0.741   9.725  20.502  0.00  0.00    +0.000 A 
ATOM      4  C   UNL     1       0.026  10.822  21.064  0.00  0.00    +0.000 A 
ATOM      5  C   UNL     1      -0.062  11.868  20.162  0.00  0.00    +0.000 A 
ATOM      6  S   UNL     1       0.722  11.542  18.691  0.00  0.00    +0.000 S 
ATOM      7  C   UNL     1       1.144   9.972  19.209  0.00  0.00    +0.000 A 
ATOM      8  N   UNL     1       1.801   9.098  18.399  0.00  0.00    +0.000 NA
ATOM      9  C   UNL     1       2.059   7.968  18.950  0.00  0.00    +0.000 A 
ATOM     10  N   UNL     1       1.737   7.583  20.244  0.00  0.00    +0.000 N 
ATOM     11  C   UNL     1      -0.768  13.162  20.425  0.00  0.00    +0.000 C 
ATOM     12  C   UNL     1      -1.788  12.974  21.592  0.00  0.00    +0.000 C 
ATOM     13  C   UNL     1      -1.056  12.294  22.773  0.00  0.00    +0.000 C 
ATOM     14  C   UNL     1      -0.618  10.866  22.417  0.00  0.00    +0.000 C 
ENDROOT
BRANCH  12  15
ATOM     15  N   UNL     1      -2.975  12.188  21.190  0.00  0.00    +0.000 NA
ATOM     16  H   UNL     1      -3.141  11.445  21.863  0.00  0.00    +0.000 HD
BRANCH  15  17
ATOM     17  C   UNL     1      -4.186  13.018  21.099  0.00  0.00    +0.000 C 
BRANCH  17  18
ATOM     18  C   UNL     1      -5.117  12.484  20.046  0.00  0.00    +0.000 A 
ATOM     19  C   UNL     1      -6.500  12.509  20.278  0.00  0.00    +0.000 A 
ATOM     20  C   UNL     1      -7.389  12.160  19.270  0.00  0.00    +0.000 A 
ATOM     21  C   UNL     1      -6.909  11.708  18.045  0.00  0.00    +0.000 A 
ATOM     22  C   UNL     1      -5.537  11.612  17.836  0.00  0.00    +0.000 A 
ATOM     23  F   UNL     1      -5.079  11.154  16.665  0.00  0.00    +0.000 F 
ATOM     24  C   UNL     1      -4.635  12.013  18.816  0.00  0.00    +0.000 A 
ENDBRANCH  17  18
ENDBRANCH  15  17
ENDBRANCH  12  15
BRANCH  10  25
ATOM     25  C   UNL     1       2.091   6.284  20.798  0.00  0.00    +0.000 C 
BRANCH  25  26
ATOM     26  C   UNL     1       2.291   5.253  19.715  0.00  0.00    +0.000 A 
ATOM     27  C   UNL     1       1.283   4.349  19.378  0.00  0.00    +0.000 A 
ATOM     28  C   UNL     1       1.396   3.568  18.230  0.00  0.00    +0.000 A 
ATOM     29  C   UNL     1       2.547   3.631  17.455  0.00  0.00    +0.000 A 
ATOM     30  C   UNL     1       3.625   4.452  17.820  0.00  0.00    +0.000 A 
ATOM     31  C   UNL     1       3.469   5.264  18.955  0.00  0.00    +0.000 A 
BRANCH  30  32
ATOM     32  C   UNL     1       4.887   4.475  17.066  0.00  0.00    +0.000 A 
ATOM     33  C   UNL     1       4.912   4.448  15.659  0.00  0.00    +0.000 A 
ATOM     34  C   UNL     1       6.109   4.566  14.960  0.00  0.00    +0.000 A 
ATOM     35  C   UNL     1       7.312   4.655  15.656  0.00  0.00    +0.000 A 
ATOM     36  C   UNL     1       7.317   4.647  17.046  0.00  0.00    +0.000 A 
ATOM     37  C   UNL     1       6.115   4.579  17.742  0.00  0.00    +0.000 A 
ENDBRANCH  30  32
ENDBRANCH  25  26
ENDBRANCH  10  25
TORSDOF 6
ENDMDL
MODEL 6
REMARK VINA RESULT:      -9.1      5.279      7.408
REMARK  Name = 
REMARK  6 active torsions:
REMARK  status: ('A' for Active; 'I' for Inactive)
REMARK    1  A    between atoms: N_10  and  C_11
REMARK    2  A    between atoms: C_11  and  C_12
REMARK    3  A    between atoms: C_16  and  C_17
REMARK    4  A    between atoms: C_25  and  N_26
REMARK    5  A    between atoms: N_26  and  C_27
REMARK    6  A    between atoms: C_27  and  C_28
REMARK                            x       y       z     vdW  Elec       q    Type
REMARK                         _______ _______ _______ _____ _____    ______ ____
ROOT
ATOM      1  O   UNL     1       2.504  12.191  17.664  0.00  0.00    +0.000 OA
ATOM      2  C   UNL     1       1.991  12.326  18.771  0.00  0.00    +0.000 A 
ATOM      3  C   UNL     1       2.256  13.467  19.592  0.00  0.00    +0.000 A 
ATOM      4  C   UNL     1       3.087  14.592  19.320  0.00  0.00    +0.000 A 
ATOM      5  C   UNL     1       3.102  15.466  20.393  0.00  0.00    +0.000 A 
ATOM      6  S   UNL     1       2.116  14.954  21.678  0.00  0.00    +0.000 S 
ATOM      7  C   UNL     1       1.697  13.523  20.848  0.00  0.00    +0.000 A 
ATOM      8  N   UNL     1       0.900  12.573  21.408  0.00  0.00    +0.000 NA
ATOM      9  C   UNL     1       0.667  11.569  20.643  0.00  0.00    +0.000 A 
ATOM     10  N   UNL     1       1.140  11.384  19.351  0.00  0.00    +0.000 N 
ATOM     11  C   UNL     1       3.894  16.736  20.446  0.00  0.00    +0.000 C 
ATOM     12  C   UNL     1       5.050  16.676  19.399  0.00  0.00    +0.000 C 
ATOM     13  C   UNL     1       4.451  16.252  18.038  0.00  0.00    +0.000 C 
ATOM     14  C   UNL     1       3.906  14.816  18.085  0.00  0.00    +0.000 C 
ENDROOT
BRANCH  12  15
ATOM     15  N   UNL     1       6.137  15.757  19.802  0.00  0.00    +0.000 NA
ATOM     16  H   UNL     1       5.977  14.838  19.401  0.00  0.00    +0.000 HD
BRANCH  15  17
ATOM     17  C   UNL     1       7.458  16.235  19.368  0.00  0.00    +0.000 C 
BRANCH  17  18
ATOM     18  C   UNL     1       8.212  15.142  18.662  0.00  0.00    +0.000 A 
ATOM     19  C   UNL     1       9.611  15.209  18.594  0.00  0.00    +0.000 A 
ATOM     20  C   UNL     1      10.342  14.147  18.081  0.00  0.00    +0.000 A 
ATOM     21  C   UNL     1       9.685  13.039  17.557  0.00  0.00    +0.000 A 
ATOM     22  C   UNL     1       8.294  13.001  17.556  0.00  0.00    +0.000 A 
ATOM     23  F   UNL     1       7.664  11.943  17.029  0.00  0.00    +0.000 F 
ATOM     24  C   UNL     1       7.550  14.031  18.119  0.00  0.00    +0.000 A 
ENDBRANCH  17  18
ENDBRANCH  15  17
ENDBRANCH  12  15
BRANCH  10  25
ATOM     25  C   UNL     1       0.804  10.220  18.542  0.00  0.00    +0.000 C 
BRANCH  25  26
ATOM     26  C   UNL     1       1.480   8.972  19.053  0.00  0.00    +0.000 A 
ATOM     27  C   UNL     1       1.259   8.505  20.347  0.00  0.00    +0.000 A 
ATOM     28  C   UNL     1       1.702   7.238  20.721  0.00  0.00    +0.000 A 
ATOM     29  C   UNL     1       2.431   6.463  19.827  0.00  0.00    +0.000 A 
ATOM     30  C   UNL     1       2.762   6.943  18.551  0.00  0.00    +0.000 A 
ATOM     31  C   UNL     1       2.265   8.203  18.182  0.00  0.00    +0.000 A 
BRANCH  30  32
ATOM     32  C   UNL     1       3.603   6.180  17.617  0.00  0.00    +0.000 A 
ATOM     33  C   UNL     1       4.537   6.810  16.775  0.00  0.00    +0.000 A 
ATOM     34  C   UNL     1       5.392   6.066  15.967  0.00  0.00    +0.000 A 
ATOM     35  C   UNL     1       5.288   4.677  15.944  0.00  0.00    +0.000 A 
ATOM     36  C   UNL     1       4.348   4.033  16.740  0.00  0.00    +0.000 A 
ATOM     37  C   UNL     1       3.530   4.777  17.583  0.00  0.00    +0.000 A 
ENDBRANCH  30  32
ENDBRANCH  25  26
ENDBRANCH  10  25
TORSDOF 6
ENDMDL
MODEL 7
REMARK VINA RESULT:      -9.1      1.749      2.044
REMARK  Name = 
REMARK  6 active torsions:
REMARK  status: ('A' for Active; 'I' for Inactive)
REMARK    1  A    between atoms: N_10  and  C_11
REMARK    2  A    between atoms: C_11  and  C_12
REMARK    3  A    between atoms: C_16  and  C_17
REMARK    4  A    between atoms: C_25  and  N_26
REMARK    5  A    between atoms: N_26  and  C_27
REMARK    6  A    between atoms: C_27  and  C_28
REMARK                            x       y       z     vdW  Elec       q    Type
REMARK                         _______ _______ _______ _____ _____    ______ ____
ROOT
ATOM      1  O   UNL     1       0.496   8.878  22.519  0.00  0.00    +0.000 OA
ATOM      2  C   UNL     1       0.772   9.055  21.335  0.00  0.00    +0.000 A 
ATOM      3  C   UNL     1       0.410  10.256  20.647  0.00  0.00    +0.000 A 
ATOM      4  C   UNL     1      -0.274  11.402  21.145  0.00  0.00    +0.000 A 
ATOM      5  C   UNL     1      -0.461  12.339  20.145  0.00  0.00    +0.000 A 
ATOM      6  S   UNL     1       0.199  11.859  18.655  0.00  0.00    +0.000 S 
ATOM      7  C   UNL     1       0.694  10.361  19.305  0.00  0.00    +0.000 A 
ATOM      8  N   UNL     1       1.296   9.408  18.542  0.00  0.00    +0.000 NA
ATOM      9  C   UNL     1       1.623   8.349  19.189  0.00  0.00    +0.000 A 
ATOM     10  N   UNL     1       1.422   8.109  20.541  0.00  0.00    +0.000 N 
ATOM     11  C   UNL     1      -1.167  13.648  20.324  0.00  0.00    +0.000 C 
ATOM     12  C   UNL     1      -2.078  13.582  21.590  0.00  0.00    +0.000 C 
ATOM     13  C   UNL     1      -1.233  13.046  22.769  0.00  0.00    +0.000 C 
ATOM     14  C   UNL     1      -0.800  11.591  22.537  0.00  0.00    +0.000 C 
ENDROOT
BRANCH  12  15
ATOM     15  N   UNL     1      -3.280  12.744  21.384  0.00  0.00    +0.000 NA
ATOM     16  H   UNL     1      -3.677  12.485  22.282  0.00  0.00    +0.000 HD
BRANCH  15  17
ATOM     17  C   UNL     1      -4.311  13.437  20.596  0.00  0.00    +0.000 C 
BRANCH  17  18
ATOM     18  C   UNL     1      -5.235  12.446  19.944  0.00  0.00    +0.000 A 
ATOM     19  C   UNL     1      -5.085  12.165  18.578  0.00  0.00    +0.000 A 
ATOM     20  C   UNL     1      -5.823  11.151  17.983  0.00  0.00    +0.000 A 
ATOM     21  C   UNL     1      -6.776  10.459  18.723  0.00  0.00    +0.000 A 
ATOM     22  C   UNL     1      -6.980  10.785  20.060  0.00  0.00    +0.000 A 
ATOM     23  F   UNL     1      -7.915  10.134  20.763  0.00  0.00    +0.000 F 
ATOM     24  C   UNL     1      -6.207  11.758  20.684  0.00  0.00    +0.000 A 
ENDBRANCH  17  18
ENDBRANCH  15  17
ENDBRANCH  12  15
BRANCH  10  25
ATOM     25  C   UNL     1       1.849   6.883  21.202  0.00  0.00    +0.000 C 
BRANCH  25  26
ATOM     26  C   UNL     1       2.002   5.746  20.222  0.00  0.00    +0.000 A 
ATOM     27  C   UNL     1       1.097   4.686  20.192  0.00  0.00    +0.000 A 
ATOM     28  C   UNL     1       1.117   3.776  19.138  0.00  0.00    +0.000 A 
ATOM     29  C   UNL     1       2.089   3.876  18.149  0.00  0.00    +0.000 A 
ATOM     30  C   UNL     1       3.080   4.868  18.203  0.00  0.00    +0.000 A 
ATOM     31  C   UNL     1       3.010   5.801  19.249  0.00  0.00    +0.000 A 
BRANCH  30  32
ATOM     32  C   UNL     1       4.169   4.945  17.217  0.00  0.00    +0.000 A 
ATOM     33  C   UNL     1       4.791   3.792  16.707  0.00  0.00    +0.000 A 
ATOM     34  C   UNL     1       5.753   3.878  15.704  0.00  0.00    +0.000 A 
ATOM     35  C   UNL     1       6.152   5.127  15.235  0.00  0.00    +0.000 A 
ATOM     36  C   UNL     1       5.579   6.284  15.749  0.00  0.00    +0.000 A 
ATOM     37  C   UNL     1       4.582   6.191  16.715  0.00  0.00    +0.000 A 
ENDBRANCH  30  32
ENDBRANCH  25  26
ENDBRANCH  10  25
TORSDOF 6
ENDMDL
MODEL 8
REMARK VINA RESULT:      -9.1      5.296      7.633
REMARK  Name = 
REMARK  6 active torsions:
REMARK  status: ('A' for Active; 'I' for Inactive)
REMARK    1  A    between atoms: N_10  and  C_11
REMARK    2  A    between atoms: C_11  and  C_12
REMARK    3  A    between atoms: C_16  and  C_17
REMARK    4  A    between atoms: C_25  and  N_26
REMARK    5  A    between atoms: N_26  and  C_27
REMARK    6  A    between atoms: C_27  and  C_28
REMARK                            x       y       z     vdW  Elec       q    Type
REMARK                         _______ _______ _______ _____ _____    ______ ____
ROOT
ATOM      1  O   UNL     1       2.694  12.029  17.900  0.00  0.00    +0.000 OA
ATOM      2  C   UNL     1       2.116  12.316  18.946  0.00  0.00    +0.000 A 
ATOM      3  C   UNL     1       2.473  13.469  19.713  0.00  0.00    +0.000 A 
ATOM      4  C   UNL     1       3.475  14.446  19.447  0.00  0.00    +0.000 A 
ATOM      5  C   UNL     1       3.526  15.388  20.460  0.00  0.00    +0.000 A 
ATOM      6  S   UNL     1       2.376  15.114  21.679  0.00  0.00    +0.000 S 
ATOM      7  C   UNL     1       1.827  13.695  20.907  0.00  0.00    +0.000 A 
ATOM      8  N   UNL     1       0.860  12.907  21.451  0.00  0.00    +0.000 NA
ATOM      9  C   UNL     1       0.550  11.889  20.733  0.00  0.00    +0.000 A 
ATOM     10  N   UNL     1       1.096  11.544  19.504  0.00  0.00    +0.000 N 
ATOM     11  C   UNL     1       4.484  16.539  20.504  0.00  0.00    +0.000 C 
ATOM     12  C   UNL     1       5.701  16.244  19.572  0.00  0.00    +0.000 C 
ATOM     13  C   UNL     1       5.160  15.803  18.192  0.00  0.00    +0.000 C 
ATOM     14  C   UNL     1       4.416  14.463  18.280  0.00  0.00    +0.000 C 
ENDROOT
BRANCH  12  15
ATOM     15  N   UNL     1       6.610  15.218  20.130  0.00  0.00    +0.000 NA
ATOM     16  H   UNL     1       6.120  14.332  20.213  0.00  0.00    +0.000 HD
BRANCH  15  17
ATOM     17  C   UNL     1       7.803  15.019  19.293  0.00  0.00    +0.000 C 
BRANCH  17  18
ATOM     18  C   UNL     1       8.533  13.770  19.699  0.00  0.00    +0.000 A 
ATOM     19  C   UNL     1       8.553  13.396  21.051  0.00  0.00    +0.000 A 
ATOM     20  C   UNL     1       9.091  12.176  21.436  0.00  0.00    +0.000 A 
ATOM     21  C   UNL     1       9.686  11.349  20.490  0.00  0.00    +0.000 A 
ATOM     22  C   UNL     1       9.735  11.749  19.158  0.00  0.00    +0.000 A 
ATOM     23  F   UNL     1      10.330  10.962  18.254  0.00  0.00    +0.000 F 
ATOM     24  C   UNL     1       9.148  12.941  18.749  0.00  0.00    +0.000 A 
ENDBRANCH  17  18
ENDBRANCH  15  17
ENDBRANCH  12  15
BRANCH  10  25
ATOM     25  C   UNL     1       0.664  10.379  18.743  0.00  0.00    +0.000 C 
BRANCH  25  26
ATOM     26  C   UNL     1       1.320   9.115  19.241  0.00  0.00    +0.000 A 
ATOM     27  C   UNL     1       1.064   8.620  20.519  0.00  0.00    +0.000 A 
ATOM     28  C   UNL     1       1.488   7.341  20.874  0.00  0.00    +0.000 A 
ATOM     29  C   UNL     1       2.233   6.581  19.980  0.00  0.00    +0.000 A 
ATOM     30  C   UNL     1       2.598   7.088  18.723  0.00  0.00    +0.000 A 
ATOM     31  C   UNL     1       2.119   8.360  18.372  0.00  0.00    +0.000 A 
BRANCH  30  32
ATOM     32  C   UNL     1       3.456   6.340  17.793  0.00  0.00    +0.000 A 
ATOM     33  C   UNL     1       4.439   6.977  17.014  0.00  0.00    +0.000 A 
ATOM     34  C   UNL     1       5.307   6.242  16.211  0.00  0.00    +0.000 A 
ATOM     35  C   UNL     1       5.167   4.859  16.127  0.00  0.00    +0.000 A 
ATOM     36  C   UNL     1       4.180   4.210  16.858  0.00  0.00    +0.000 A 
ATOM     37  C   UNL     1       3.348   4.942  17.698  0.00  0.00    +0.000 A 
ENDBRANCH  30  32
ENDBRANCH  25  26
ENDBRANCH  10  25
TORSDOF 6
ENDMDL
MODEL 9
REMARK VINA RESULT:      -9.1      3.316      5.286
REMARK  Name = 
REMARK  6 active torsions:
REMARK  status: ('A' for Active; 'I' for Inactive)
REMARK    1  A    between atoms: N_10  and  C_11
REMARK    2  A    between atoms: C_11  and  C_12
REMARK    3  A    between atoms: C_16  and  C_17
REMARK    4  A    between atoms: C_25  and  N_26
REMARK    5  A    between atoms: N_26  and  C_27
REMARK    6  A    between atoms: C_27  and  C_28
REMARK                            x       y       z     vdW  Elec       q    Type
REMARK                         _______ _______ _______ _____ _____    ______ ____
ROOT
ATOM      1  O   UNL     1      -0.466  12.331  19.846  0.00  0.00    +0.000 OA
ATOM      2  C   UNL     1      -1.043  11.584  19.060  0.00  0.00    +0.000 A 
ATOM      3  C   UNL     1      -2.463  11.619  18.892  0.00  0.00    +0.000 A 
ATOM      4  C   UNL     1      -3.421  12.458  19.531  0.00  0.00    +0.000 A 
ATOM      5  C   UNL     1      -4.704  12.150  19.114  0.00  0.00    +0.000 A 
ATOM      6  S   UNL     1      -4.745  10.903  17.961  0.00  0.00    +0.000 S 
ATOM      7  C   UNL     1      -3.051  10.709  18.043  0.00  0.00    +0.000 A 
ATOM      8  N   UNL     1      -2.401   9.748  17.331  0.00  0.00    +0.000 NA
ATOM      9  C   UNL     1      -1.127   9.751  17.491  0.00  0.00    +0.000 A 
ATOM     10  N   UNL     1      -0.394  10.616  18.292  0.00  0.00    +0.000 N 
ATOM     11  C   UNL     1      -5.945  12.825  19.609  0.00  0.00    +0.000 C 
ATOM     12  C   UNL     1      -5.654  13.522  20.976  0.00  0.00    +0.000 C 
ATOM     13  C   UNL     1      -4.374  14.378  20.821  0.00  0.00    +0.000 C 
ATOM     14  C   UNL     1      -3.138  13.502  20.569  0.00  0.00    +0.000 C 
ENDROOT
BRANCH  12  15
ATOM     15  N   UNL     1      -5.506  12.556  22.087  0.00  0.00    +0.000 NA
ATOM     16  H   UNL     1      -4.524  12.342  22.229  0.00  0.00    +0.000 HD
BRANCH  15  17
ATOM     17  C   UNL     1      -6.061  13.072  23.348  0.00  0.00    +0.000 C 
BRANCH  17  18
ATOM     18  C   UNL     1      -5.222  14.205  23.871  0.00  0.00    +0.000 A 
ATOM     19  C   UNL     1      -5.777  15.491  23.945  0.00  0.00    +0.000 A 
ATOM     20  C   UNL     1      -5.080  16.523  24.558  0.00  0.00    +0.000 A 
ATOM     21  C   UNL     1      -3.792  16.306  25.035  0.00  0.00    +0.000 A 
ATOM     22  C   UNL     1      -3.209  15.050  24.897  0.00  0.00    +0.000 A 
ATOM     23  F   UNL     1      -1.960  14.851  25.335  0.00  0.00    +0.000 F 
ATOM     24  C   UNL     1      -3.917  13.992  24.338  0.00  0.00    +0.000 A 
ENDBRANCH  17  18
ENDBRANCH  15  17
ENDBRANCH  12  15
BRANCH  10  25
ATOM     25  C   UNL     1       1.058  10.564  18.395  0.00  0.00    +0.000 C 
BRANCH  25  26
ATOM     26  C   UNL     1       1.526   9.277  19.027  0.00  0.00    +0.000 A 
ATOM     27  C   UNL     1       1.140   8.921  20.319  0.00  0.00    +0.000 A 
ATOM     28  C   UNL     1       1.385   7.635  20.795  0.00  0.00    +0.000 A 
ATOM     29  C   UNL     1       2.082   6.723  20.011  0.00  0.00    +0.000 A 
ATOM     30  C   UNL     1       2.576   7.080  18.747  0.00  0.00    +0.000 A 
ATOM     31  C   UNL     1       2.276   8.366  18.271  0.00  0.00    +0.000 A 
BRANCH  30  32
ATOM     32  C   UNL     1       3.389   6.164  17.933  0.00  0.00    +0.000 A 
ATOM     33  C   UNL     1       3.130   4.782  17.890  0.00  0.00    +0.000 A 
ATOM     34  C   UNL     1       3.847   3.943  17.041  0.00  0.00    +0.000 A 
ATOM     35  C   UNL     1       4.877   4.464  16.263  0.00  0.00    +0.000 A 
ATOM     36  C   UNL     1       5.177   5.820  16.315  0.00  0.00    +0.000 A 
ATOM     37  C   UNL     1       4.425   6.663  17.126  0.00  0.00    +0.000 A 
ENDBRANCH  30  32
ENDBRANCH  25  26
ENDBRANCH  10  25
TORSDOF 6
ENDMDL
