MODEL 1
REMARK VINA RESULT:      -8.5      0.000      0.000
REMARK  Name = 
REMARK  13 active torsions:
REMARK  status: ('A' for Active; 'I' for Inactive)
REMARK    1  A    between atoms: C_1  and  C_2
REMARK    2  A    between atoms: C_2  and  C_3
REMARK    3  A    between atoms: C_2  and  C_4
REMARK    4  A    between atoms: C_4  and  C_6
REMARK    5  A    between atoms: C_9  and  O_10
REMARK    6  A    between atoms: O_10  and  C_11
REMARK    7  A    between atoms: C_11  and  C_12
REMARK    8  A    between atoms: C_15  and  C_16
REMARK    9  A    between atoms: C_16  and  N_17
REMARK   10  A    between atoms: C_18  and  C_20
REMARK   11  A    between atoms: N_22  and  C_23
REMARK   12  A    between atoms: C_28  and  C_29
REMARK   13  A    between atoms: C_33  and  O_34
REMARK                            x       y       z     vdW  Elec       q    Type
REMARK                         _______ _______ _______ _____ _____    ______ ____
ROOT
ATOM      1  O   UNL     1       4.785   4.602  18.668  0.00  0.00    +0.000 OA
ENDROOT
BRANCH   1   5
ATOM      2  C   UNL     1       6.027   4.213  14.679  0.00  0.00    +0.000 A 
ATOM      3  C   UNL     1       4.881   3.547  15.120  0.00  0.00    +0.000 A 
ATOM      4  C   UNL     1       4.450   3.668  16.441  0.00  0.00    +0.000 A 
ATOM      5  C   UNL     1       5.172   4.432  17.364  0.00  0.00    +0.000 A 
ATOM      6  C   UNL     1       6.365   5.061  16.959  0.00  0.00    +0.000 A 
ATOM      7  C   UNL     1       6.776   4.955  15.606  0.00  0.00    +0.000 A 
BRANCH   6   8
ATOM      8  C   UNL     1       7.236   5.809  17.937  0.00  0.00    +0.000 C 
ATOM      9  F   UNL     1       6.670   6.244  19.089  0.00  0.00    +0.000 F 
ATOM     10  F   UNL     1       8.301   5.039  18.319  0.00  0.00    +0.000 F 
ATOM     11  F   UNL     1       7.808   6.908  17.363  0.00  0.00    +0.000 F 
ENDBRANCH   6   8
BRANCH   2  12
ATOM     12  C   UNL     1       6.387   4.036  13.234  0.00  0.00    +0.000 C 
ATOM     13  O   UNL     1       7.236   4.797  12.768  0.00  0.00    +0.000 OA
BRANCH  12  15
ATOM     14  C   UNL     1       4.560   3.453  11.607  0.00  0.00    +0.000 C 
ATOM     15  C   UNL     1       5.754   2.916  12.399  0.00  0.00    +0.000 C 
ATOM     16  C   UNL     1       6.765   2.287  11.442  0.00  0.00    +0.000 C 
ENDBRANCH  12  15
ENDBRANCH   2  12
BRANCH   7  17
ATOM     17  O   UNL     1       7.934   5.540  15.169  0.00  0.00    +0.000 OA
ATOM     18  H   UNL     1       8.643   5.546  15.836  0.00  0.00    +0.000 HD
ENDBRANCH   7  17
ENDBRANCH   1   5
BRANCH   1  19
ATOM     19  C   UNL     1       3.403   4.414  18.977  0.00  0.00    +0.000 C 
BRANCH  19  20
ATOM     20  C   UNL     1       2.755   5.744  19.270  0.00  0.00    +0.000 A 
ATOM     21  C   UNL     1       2.063   5.958  20.469  0.00  0.00    +0.000 A 
ATOM     22  C   UNL     1       1.494   7.204  20.746  0.00  0.00    +0.000 A 
ATOM     23  C   UNL     1       1.589   8.254  19.823  0.00  0.00    +0.000 A 
ATOM     24  C   UNL     1       2.281   8.039  18.625  0.00  0.00    +0.000 A 
ATOM     25  C   UNL     1       2.849   6.793  18.347  0.00  0.00    +0.000 A 
BRANCH  23  26
ATOM     26  C   UNL     1       0.933   9.577  20.108  0.00  0.00    +0.000 C 
BRANCH  26  27
ATOM     27  N   UNL     1      -0.311   9.753  19.409  0.00  0.00    +0.000 N 
ATOM     28  C   UNL     1      -0.520  10.874  18.635  0.00  0.00    +0.000 C 
ATOM     29  O   UNL     1       0.304  11.781  18.532  0.00  0.00    +0.000 OA
ATOM     30  H   UNL     1      -1.038   9.045  19.415  0.00  0.00    +0.000 HD
BRANCH  28  31
ATOM     31  C   UNL     1      -1.799  10.887  17.934  0.00  0.00    +0.000 A 
ATOM     32  C   UNL     1      -2.918  11.608  18.308  0.00  0.00    +0.000 A 
ATOM     33  N   UNL     1      -3.858  11.339  17.358  0.00  0.00    +0.000 N 
ATOM     34  C   UNL     1      -5.189  11.887  17.295  0.00  0.00    +0.000 C 
ATOM     35  C   UNL     1      -3.309  10.465  16.462  0.00  0.00    +0.000 A 
ATOM     36  N   UNL     1      -2.064  10.173  16.773  0.00  0.00    +0.000 NA
ENDBRANCH  28  31
ENDBRANCH  26  27
ENDBRANCH  23  26
ENDBRANCH  19  20
ENDBRANCH   1  19
TORSDOF 10
ENDMDL
MODEL 2
REMARK VINA RESULT:      -8.5      2.018      2.570
REMARK  Name = 
REMARK  13 active torsions:
REMARK  status: ('A' for Active; 'I' for Inactive)
REMARK    1  A    between atoms: C_1  and  C_2
REMARK    2  A    between atoms: C_2  and  C_3
REMARK    3  A    between atoms: C_2  and  C_4
REMARK    4  A    between atoms: C_4  and  C_6
REMARK    5  A    between atoms: C_9  and  O_10
REMARK    6  A    between atoms: O_10  and  C_11
REMARK    7  A    between atoms: C_11  and  C_12
REMARK    8  A    between atoms: C_15  and  C_16
REMARK    9  A    between atoms: C_16  and  N_17
REMARK   10  A    between atoms: C_18  and  C_20
REMARK   11  A    between atoms: N_22  and  C_23
REMARK   12  A    between atoms: C_28  and  C_29
REMARK   13  A    between atoms: C_33  and  O_34
REMARK                            x       y       z     vdW  Elec       q    Type
REMARK                         _______ _______ _______ _____ _____    ______ ____
ROOT
ATOM      1  O   UNL     1       4.426   4.563  18.948  0.00  0.00    +0.000 OA
ENDROOT
BRANCH   1   5
ATOM      2  C   UNL     1       5.985   4.447  15.055  0.00  0.00    +0.000 A 
ATOM      3  C   UNL     1       4.848   3.699  15.373  0.00  0.00    +0.000 A 
ATOM      4  C   UNL     1       4.313   3.728  16.660  0.00  0.00    +0.000 A 
ATOM      5  C   UNL     1       4.919   4.481  17.672  0.00  0.00    +0.000 A 
ATOM      6  C   UNL     1       6.101   5.192  17.392  0.00  0.00    +0.000 A 
ATOM      7  C   UNL     1       6.619   5.177  16.072  0.00  0.00    +0.000 A 
BRANCH   6   8
ATOM      8  C   UNL     1       6.853   5.933  18.469  0.00  0.00    +0.000 C 
ATOM      9  F   UNL     1       6.365   5.885  19.732  0.00  0.00    +0.000 F 
ATOM     10  F   UNL     1       8.142   5.480  18.556  0.00  0.00    +0.000 F 
ATOM     11  F   UNL     1       6.985   7.259  18.170  0.00  0.00    +0.000 F 
ENDBRANCH   6   8
BRANCH   2  12
ATOM     12  C   UNL     1       6.462   4.363  13.635  0.00  0.00    +0.000 C 
ATOM     13  O   UNL     1       7.271   5.215  13.263  0.00  0.00    +0.000 OA
BRANCH  12  15
ATOM     14  C   UNL     1       4.726   3.643  11.964  0.00  0.00    +0.000 C 
ATOM     15  C   UNL     1       5.994   3.230  12.715  0.00  0.00    +0.000 C 
ATOM     16  C   UNL     1       7.078   2.834  11.714  0.00  0.00    +0.000 C 
ENDBRANCH  12  15
ENDBRANCH   2  12
BRANCH   7  17
ATOM     17  O   UNL     1       7.772   5.845  15.754  0.00  0.00    +0.000 OA
ATOM     18  H   UNL     1       7.655   6.511  15.054  0.00  0.00    +0.000 HD
ENDBRANCH   7  17
ENDBRANCH   1   5
BRANCH   1  19
ATOM     19  C   UNL     1       3.010   4.663  19.104  0.00  0.00    +0.000 C 
BRANCH  19  20
ATOM     20  C   UNL     1       2.586   6.109  19.049  0.00  0.00    +0.000 A 
ATOM     21  C   UNL     1       2.637   6.827  17.847  0.00  0.00    +0.000 A 
ATOM     22  C   UNL     1       2.211   8.158  17.798  0.00  0.00    +0.000 A 
ATOM     23  C   UNL     1       1.745   8.802  18.952  0.00  0.00    +0.000 A 
ATOM     24  C   UNL     1       1.695   8.083  20.152  0.00  0.00    +0.000 A 
ATOM     25  C   UNL     1       2.121   6.753  20.202  0.00  0.00    +0.000 A 
BRANCH  23  26
ATOM     26  C   UNL     1       1.333  10.248  18.900  0.00  0.00    +0.000 C 
BRANCH  26  27
ATOM     27  N   UNL     1       0.273  10.566  19.817  0.00  0.00    +0.000 N 
ATOM     28  C   UNL     1       0.504  11.417  20.877  0.00  0.00    +0.000 C 
ATOM     29  O   UNL     1       1.606  11.907  21.116  0.00  0.00    +0.000 OA
ATOM     30  H   UNL     1      -0.675  10.230  19.683  0.00  0.00    +0.000 HD
BRANCH  28  31
ATOM     31  C   UNL     1      -0.678  11.700  21.684  0.00  0.00    +0.000 A 
ATOM     32  C   UNL     1      -1.874  12.210  21.213  0.00  0.00    +0.000 A 
ATOM     33  N   UNL     1      -2.691  12.285  22.302  0.00  0.00    +0.000 N 
ATOM     34  C   UNL     1      -4.062  12.729  22.312  0.00  0.00    +0.000 C 
ATOM     35  C   UNL     1      -1.983  11.850  23.386  0.00  0.00    +0.000 A 
ATOM     36  N   UNL     1      -0.764  11.483  23.053  0.00  0.00    +0.000 NA
ENDBRANCH  28  31
ENDBRANCH  26  27
ENDBRANCH  23  26
ENDBRANCH  19  20
ENDBRANCH   1  19
TORSDOF 10
ENDMDL
MODEL 3
REMARK VINA RESULT:      -8.3      1.903      2.318
REMARK  Name = 
REMARK  13 active torsions:
REMARK  status: ('A' for Active; 'I' for Inactive)
REMARK    1  A    between atoms: C_1  and  C_2
REMARK    2  A    between atoms: C_2  and  C_3
REMARK    3  A    between atoms: C_2  and  C_4
REMARK    4  A    between atoms: C_4  and  C_6
REMARK    5  A    between atoms: C_9  and  O_10
REMARK    6  A    between atoms: O_10  and  C_11
REMARK    7  A    between atoms: C_11  and  C_12
REMARK    8  A    between atoms: C_15  and  C_16
REMARK    9  A    between atoms: C_16  and  N_17
REMARK   10  A    between atoms: C_18  and  C_20
REMARK   11  A    between atoms: N_22  and  C_23
REMARK   12  A    between atoms: C_28  and  C_29
REMARK   13  A    between atoms: C_33  and  O_34
REMARK                            x       y       z     vdW  Elec       q    Type
REMARK                         _______ _______ _______ _____ _____    ______ ____
ROOT
ATOM      1  O   UNL     1       4.599   4.307  18.988  0.00  0.00    +0.000 OA
ENDROOT
BRANCH   1   5
ATOM      2  C   UNL     1       6.063   4.367  15.057  0.00  0.00    +0.000 A 
ATOM      3  C   UNL     1       5.004   3.520  15.393  0.00  0.00    +0.000 A 
ATOM      4  C   UNL     1       4.501   3.490  16.693  0.00  0.00    +0.000 A 
ATOM      5  C   UNL     1       5.065   4.281  17.700  0.00  0.00    +0.000 A 
ATOM      6  C   UNL     1       6.173   5.096  17.400  0.00  0.00    +0.000 A 
ATOM      7  C   UNL     1       6.657   5.140  16.067  0.00  0.00    +0.000 A 
BRANCH   6   8
ATOM      8  C   UNL     1       6.885   5.888  18.467  0.00  0.00    +0.000 C 
ATOM      9  F   UNL     1       6.394   5.836  19.730  0.00  0.00    +0.000 F 
ATOM     10  F   UNL     1       8.193   5.498  18.565  0.00  0.00    +0.000 F 
ATOM     11  F   UNL     1       6.955   7.214  18.148  0.00  0.00    +0.000 F 
ENDBRANCH   6   8
BRANCH   2  12
ATOM     12  C   UNL     1       6.510   4.340  13.625  0.00  0.00    +0.000 C 
ATOM     13  O   UNL     1       7.301   5.214  13.267  0.00  0.00    +0.000 OA
BRANCH  12  15
ATOM     14  C   UNL     1       4.756   3.668  11.952  0.00  0.00    +0.000 C 
ATOM     15  C   UNL     1       6.034   3.235  12.675  0.00  0.00    +0.000 C 
ATOM     16  C   UNL     1       7.107   2.873  11.650  0.00  0.00    +0.000 C 
ENDBRANCH  12  15
ENDBRANCH   2  12
BRANCH   7  17
ATOM     17  O   UNL     1       7.739   5.908  15.730  0.00  0.00    +0.000 OA
ATOM     18  H   UNL     1       7.844   6.699  16.289  0.00  0.00    +0.000 HD
ENDBRANCH   7  17
ENDBRANCH   1   5
BRANCH   1  19
ATOM     19  C   UNL     1       3.184   4.368  19.179  0.00  0.00    +0.000 C 
BRANCH  19  20
ATOM     20  C   UNL     1       2.717   5.800  19.114  0.00  0.00    +0.000 A 
ATOM     21  C   UNL     1       2.173   6.430  20.242  0.00  0.00    +0.000 A 
ATOM     22  C   UNL     1       1.774   7.768  20.181  0.00  0.00    +0.000 A 
ATOM     23  C   UNL     1       1.891   8.497  18.990  0.00  0.00    +0.000 A 
ATOM     24  C   UNL     1       2.434   7.865  17.864  0.00  0.00    +0.000 A 
ATOM     25  C   UNL     1       2.833   6.528  17.923  0.00  0.00    +0.000 A 
BRANCH  23  26
ATOM     26  C   UNL     1       1.414   9.921  18.921  0.00  0.00    +0.000 C 
BRANCH  26  27
ATOM     27  N   UNL     1       0.598  10.299  20.042  0.00  0.00    +0.000 N 
ATOM     28  C   UNL     1      -0.254  11.378  19.949  0.00  0.00    +0.000 C 
ATOM     29  O   UNL     1      -0.334  12.084  18.945  0.00  0.00    +0.000 OA
ATOM     30  H   UNL     1       0.580   9.759  20.902  0.00  0.00    +0.000 HD
BRANCH  28  31
ATOM     31  C   UNL     1      -1.066  11.603  21.140  0.00  0.00    +0.000 A 
ATOM     32  C   UNL     1      -2.217  12.367  21.200  0.00  0.00    +0.000 A 
ATOM     33  N   UNL     1      -2.648  12.274  22.490  0.00  0.00    +0.000 N 
ATOM     34  C   UNL     1      -3.836  12.877  23.038  0.00  0.00    +0.000 C 
ATOM     35  C   UNL     1      -1.759  11.493  23.172  0.00  0.00    +0.000 A 
ATOM     36  N   UNL     1      -0.792  11.063  22.390  0.00  0.00    +0.000 NA
ENDBRANCH  28  31
ENDBRANCH  26  27
ENDBRANCH  23  26
ENDBRANCH  19  20
ENDBRANCH   1  19
TORSDOF 10
ENDMDL
MODEL 4
REMARK VINA RESULT:      -8.3      0.808      1.323
REMARK  Name = 
REMARK  13 active torsions:
REMARK  status: ('A' for Active; 'I' for Inactive)
REMARK    1  A    between atoms: C_1  and  C_2
REMARK    2  A    between atoms: C_2  and  C_3
REMARK    3  A    between atoms: C_2  and  C_4
REMARK    4  A    between atoms: C_4  and  C_6
REMARK    5  A    between atoms: C_9  and  O_10
REMARK    6  A    between atoms: O_10  and  C_11
REMARK    7  A    between atoms: C_11  and  C_12
REMARK    8  A    between atoms: C_15  and  C_16
REMARK    9  A    between atoms: C_16  and  N_17
REMARK   10  A    between atoms: C_18  and  C_20
REMARK   11  A    between atoms: N_22  and  C_23
REMARK   12  A    between atoms: C_28  and  C_29
REMARK   13  A    between atoms: C_33  and  O_34
REMARK                            x       y       z     vdW  Elec       q    Type
REMARK                         _______ _______ _______ _____ _____    ______ ____
ROOT
ATOM      1  O   UNL     1       4.375   4.469  18.863  0.00  0.00    +0.000 OA
ENDROOT
BRANCH   1   5
ATOM      2  C   UNL     1       6.003   4.437  14.997  0.00  0.00    +0.000 A 
ATOM      3  C   UNL     1       4.864   3.678  15.280  0.00  0.00    +0.000 A 
ATOM      4  C   UNL     1       4.306   3.680  16.558  0.00  0.00    +0.000 A 
ATOM      5  C   UNL     1       4.890   4.415  17.595  0.00  0.00    +0.000 A 
ATOM      6  C   UNL     1       6.074   5.137  17.349  0.00  0.00    +0.000 A 
ATOM      7  C   UNL     1       6.615   5.151  16.039  0.00  0.00    +0.000 A 
BRANCH   6   8
ATOM      8  C   UNL     1       6.802   5.861  18.454  0.00  0.00    +0.000 C 
ATOM      9  F   UNL     1       6.272   5.816  19.700  0.00  0.00    +0.000 F 
ATOM     10  F   UNL     1       8.079   5.384  18.581  0.00  0.00    +0.000 F 
ATOM     11  F   UNL     1       6.968   7.185  18.165  0.00  0.00    +0.000 F 
ENDBRANCH   6   8
BRANCH   2  12
ATOM     12  C   UNL     1       6.505   4.384  13.584  0.00  0.00    +0.000 C 
ATOM     13  O   UNL     1       7.298   5.260  13.236  0.00  0.00    +0.000 OA
BRANCH  12  15
ATOM     14  C   UNL     1       4.801   3.630  11.895  0.00  0.00    +0.000 C 
ATOM     15  C   UNL     1       6.082   3.251  12.642  0.00  0.00    +0.000 C 
ATOM     16  C   UNL     1       7.182   2.913  11.638  0.00  0.00    +0.000 C 
ENDBRANCH  12  15
ENDBRANCH   2  12
BRANCH   7  17
ATOM     17  O   UNL     1       7.770   5.830  15.755  0.00  0.00    +0.000 OA
ATOM     18  H   UNL     1       8.438   5.288  15.301  0.00  0.00    +0.000 HD
ENDBRANCH   7  17
ENDBRANCH   1   5
BRANCH   1  19
ATOM     19  C   UNL     1       2.952   4.476  18.999  0.00  0.00    +0.000 C 
BRANCH  19  20
ATOM     20  C   UNL     1       2.474   5.863  19.346  0.00  0.00    +0.000 A 
ATOM     21  C   UNL     1       2.620   6.921  18.440  0.00  0.00    +0.000 A 
ATOM     22  C   UNL     1       2.143   8.196  18.758  0.00  0.00    +0.000 A 
ATOM     23  C   UNL     1       1.529   8.443  19.993  0.00  0.00    +0.000 A 
ATOM     24  C   UNL     1       1.384   7.383  20.898  0.00  0.00    +0.000 A 
ATOM     25  C   UNL     1       1.862   6.109  20.581  0.00  0.00    +0.000 A 
BRANCH  23  26
ATOM     26  C   UNL     1       1.062   9.828  20.346  0.00  0.00    +0.000 C 
BRANCH  26  27
ATOM     27  N   UNL     1      -0.248  10.130  19.837  0.00  0.00    +0.000 N 
ATOM     28  C   UNL     1      -0.604  11.433  19.567  0.00  0.00    +0.000 C 
ATOM     29  O   UNL     1       0.139  12.390  19.778  0.00  0.00    +0.000 OA
ATOM     30  H   UNL     1      -0.918   9.403  19.608  0.00  0.00    +0.000 HD
BRANCH  28  31
ATOM     31  C   UNL     1      -1.938  11.582  18.994  0.00  0.00    +0.000 A 
ATOM     32  C   UNL     1      -2.311  11.223  17.712  0.00  0.00    +0.000 A 
ATOM     33  N   UNL     1      -3.640  11.514  17.625  0.00  0.00    +0.000 N 
ATOM     34  C   UNL     1      -4.490  11.286  16.485  0.00  0.00    +0.000 C 
ATOM     35  C   UNL     1      -4.029  12.050  18.820  0.00  0.00    +0.000 A 
ATOM     36  N   UNL     1      -3.031  12.102  19.675  0.00  0.00    +0.000 NA
ENDBRANCH  28  31
ENDBRANCH  26  27
ENDBRANCH  23  26
ENDBRANCH  19  20
ENDBRANCH   1  19
TORSDOF 10
ENDMDL
MODEL 5
REMARK VINA RESULT:      -8.2      3.397      4.379
REMARK  Name = 
REMARK  13 active torsions:
REMARK  status: ('A' for Active; 'I' for Inactive)
REMARK    1  A    between atoms: C_1  and  C_2
REMARK    2  A    between atoms: C_2  and  C_3
REMARK    3  A    between atoms: C_2  and  C_4
REMARK    4  A    between atoms: C_4  and  C_6
REMARK    5  A    between atoms: C_9  and  O_10
REMARK    6  A    between atoms: O_10  and  C_11
REMARK    7  A    between atoms: C_11  and  C_12
REMARK    8  A    between atoms: C_15  and  C_16
REMARK    9  A    between atoms: C_16  and  N_17
REMARK   10  A    between atoms: C_18  and  C_20
REMARK   11  A    between atoms: N_22  and  C_23
REMARK   12  A    between atoms: C_28  and  C_29
REMARK   13  A    between atoms: C_33  and  O_34
REMARK                            x       y       z     vdW  Elec       q    Type
REMARK                         _______ _______ _______ _____ _____    ______ ____
ROOT
ATOM      1  O   UNL     1       2.552   6.848  18.676  0.00  0.00    +0.000 OA
ENDROOT
BRANCH   1   5
ATOM      2  C   UNL     1       5.607   5.316  16.243  0.00  0.00    +0.000 A 
ATOM      3  C   UNL     1       5.409   6.697  16.325  0.00  0.00    +0.000 A 
ATOM      4  C   UNL     1       4.401   7.225  17.132  0.00  0.00    +0.000 A 
ATOM      5  C   UNL     1       3.545   6.385  17.853  0.00  0.00    +0.000 A 
ATOM      6  C   UNL     1       3.686   4.989  17.736  0.00  0.00    +0.000 A 
ATOM      7  C   UNL     1       4.732   4.465  16.935  0.00  0.00    +0.000 A 
BRANCH   6   8
ATOM      8  C   UNL     1       2.726   4.039  18.406  0.00  0.00    +0.000 C 
ATOM      9  F   UNL     1       3.225   3.169  19.318  0.00  0.00    +0.000 F 
ATOM     10  F   UNL     1       1.741   4.730  19.059  0.00  0.00    +0.000 F 
ATOM     11  F   UNL     1       2.051   3.278  17.494  0.00  0.00    +0.000 F 
ENDBRANCH   6   8
BRANCH   2  12
ATOM     12  C   UNL     1       6.735   4.856  15.367  0.00  0.00    +0.000 C 
ATOM     13  O   UNL     1       7.738   4.413  15.927  0.00  0.00    +0.000 OA
BRANCH  12  15
ATOM     14  C   UNL     1       7.956   5.236  13.201  0.00  0.00    +0.000 C 
ATOM     15  C   UNL     1       6.608   4.895  13.839  0.00  0.00    +0.000 C 
ATOM     16  C   UNL     1       6.096   3.567  13.283  0.00  0.00    +0.000 C 
ENDBRANCH  12  15
ENDBRANCH   2  12
BRANCH   7  17
ATOM     17  O   UNL     1       4.901   3.115  16.783  0.00  0.00    +0.000 OA
ATOM     18  H   UNL     1       5.799   2.865  16.502  0.00  0.00    +0.000 HD
ENDBRANCH   7  17
ENDBRANCH   1   5
BRANCH   1  19
ATOM     19  C   UNL     1       1.956   8.105  18.350  0.00  0.00    +0.000 C 
BRANCH  19  20
ATOM     20  C   UNL     1       1.365   8.732  19.587  0.00  0.00    +0.000 A 
ATOM     21  C   UNL     1       0.707   9.967  19.523  0.00  0.00    +0.000 A 
ATOM     22  C   UNL     1       0.133  10.524  20.670  0.00  0.00    +0.000 A 
ATOM     23  C   UNL     1       0.222   9.868  21.905  0.00  0.00    +0.000 A 
ATOM     24  C   UNL     1       0.880   8.634  21.967  0.00  0.00    +0.000 A 
ATOM     25  C   UNL     1       1.455   8.077  20.822  0.00  0.00    +0.000 A 
BRANCH  23  26
ATOM     26  C   UNL     1      -0.357  10.497  23.142  0.00  0.00    +0.000 C 
BRANCH  26  27
ATOM     27  N   UNL     1      -1.705  10.962  22.962  0.00  0.00    +0.000 N 
ATOM     28  C   UNL     1      -2.018  12.287  23.179  0.00  0.00    +0.000 C 
ATOM     29  O   UNL     1      -1.196  13.115  23.567  0.00  0.00    +0.000 OA
ATOM     30  H   UNL     1      -2.443  10.356  22.619  0.00  0.00    +0.000 HD
BRANCH  28  31
ATOM     31  C   UNL     1      -3.408  12.627  22.894  0.00  0.00    +0.000 A 
ATOM     32  C   UNL     1      -4.343  13.046  23.823  0.00  0.00    +0.000 A 
ATOM     33  N   UNL     1      -5.484  13.273  23.112  0.00  0.00    +0.000 N 
ATOM     34  C   UNL     1      -6.735  13.757  23.638  0.00  0.00    +0.000 C 
ATOM     35  C   UNL     1      -5.228  12.974  21.804  0.00  0.00    +0.000 A 
ATOM     36  N   UNL     1      -3.983  12.586  21.631  0.00  0.00    +0.000 NA
ENDBRANCH  28  31
ENDBRANCH  26  27
ENDBRANCH  23  26
ENDBRANCH  19  20
ENDBRANCH   1  19
TORSDOF 10
ENDMDL
MODEL 6
REMARK VINA RESULT:      -8.2      0.875      1.538
REMARK  Name = 
REMARK  13 active torsions:
REMARK  status: ('A' for Active; 'I' for Inactive)
REMARK    1  A    between atoms: C_1  and  C_2
REMARK    2  A    between atoms: C_2  and  C_3
REMARK    3  A    between atoms: C_2  and  C_4
REMARK    4  A    between atoms: C_4  and  C_6
REMARK    5  A    between atoms: C_9  and  O_10
REMARK    6  A    between atoms: O_10  and  C_11
REMARK    7  A    between atoms: C_11  and  C_12
REMARK    8  A    between atoms: C_15  and  C_16
REMARK    9  A    between atoms: C_16  and  N_17
REMARK   10  A    between atoms: C_18  and  C_20
REMARK   11  A    between atoms: N_22  and  C_23
REMARK   12  A    between atoms: C_28  and  C_29
REMARK   13  A    between atoms: C_33  and  O_34
REMARK                            x       y       z     vdW  Elec       q    Type
REMARK                         _______ _______ _______ _____ _____    ______ ____
ROOT
ATOM      1  O   UNL     1       4.904   4.067  19.154  0.00  0.00    +0.000 OA
ENDROOT
BRANCH   1   5
ATOM      2  C   UNL     1       6.142   4.359  15.156  0.00  0.00    +0.000 A 
ATOM      3  C   UNL     1       5.184   3.410  15.521  0.00  0.00    +0.000 A 
ATOM      4  C   UNL     1       4.757   3.301  16.844  0.00  0.00    +0.000 A 
ATOM      5  C   UNL     1       5.300   4.117  17.843  0.00  0.00    +0.000 A 
ATOM      6  C   UNL     1       6.312   5.037  17.510  0.00  0.00    +0.000 A 
ATOM      7  C   UNL     1       6.717   5.159  16.157  0.00  0.00    +0.000 A 
BRANCH   6   8
ATOM      8  C   UNL     1       7.005   5.866  18.563  0.00  0.00    +0.000 C 
ATOM      9  F   UNL     1       8.309   5.602  18.822  0.00  0.00    +0.000 F 
ATOM     10  F   UNL     1       6.956   7.195  18.239  0.00  0.00    +0.000 F 
ATOM     11  F   UNL     1       6.362   5.792  19.766  0.00  0.00    +0.000 F 
ENDBRANCH   6   8
BRANCH   2  12
ATOM     12  C   UNL     1       6.512   4.409  13.703  0.00  0.00    +0.000 C 
ATOM     13  O   UNL     1       7.240   5.333  13.340  0.00  0.00    +0.000 OA
BRANCH  12  15
ATOM     14  C   UNL     1       4.742   3.750  12.041  0.00  0.00    +0.000 C 
ATOM     15  C   UNL     1       6.037   3.319  12.735  0.00  0.00    +0.000 C 
ATOM     16  C   UNL     1       7.099   2.997  11.685  0.00  0.00    +0.000 C 
ENDBRANCH  12  15
ENDBRANCH   2  12
BRANCH   7  17
ATOM     17  O   UNL     1       7.705   6.032  15.787  0.00  0.00    +0.000 OA
ATOM     18  H   UNL     1       8.603   5.699  15.959  0.00  0.00    +0.000 HD
ENDBRANCH   7  17
ENDBRANCH   1   5
BRANCH   1  19
ATOM     19  C   UNL     1       3.511   3.892  19.417  0.00  0.00    +0.000 C 
BRANCH  19  20
ATOM     20  C   UNL     1       2.873   5.222  19.729  0.00  0.00    +0.000 A 
ATOM     21  C   UNL     1       3.089   6.334  18.904  0.00  0.00    +0.000 A 
ATOM     22  C   UNL     1       2.467   7.554  19.183  0.00  0.00    +0.000 A 
ATOM     23  C   UNL     1       1.634   7.693  20.300  0.00  0.00    +0.000 A 
ATOM     24  C   UNL     1       1.419   6.581  21.124  0.00  0.00    +0.000 A 
ATOM     25  C   UNL     1       2.041   5.361  20.847  0.00  0.00    +0.000 A 
BRANCH  23  26
ATOM     26  C   UNL     1       1.007   9.022  20.619  0.00  0.00    +0.000 C 
BRANCH  26  27
ATOM     27  N   UNL     1      -0.078   9.361  19.739  0.00  0.00    +0.000 N 
ATOM     28  C   UNL     1      -0.063  10.551  19.045  0.00  0.00    +0.000 C 
ATOM     29  O   UNL     1       0.832  11.386  19.164  0.00  0.00    +0.000 OA
ATOM     30  H   UNL     1      -0.846   8.722  19.559  0.00  0.00    +0.000 HD
BRANCH  28  31
ATOM     31  C   UNL     1      -1.195  10.731  18.142  0.00  0.00    +0.000 A 
ATOM     32  C   UNL     1      -1.539   9.889  17.100  0.00  0.00    +0.000 A 
ATOM     33  N   UNL     1      -2.665  10.428  16.554  0.00  0.00    +0.000 N 
ATOM     34  C   UNL     1      -3.423   9.888  15.453  0.00  0.00    +0.000 C 
ATOM     35  C   UNL     1      -2.960  11.569  17.245  0.00  0.00    +0.000 A 
ATOM     36  N   UNL     1      -2.099  11.783  18.216  0.00  0.00    +0.000 NA
ENDBRANCH  28  31
ENDBRANCH  26  27
ENDBRANCH  23  26
ENDBRANCH  19  20
ENDBRANCH   1  19
TORSDOF 10
ENDMDL
MODEL 7
REMARK VINA RESULT:      -8.2      4.444     10.738
REMARK  Name = 
REMARK  13 active torsions:
REMARK  status: ('A' for Active; 'I' for Inactive)
REMARK    1  A    between atoms: C_1  and  C_2
REMARK    2  A    between atoms: C_2  and  C_3
REMARK    3  A    between atoms: C_2  and  C_4
REMARK    4  A    between atoms: C_4  and  C_6
REMARK    5  A    between atoms: C_9  and  O_10
REMARK    6  A    between atoms: O_10  and  C_11
REMARK    7  A    between atoms: C_11  and  C_12
REMARK    8  A    between atoms: C_15  and  C_16
REMARK    9  A    between atoms: C_16  and  N_17
REMARK   10  A    between atoms: C_18  and  C_20
REMARK   11  A    between atoms: N_22  and  C_23
REMARK   12  A    between atoms: C_28  and  C_29
REMARK   13  A    between atoms: C_33  and  O_34
REMARK                            x       y       z     vdW  Elec       q    Type
REMARK                         _______ _______ _______ _____ _____    ______ ____
ROOT
ATOM      1  O   UNL     1       0.853   8.575  20.439  0.00  0.00    +0.000 OA
ENDROOT
BRANCH   1   5
ATOM      2  C   UNL     1      -0.902  11.883  22.332  0.00  0.00    +0.000 A 
ATOM      3  C   UNL     1      -0.898  10.639  22.967  0.00  0.00    +0.000 A 
ATOM      4  C   UNL     1      -0.315   9.528  22.356  0.00  0.00    +0.000 A 
ATOM      5  C   UNL     1       0.250   9.626  21.079  0.00  0.00    +0.000 A 
ATOM      6  C   UNL     1       0.202  10.855  20.394  0.00  0.00    +0.000 A 
ATOM      7  C   UNL     1      -0.367  11.983  21.038  0.00  0.00    +0.000 A 
BRANCH   6   8
ATOM      8  C   UNL     1       0.701  10.991  18.978  0.00  0.00    +0.000 C 
ATOM      9  F   UNL     1       1.991  10.664  18.724  0.00  0.00    +0.000 F 
ATOM     10  F   UNL     1      -0.047  10.222  18.128  0.00  0.00    +0.000 F 
ATOM     11  F   UNL     1       0.538  12.263  18.506  0.00  0.00    +0.000 F 
ENDBRANCH   6   8
BRANCH   2  12
ATOM     12  C   UNL     1      -1.531  13.015  23.089  0.00  0.00    +0.000 C 
ATOM     13  O   UNL     1      -0.774  13.786  23.680  0.00  0.00    +0.000 OA
BRANCH  12  15
ATOM     14  C   UNL     1      -3.634  12.787  21.727  0.00  0.00    +0.000 C 
ATOM     15  C   UNL     1      -3.051  13.220  23.074  0.00  0.00    +0.000 C 
ATOM     16  C   UNL     1      -3.733  12.449  24.202  0.00  0.00    +0.000 C 
ENDBRANCH  12  15
ENDBRANCH   2  12
BRANCH   7  17
ATOM     17  O   UNL     1      -0.446  13.196  20.407  0.00  0.00    +0.000 OA
ATOM     18  H   UNL     1      -1.329  13.390  20.046  0.00  0.00    +0.000 HD
ENDBRANCH   7  17
ENDBRANCH   1   5
BRANCH   1  19
ATOM     19  C   UNL     1       0.660   7.270  20.987  0.00  0.00    +0.000 C 
BRANCH  19  20
ATOM     20  C   UNL     1       1.737   6.338  20.490  0.00  0.00    +0.000 A 
ATOM     21  C   UNL     1       2.692   6.774  19.562  0.00  0.00    +0.000 A 
ATOM     22  C   UNL     1       3.706   5.913  19.133  0.00  0.00    +0.000 A 
ATOM     23  C   UNL     1       3.773   4.595  19.606  0.00  0.00    +0.000 A 
ATOM     24  C   UNL     1       2.818   4.162  20.533  0.00  0.00    +0.000 A 
ATOM     25  C   UNL     1       1.803   5.022  20.963  0.00  0.00    +0.000 A 
BRANCH  23  26
ATOM     26  C   UNL     1       4.839   3.661  19.102  0.00  0.00    +0.000 C 
BRANCH  26  27
ATOM     27  N   UNL     1       5.157   3.863  17.715  0.00  0.00    +0.000 N 
ATOM     28  C   UNL     1       6.410   4.300  17.346  0.00  0.00    +0.000 C 
ATOM     29  O   UNL     1       7.291   4.574  18.159  0.00  0.00    +0.000 OA
ATOM     30  H   UNL     1       4.501   3.637  16.973  0.00  0.00    +0.000 HD
BRANCH  28  31
ATOM     31  C   UNL     1       6.610   4.397  15.904  0.00  0.00    +0.000 A 
ATOM     32  C   UNL     1       5.984   3.617  14.949  0.00  0.00    +0.000 A 
ATOM     33  N   UNL     1       6.449   4.070  13.749  0.00  0.00    +0.000 N 
ATOM     34  C   UNL     1       6.061   3.589  12.448  0.00  0.00    +0.000 C 
ATOM     35  C   UNL     1       7.340   5.074  13.999  0.00  0.00    +0.000 A 
ATOM     36  N   UNL     1       7.460   5.306  15.289  0.00  0.00    +0.000 NA
ENDBRANCH  28  31
ENDBRANCH  26  27
ENDBRANCH  23  26
ENDBRANCH  19  20
ENDBRANCH   1  19
TORSDOF 10
ENDMDL
MODEL 8
REMARK VINA RESULT:      -8.2      3.437      4.529
REMARK  Name = 
REMARK  13 active torsions:
REMARK  status: ('A' for Active; 'I' for Inactive)
REMARK    1  A    between atoms: C_1  and  C_2
REMARK    2  A    between atoms: C_2  and  C_3
REMARK    3  A    between atoms: C_2  and  C_4
REMARK    4  A    between atoms: C_4  and  C_6
REMARK    5  A    between atoms: C_9  and  O_10
REMARK    6  A    between atoms: O_10  and  C_11
REMARK    7  A    between atoms: C_11  and  C_12
REMARK    8  A    between atoms: C_15  and  C_16
REMARK    9  A    between atoms: C_16  and  N_17
REMARK   10  A    between atoms: C_18  and  C_20
REMARK   11  A    between atoms: N_22  and  C_23
REMARK   12  A    between atoms: C_28  and  C_29
REMARK   13  A    between atoms: C_33  and  O_34
REMARK                            x       y       z     vdW  Elec       q    Type
REMARK                         _______ _______ _______ _____ _____    ______ ____
ROOT
ATOM      1  O   UNL     1       2.207   6.313  18.555  0.00  0.00    +0.000 OA
ENDROOT
BRANCH   1   5
ATOM      2  C   UNL     1       5.511   5.198  16.222  0.00  0.00    +0.000 A 
ATOM      3  C   UNL     1       5.187   6.549  16.369  0.00  0.00    +0.000 A 
ATOM      4  C   UNL     1       4.095   6.939  17.145  0.00  0.00    +0.000 A 
ATOM      5  C   UNL     1       3.280   5.987  17.766  0.00  0.00    +0.000 A 
ATOM      6  C   UNL     1       3.550   4.618  17.580  0.00  0.00    +0.000 A 
ATOM      7  C   UNL     1       4.680   4.235  16.814  0.00  0.00    +0.000 A 
BRANCH   6   8
ATOM      8  C   UNL     1       2.644   3.550  18.139  0.00  0.00    +0.000 C 
ATOM      9  F   UNL     1       1.447   3.934  18.647  0.00  0.00    +0.000 F 
ATOM     10  F   UNL     1       2.354   2.615  17.183  0.00  0.00    +0.000 F 
ATOM     11  F   UNL     1       3.257   2.836  19.129  0.00  0.00    +0.000 F 
ENDBRANCH   6   8
BRANCH   2  12
ATOM     12  C   UNL     1       6.720   4.890  15.388  0.00  0.00    +0.000 C 
ATOM     13  O   UNL     1       7.743   4.551  15.985  0.00  0.00    +0.000 OA
BRANCH  12  15
ATOM     14  C   UNL     1       8.027   5.299  13.278  0.00  0.00    +0.000 C 
ATOM     15  C   UNL     1       6.654   4.950  13.858  0.00  0.00    +0.000 C 
ATOM     16  C   UNL     1       6.165   3.630  13.263  0.00  0.00    +0.000 C 
ENDBRANCH  12  15
ENDBRANCH   2  12
BRANCH   7  17
ATOM     17  O   UNL     1       4.976   2.916  16.597  0.00  0.00    +0.000 OA
ATOM     18  H   UNL     1       5.571   2.770  15.840  0.00  0.00    +0.000 HD
ENDBRANCH   7  17
ENDBRANCH   1   5
BRANCH   1  19
ATOM     19  C   UNL     1       2.477   6.769  19.882  0.00  0.00    +0.000 C 
BRANCH  19  20
ATOM     20  C   UNL     1       1.698   8.029  20.163  0.00  0.00    +0.000 A 
ATOM     21  C   UNL     1       1.220   8.306  21.450  0.00  0.00    +0.000 A 
ATOM     22  C   UNL     1       0.528   9.492  21.708  0.00  0.00    +0.000 A 
ATOM     23  C   UNL     1       0.282  10.415  20.682  0.00  0.00    +0.000 A 
ATOM     24  C   UNL     1       0.760  10.136  19.396  0.00  0.00    +0.000 A 
ATOM     25  C   UNL     1       1.452   8.949  19.137  0.00  0.00    +0.000 A 
BRANCH  23  26
ATOM     26  C   UNL     1      -0.505  11.666  20.958  0.00  0.00    +0.000 C 
BRANCH  26  27
ATOM     27  N   UNL     1      -0.036  12.804  20.216  0.00  0.00    +0.000 N 
ATOM     28  C   UNL     1       0.659  13.810  20.854  0.00  0.00    +0.000 C 
ATOM     29  O   UNL     1       0.876  13.812  22.064  0.00  0.00    +0.000 OA
ATOM     30  H   UNL     1      -0.146  12.875  19.210  0.00  0.00    +0.000 HD
BRANCH  28  31
ATOM     31  C   UNL     1       1.129  14.867  19.966  0.00  0.00    +0.000 A 
ATOM     32  C   UNL     1       2.242  14.799  19.148  0.00  0.00    +0.000 A 
ATOM     33  N   UNL     1       2.281  15.991  18.487  0.00  0.00    +0.000 N 
ATOM     34  C   UNL     1       3.247  16.385  17.493  0.00  0.00    +0.000 C 
ATOM     35  C   UNL     1       1.229  16.745  18.924  0.00  0.00    +0.000 A 
ATOM     36  N   UNL     1       0.506  16.099  19.814  0.00  0.00    +0.000 NA
ENDBRANCH  28  31
ENDBRANCH  26  27
ENDBRANCH  23  26
ENDBRANCH  19  20
ENDBRANCH   1  19
TORSDOF 10
ENDMDL
MODEL 9
REMARK VINA RESULT:      -8.1      3.438      4.436
REMARK  Name = 
REMARK  13 active torsions:
REMARK  status: ('A' for Active; 'I' for Inactive)
REMARK    1  A    between atoms: C_1  and  C_2
REMARK    2  A    between atoms: C_2  and  C_3
REMARK    3  A    between atoms: C_2  and  C_4
REMARK    4  A    between atoms: C_4  and  C_6
REMARK    5  A    between atoms: C_9  and  O_10
REMARK    6  A    between atoms: O_10  and  C_11
REMARK    7  A    between atoms: C_11  and  C_12
REMARK    8  A    between atoms: C_15  and  C_16
REMARK    9  A    between atoms: C_16  and  N_17
REMARK   10  A    between atoms: C_18  and  C_20
REMARK   11  A    between atoms: N_22  and  C_23
REMARK   12  A    between atoms: C_28  and  C_29
REMARK   13  A    between atoms: C_33  and  O_34
REMARK                            x       y       z     vdW  Elec       q    Type
REMARK                         _______ _______ _______ _____ _____    ______ ____
ROOT
ATOM      1  O   UNL     1       2.298   6.189  18.583  0.00  0.00    +0.000 OA
ENDROOT
BRANCH   1   5
ATOM      2  C   UNL     1       5.590   5.166  16.191  0.00  0.00    +0.000 A 
ATOM      3  C   UNL     1       5.211   6.505  16.319  0.00  0.00    +0.000 A 
ATOM      4  C   UNL     1       4.123   6.865  17.113  0.00  0.00    +0.000 A 
ATOM      5  C   UNL     1       3.364   5.893  17.775  0.00  0.00    +0.000 A 
ATOM      6  C   UNL     1       3.689   4.532  17.610  0.00  0.00    +0.000 A 
ATOM      7  C   UNL     1       4.815   4.181  16.824  0.00  0.00    +0.000 A 
BRANCH   6   8
ATOM      8  C   UNL     1       2.844   3.439  18.214  0.00  0.00    +0.000 C 
ATOM      9  F   UNL     1       2.764   3.371  19.566  0.00  0.00    +0.000 F 
ATOM     10  F   UNL     1       1.551   3.531  17.774  0.00  0.00    +0.000 F 
ATOM     11  F   UNL     1       3.249   2.202  17.801  0.00  0.00    +0.000 F 
ENDBRANCH   6   8
BRANCH   2  12
ATOM     12  C   UNL     1       6.790   4.892  15.334  0.00  0.00    +0.000 C 
ATOM     13  O   UNL     1       7.835   4.588  15.910  0.00  0.00    +0.000 OA
BRANCH  12  15
ATOM     14  C   UNL     1       8.057   5.254  13.191  0.00  0.00    +0.000 C 
ATOM     15  C   UNL     1       6.690   4.941  13.804  0.00  0.00    +0.000 C 
ATOM     16  C   UNL     1       6.159   3.628  13.232  0.00  0.00    +0.000 C 
ENDBRANCH  12  15
ENDBRANCH   2  12
BRANCH   7  17
ATOM     17  O   UNL     1       5.163   2.871  16.626  0.00  0.00    +0.000 OA
ATOM     18  H   UNL     1       5.622   2.714  15.783  0.00  0.00    +0.000 HD
ENDBRANCH   7  17
ENDBRANCH   1   5
BRANCH   1  19
ATOM     19  C   UNL     1       2.550   6.987  19.742  0.00  0.00    +0.000 C 
BRANCH  19  20
ATOM     20  C   UNL     1       1.653   8.199  19.737  0.00  0.00    +0.000 A 
ATOM     21  C   UNL     1       1.488   8.967  18.577  0.00  0.00    +0.000 A 
ATOM     22  C   UNL     1       0.629  10.069  18.574  0.00  0.00    +0.000 A 
ATOM     23  C   UNL     1      -0.066  10.438  19.733  0.00  0.00    +0.000 A 
ATOM     24  C   UNL     1       0.101   9.670  20.892  0.00  0.00    +0.000 A 
ATOM     25  C   UNL     1       0.960   8.568  20.897  0.00  0.00    +0.000 A 
BRANCH  23  26
ATOM     26  C   UNL     1      -0.951  11.654  19.734  0.00  0.00    +0.000 C 
BRANCH  26  27
ATOM     27  N   UNL     1      -0.300  12.827  19.216  0.00  0.00    +0.000 N 
ATOM     28  C   UNL     1      -0.507  14.054  19.807  0.00  0.00    +0.000 C 
ATOM     29  O   UNL     1      -1.268  14.220  20.759  0.00  0.00    +0.000 OA
ATOM     30  H   UNL     1       0.364  12.781  18.450  0.00  0.00    +0.000 HD
BRANCH  28  31
ATOM     31  C   UNL     1       0.267  15.140  19.216  0.00  0.00    +0.000 A 
ATOM     32  C   UNL     1      -0.255  16.248  18.574  0.00  0.00    +0.000 A 
ATOM     33  N   UNL     1       0.823  17.000  18.212  0.00  0.00    +0.000 N 
ATOM     34  C   UNL     1       0.788  18.273  17.540  0.00  0.00    +0.000 C 
ATOM     35  C   UNL     1       1.949  16.338  18.614  0.00  0.00    +0.000 A 
ATOM     36  N   UNL     1       1.654  15.213  19.230  0.00  0.00    +0.000 NA
ENDBRANCH  28  31
ENDBRANCH  26  27
ENDBRANCH  23  26
ENDBRANCH  19  20
ENDBRANCH   1  19
TORSDOF 10
ENDMDL
