MODEL 1
REMARK VINA RESULT:      -9.3      0.000      0.000
REMARK  Name = 
REMARK  4 active torsions:
REMARK  status: ('A' for Active; 'I' for Inactive)
REMARK    1  A    between atoms: C_2  and  C_3
REMARK    2  A    between atoms: C_3  and  N_4
REMARK    3  A    between atoms: N_20  and  C_21
REMARK    4  A    between atoms: C_25  and  C_26
REMARK                            x       y       z     vdW  Elec       q    Type
REMARK                         _______ _______ _______ _____ _____    ______ ____
ROOT
ATOM      1  N   UNL     1       3.176   5.745  17.815  0.00  0.00    +0.000 N 
ATOM      2  C   UNL     1       2.242   4.706  17.947  0.00  0.00    +0.000 C 
ATOM      3  O   UNL     1       1.188   4.678  17.303  0.00  0.00    +0.000 OA
ATOM      4  C   UNL     1       2.304   3.907  19.187  0.00  0.00    +0.000 A 
ATOM      5  C   UNL     1       1.224   4.043  20.074  0.00  0.00    +0.000 A 
ATOM      6  C   UNL     1       1.258   3.413  21.310  0.00  0.00    +0.000 A 
ATOM      7  C   UNL     1       2.365   2.641  21.656  0.00  0.00    +0.000 A 
ATOM      8  C   UNL     1       3.411   2.470  20.743  0.00  0.00    +0.000 A 
ATOM      9  C   UNL     1       3.379   3.096  19.491  0.00  0.00    +0.000 A 
ATOM     10  S   UNL     1       4.613   2.762  18.280  0.00  0.00    +0.000 S 
ATOM     11  C   UNL     1       5.321   4.377  18.061  0.00  0.00    +0.000 A 
ATOM     12  N   UNL     1       6.684   4.272  18.041  0.00  0.00    +0.000 NA
ATOM     13  C   UNL     1       7.420   5.372  17.824  0.00  0.00    +0.000 A 
ATOM     14  C   UNL     1       6.853   6.607  17.630  0.00  0.00    +0.000 A 
ATOM     15  C   UNL     1       5.460   6.714  17.670  0.00  0.00    +0.000 A 
ATOM     16  C   UNL     1       4.623   5.596  17.878  0.00  0.00    +0.000 A 
ENDROOT
BRANCH   1  17
ATOM     17  C   UNL     1       2.527   7.011  17.442  0.00  0.00    +0.000 C 
BRANCH  17  19
ATOM     18  O   UNL     1       2.450   7.374  19.827  0.00  0.00    +0.000 OA
ATOM     19  C   UNL     1       2.186   7.821  18.715  0.00  0.00    +0.000 C 
ATOM     20  N   UNL     1       1.472   8.992  18.464  0.00  0.00    +0.000 N 
ATOM     21  H   UNL     1       1.059   9.058  17.530  0.00  0.00    +0.000 HD
BRANCH  20  22
ATOM     22  C   UNL     1       1.012   9.919  19.428  0.00  0.00    +0.000 A 
ATOM     23  C   UNL     1       1.121  11.300  19.262  0.00  0.00    +0.000 A 
ATOM     24  C   UNL     1       0.693  12.179  20.262  0.00  0.00    +0.000 A 
ATOM     25  C   UNL     1       0.157  11.683  21.448  0.00  0.00    +0.000 A 
ATOM     26  C   UNL     1       0.021  10.301  21.635  0.00  0.00    +0.000 A 
ATOM     27  C   UNL     1       0.429   9.427  20.605  0.00  0.00    +0.000 A 
BRANCH  26  28
ATOM     28  C   UNL     1      -0.537   9.756  22.929  0.00  0.00    +0.000 C 
ATOM     29  F   UNL     1       0.403   9.585  23.901  0.00  0.00    +0.000 F 
ATOM     30  F   UNL     1      -1.491  10.564  23.471  0.00  0.00    +0.000 F 
ATOM     31  F   UNL     1      -1.126   8.539  22.766  0.00  0.00    +0.000 F 
ENDBRANCH  26  28
ENDBRANCH  20  22
ENDBRANCH  17  19
ENDBRANCH   1  17
TORSDOF 4
ENDMDL
MODEL 2
REMARK VINA RESULT:      -8.3      1.884      2.431
REMARK  Name = 
REMARK  4 active torsions:
REMARK  status: ('A' for Active; 'I' for Inactive)
REMARK    1  A    between atoms: C_2  and  C_3
REMARK    2  A    between atoms: C_3  and  N_4
REMARK    3  A    between atoms: N_20  and  C_21
REMARK    4  A    between atoms: C_25  and  C_26
REMARK                            x       y       z     vdW  Elec       q    Type
REMARK                         _______ _______ _______ _____ _____    ______ ____
ROOT
ATOM      1  N   UNL     1       3.203   5.738  17.820  0.00  0.00    +0.000 N 
ATOM      2  C   UNL     1       2.274   4.694  17.949  0.00  0.00    +0.000 C 
ATOM      3  O   UNL     1       1.233   4.649  17.284  0.00  0.00    +0.000 OA
ATOM      4  C   UNL     1       2.315   3.915  19.202  0.00  0.00    +0.000 A 
ATOM      5  C   UNL     1       1.217   4.057  20.065  0.00  0.00    +0.000 A 
ATOM      6  C   UNL     1       1.230   3.446  21.312  0.00  0.00    +0.000 A 
ATOM      7  C   UNL     1       2.335   2.687  21.691  0.00  0.00    +0.000 A 
ATOM      8  C   UNL     1       3.401   2.509  20.802  0.00  0.00    +0.000 A 
ATOM      9  C   UNL     1       3.390   3.116  19.541  0.00  0.00    +0.000 A 
ATOM     10  S   UNL     1       4.650   2.772  18.359  0.00  0.00    +0.000 S 
ATOM     11  C   UNL     1       5.352   4.387  18.130  0.00  0.00    +0.000 A 
ATOM     12  N   UNL     1       6.716   4.291  18.138  0.00  0.00    +0.000 NA
ATOM     13  C   UNL     1       7.448   5.392  17.920  0.00  0.00    +0.000 A 
ATOM     14  C   UNL     1       6.878   6.621  17.695  0.00  0.00    +0.000 A 
ATOM     15  C   UNL     1       5.483   6.719  17.706  0.00  0.00    +0.000 A 
ATOM     16  C   UNL     1       4.649   5.599  17.914  0.00  0.00    +0.000 A 
ENDROOT
BRANCH   1  17
ATOM     17  C   UNL     1       2.554   6.993  17.415  0.00  0.00    +0.000 C 
BRANCH  17  19
ATOM     18  O   UNL     1       2.435   7.397  19.791  0.00  0.00    +0.000 OA
ATOM     19  C   UNL     1       2.164   7.811  18.668  0.00  0.00    +0.000 C 
ATOM     20  N   UNL     1       1.403   8.944  18.388  0.00  0.00    +0.000 N 
ATOM     21  H   UNL     1       0.997   8.975  17.449  0.00  0.00    +0.000 HD
BRANCH  20  22
ATOM     22  C   UNL     1       0.892   9.869  19.329  0.00  0.00    +0.000 A 
ATOM     23  C   UNL     1       0.554   9.511  20.634  0.00  0.00    +0.000 A 
ATOM     24  C   UNL     1       0.010  10.449  21.517  0.00  0.00    +0.000 A 
ATOM     25  C   UNL     1      -0.212  11.759  21.099  0.00  0.00    +0.000 A 
ATOM     26  C   UNL     1       0.134  12.149  19.798  0.00  0.00    +0.000 A 
ATOM     27  C   UNL     1       0.710  11.201  18.929  0.00  0.00    +0.000 A 
BRANCH  26  28
ATOM     28  C   UNL     1      -0.126  13.563  19.331  0.00  0.00    +0.000 C 
ATOM     29  F   UNL     1      -0.553  13.643  18.039  0.00  0.00    +0.000 F 
ATOM     30  F   UNL     1      -1.075  14.196  20.077  0.00  0.00    +0.000 F 
ATOM     31  F   UNL     1       0.988  14.343  19.402  0.00  0.00    +0.000 F 
ENDBRANCH  26  28
ENDBRANCH  20  22
ENDBRANCH  17  19
ENDBRANCH   1  17
TORSDOF 4
ENDMDL
MODEL 3
REMARK VINA RESULT:      -8.3      1.845      2.339
REMARK  Name = 
REMARK  4 active torsions:
REMARK  status: ('A' for Active; 'I' for Inactive)
REMARK    1  A    between atoms: C_2  and  C_3
REMARK    2  A    between atoms: C_3  and  N_4
REMARK    3  A    between atoms: N_20  and  C_21
REMARK    4  A    between atoms: C_25  and  C_26
REMARK                            x       y       z     vdW  Elec       q    Type
REMARK                         _______ _______ _______ _____ _____    ______ ____
ROOT
ATOM      1  N   UNL     1       3.121   5.779  17.837  0.00  0.00    +0.000 N 
ATOM      2  C   UNL     1       2.198   4.729  17.968  0.00  0.00    +0.000 C 
ATOM      3  O   UNL     1       1.134   4.701  17.340  0.00  0.00    +0.000 OA
ATOM      4  C   UNL     1       2.286   3.913  19.195  0.00  0.00    +0.000 A 
ATOM      5  C   UNL     1       1.220   4.026  20.101  0.00  0.00    +0.000 A 
ATOM      6  C   UNL     1       1.279   3.379  21.328  0.00  0.00    +0.000 A 
ATOM      7  C   UNL     1       2.398   2.612  21.644  0.00  0.00    +0.000 A 
ATOM      8  C   UNL     1       3.431   2.464  20.712  0.00  0.00    +0.000 A 
ATOM      9  C   UNL     1       3.374   3.107  19.471  0.00  0.00    +0.000 A 
ATOM     10  S   UNL     1       4.591   2.802  18.235  0.00  0.00    +0.000 S 
ATOM     11  C   UNL     1       5.281   4.426  18.029  0.00  0.00    +0.000 A 
ATOM     12  N   UNL     1       6.645   4.333  17.986  0.00  0.00    +0.000 NA
ATOM     13  C   UNL     1       7.368   5.442  17.774  0.00  0.00    +0.000 A 
ATOM     14  C   UNL     1       6.787   6.676  17.606  0.00  0.00    +0.000 A 
ATOM     15  C   UNL     1       5.394   6.769  17.670  0.00  0.00    +0.000 A 
ATOM     16  C   UNL     1       4.570   5.641  17.875  0.00  0.00    +0.000 A 
ENDROOT
BRANCH   1  17
ATOM     17  C   UNL     1       2.456   7.044  17.493  0.00  0.00    +0.000 C 
BRANCH  17  19
ATOM     18  O   UNL     1       2.432   7.381  19.883  0.00  0.00    +0.000 OA
ATOM     19  C   UNL     1       2.130   7.833  18.783  0.00  0.00    +0.000 C 
ATOM     20  N   UNL     1       1.385   8.991  18.562  0.00  0.00    +0.000 N 
ATOM     21  H   UNL     1       0.946   9.057  17.640  0.00  0.00    +0.000 HD
BRANCH  20  22
ATOM     22  C   UNL     1       0.930   9.898  19.547  0.00  0.00    +0.000 A 
ATOM     23  C   UNL     1      -0.017   9.556  20.512  0.00  0.00    +0.000 A 
ATOM     24  C   UNL     1      -0.471  10.499  21.439  0.00  0.00    +0.000 A 
ATOM     25  C   UNL     1       0.013  11.805  21.405  0.00  0.00    +0.000 A 
ATOM     26  C   UNL     1       0.977  12.172  20.456  0.00  0.00    +0.000 A 
ATOM     27  C   UNL     1       1.448  11.202  19.547  0.00  0.00    +0.000 A 
BRANCH  26  28
ATOM     28  C   UNL     1       1.487  13.593  20.397  0.00  0.00    +0.000 C 
ATOM     29  F   UNL     1       1.439  14.243  21.594  0.00  0.00    +0.000 F 
ATOM     30  F   UNL     1       2.784  13.669  19.984  0.00  0.00    +0.000 F 
ATOM     31  F   UNL     1       0.772  14.363  19.530  0.00  0.00    +0.000 F 
ENDBRANCH  26  28
ENDBRANCH  20  22
ENDBRANCH  17  19
ENDBRANCH   1  17
TORSDOF 4
ENDMDL
MODEL 4
REMARK VINA RESULT:      -8.3      3.993      8.715
REMARK  Name = 
REMARK  4 active torsions:
REMARK  status: ('A' for Active; 'I' for Inactive)
REMARK    1  A    between atoms: C_2  and  C_3
REMARK    2  A    between atoms: C_3  and  N_4
REMARK    3  A    between atoms: N_20  and  C_21
REMARK    4  A    between atoms: C_25  and  C_26
REMARK                            x       y       z     vdW  Elec       q    Type
REMARK                         _______ _______ _______ _____ _____    ______ ____
ROOT
ATOM      1  N   UNL     1       0.476  10.811  20.883  0.00  0.00    +0.000 N 
ATOM      2  C   UNL     1       0.891  11.017  19.559  0.00  0.00    +0.000 C 
ATOM      3  O   UNL     1       1.429  10.128  18.888  0.00  0.00    +0.000 OA
ATOM      4  C   UNL     1       1.111  12.414  19.138  0.00  0.00    +0.000 A 
ATOM      5  C   UNL     1       2.438  12.787  18.869  0.00  0.00    +0.000 A 
ATOM      6  C   UNL     1       2.743  14.109  18.576  0.00  0.00    +0.000 A 
ATOM      7  C   UNL     1       1.722  15.056  18.544  0.00  0.00    +0.000 A 
ATOM      8  C   UNL     1       0.396  14.664  18.761  0.00  0.00    +0.000 A 
ATOM      9  C   UNL     1       0.082  13.331  19.049  0.00  0.00    +0.000 A 
ATOM     10  S   UNL     1      -1.594  12.801  19.169  0.00  0.00    +0.000 S 
ATOM     11  C   UNL     1      -1.650  12.231  20.851  0.00  0.00    +0.000 A 
ATOM     12  N   UNL     1      -2.792  12.691  21.444  0.00  0.00    +0.000 NA
ATOM     13  C   UNL     1      -3.066  12.326  22.705  0.00  0.00    +0.000 A 
ATOM     14  C   UNL     1      -2.232  11.509  23.429  0.00  0.00    +0.000 A 
ATOM     15  C   UNL     1      -1.056  11.055  22.825  0.00  0.00    +0.000 A 
ATOM     16  C   UNL     1      -0.712  11.388  21.497  0.00  0.00    +0.000 A 
ENDROOT
BRANCH   1  17
ATOM     17  C   UNL     1       1.304   9.802  21.560  0.00  0.00    +0.000 C 
BRANCH  17  19
ATOM     18  O   UNL     1      -0.112   7.891  21.149  0.00  0.00    +0.000 OA
ATOM     19  C   UNL     1       0.993   8.399  20.988  0.00  0.00    +0.000 C 
ATOM     20  N   UNL     1       2.095   7.769  20.411  0.00  0.00    +0.000 N 
ATOM     21  H   UNL     1       3.002   8.183  20.638  0.00  0.00    +0.000 HD
BRANCH  20  22
ATOM     22  C   UNL     1       2.116   6.481  19.825  0.00  0.00    +0.000 A 
ATOM     23  C   UNL     1       2.177   6.278  18.446  0.00  0.00    +0.000 A 
ATOM     24  C   UNL     1       2.150   4.988  17.908  0.00  0.00    +0.000 A 
ATOM     25  C   UNL     1       2.052   3.881  18.748  0.00  0.00    +0.000 A 
ATOM     26  C   UNL     1       2.006   4.055  20.138  0.00  0.00    +0.000 A 
ATOM     27  C   UNL     1       2.064   5.361  20.667  0.00  0.00    +0.000 A 
BRANCH  26  28
ATOM     28  C   UNL     1       1.874   2.860  21.053  0.00  0.00    +0.000 C 
ATOM     29  F   UNL     1       3.027   2.541  21.706  0.00  0.00    +0.000 F 
ATOM     30  F   UNL     1       0.934   3.041  22.023  0.00  0.00    +0.000 F 
ATOM     31  F   UNL     1       1.507   1.733  20.381  0.00  0.00    +0.000 F 
ENDBRANCH  26  28
ENDBRANCH  20  22
ENDBRANCH  17  19
ENDBRANCH   1  17
TORSDOF 4
ENDMDL
MODEL 5
REMARK VINA RESULT:      -8.2      1.501      1.947
REMARK  Name = 
REMARK  4 active torsions:
REMARK  status: ('A' for Active; 'I' for Inactive)
REMARK    1  A    between atoms: C_2  and  C_3
REMARK    2  A    between atoms: C_3  and  N_4
REMARK    3  A    between atoms: N_20  and  C_21
REMARK    4  A    between atoms: C_25  and  C_26
REMARK                            x       y       z     vdW  Elec       q    Type
REMARK                         _______ _______ _______ _____ _____    ______ ____
ROOT
ATOM      1  N   UNL     1       3.093   6.087  17.927  0.00  0.00    +0.000 N 
ATOM      2  C   UNL     1       2.147   5.055  18.027  0.00  0.00    +0.000 C 
ATOM      3  O   UNL     1       1.017   5.143  17.534  0.00  0.00    +0.000 OA
ATOM      4  C   UNL     1       2.341   4.075  19.114  0.00  0.00    +0.000 A 
ATOM      5  C   UNL     1       1.392   4.091  20.149  0.00  0.00    +0.000 A 
ATOM      6  C   UNL     1       1.564   3.279  21.262  0.00  0.00    +0.000 A 
ATOM      7  C   UNL     1       2.678   2.446  21.336  0.00  0.00    +0.000 A 
ATOM      8  C   UNL     1       3.589   2.399  20.275  0.00  0.00    +0.000 A 
ATOM      9  C   UNL     1       3.417   3.209  19.147  0.00  0.00    +0.000 A 
ATOM     10  S   UNL     1       4.468   3.045  17.743  0.00  0.00    +0.000 S 
ATOM     11  C   UNL     1       5.200   4.662  17.675  0.00  0.00    +0.000 A 
ATOM     12  N   UNL     1       6.544   4.539  17.456  0.00  0.00    +0.000 NA
ATOM     13  C   UNL     1       7.285   5.646  17.308  0.00  0.00    +0.000 A 
ATOM     14  C   UNL     1       6.743   6.906  17.379  0.00  0.00    +0.000 A 
ATOM     15  C   UNL     1       5.372   7.028  17.622  0.00  0.00    +0.000 A 
ATOM     16  C   UNL     1       4.529   5.906  17.772  0.00  0.00    +0.000 A 
ENDROOT
BRANCH   1  17
ATOM     17  C   UNL     1       2.448   7.405  17.839  0.00  0.00    +0.000 C 
BRANCH  17  19
ATOM     18  O   UNL     1       2.471   7.318  20.250  0.00  0.00    +0.000 OA
ATOM     19  C   UNL     1       2.044   7.888  19.251  0.00  0.00    +0.000 C 
ATOM     20  N   UNL     1       1.094   8.908  19.248  0.00  0.00    +0.000 N 
ATOM     21  H   UNL     1       0.609   9.049  18.358  0.00  0.00    +0.000 HD
BRANCH  20  22
ATOM     22  C   UNL     1       0.527   9.533  20.383  0.00  0.00    +0.000 A 
ATOM     23  C   UNL     1       0.697   9.046  21.680  0.00  0.00    +0.000 A 
ATOM     24  C   UNL     1       0.081   9.672  22.768  0.00  0.00    +0.000 A 
ATOM     25  C   UNL     1      -0.724  10.791  22.569  0.00  0.00    +0.000 A 
ATOM     26  C   UNL     1      -0.899  11.311  21.280  0.00  0.00    +0.000 A 
ATOM     27  C   UNL     1      -0.247  10.688  20.196  0.00  0.00    +0.000 A 
BRANCH  26  28
ATOM     28  C   UNL     1      -1.791  12.510  21.055  0.00  0.00    +0.000 C 
ATOM     29  F   UNL     1      -1.211  13.695  21.396  0.00  0.00    +0.000 F 
ATOM     30  F   UNL     1      -2.174  12.643  19.753  0.00  0.00    +0.000 F 
ATOM     31  F   UNL     1      -2.943  12.440  21.779  0.00  0.00    +0.000 F 
ENDBRANCH  26  28
ENDBRANCH  20  22
ENDBRANCH  17  19
ENDBRANCH   1  17
TORSDOF 4
ENDMDL
MODEL 6
REMARK VINA RESULT:      -8.1      2.117      2.419
REMARK  Name = 
REMARK  4 active torsions:
REMARK  status: ('A' for Active; 'I' for Inactive)
REMARK    1  A    between atoms: C_2  and  C_3
REMARK    2  A    between atoms: C_3  and  N_4
REMARK    3  A    between atoms: N_20  and  C_21
REMARK    4  A    between atoms: C_25  and  C_26
REMARK                            x       y       z     vdW  Elec       q    Type
REMARK                         _______ _______ _______ _____ _____    ______ ____
ROOT
ATOM      1  N   UNL     1       3.440   5.742  17.734  0.00  0.00    +0.000 N 
ATOM      2  C   UNL     1       2.484   4.719  17.829  0.00  0.00    +0.000 C 
ATOM      3  O   UNL     1       1.526   4.636  17.052  0.00  0.00    +0.000 OA
ATOM      4  C   UNL     1       2.367   4.032  19.130  0.00  0.00    +0.000 A 
ATOM      5  C   UNL     1       1.179   4.247  19.848  0.00  0.00    +0.000 A 
ATOM      6  C   UNL     1       1.037   3.728  21.127  0.00  0.00    +0.000 A 
ATOM      7  C   UNL     1       2.078   2.989  21.685  0.00  0.00    +0.000 A 
ATOM      8  C   UNL     1       3.235   2.737  20.941  0.00  0.00    +0.000 A 
ATOM      9  C   UNL     1       3.381   3.250  19.647  0.00  0.00    +0.000 A 
ATOM     10  S   UNL     1       4.763   2.810  18.648  0.00  0.00    +0.000 S 
ATOM     11  C   UNL     1       5.514   4.398  18.388  0.00  0.00    +0.000 A 
ATOM     12  N   UNL     1       6.866   4.290  18.562  0.00  0.00    +0.000 NA
ATOM     13  C   UNL     1       7.639   5.365  18.352  0.00  0.00    +0.000 A 
ATOM     14  C   UNL     1       7.120   6.579  17.976  0.00  0.00    +0.000 A 
ATOM     15  C   UNL     1       5.736   6.691  17.817  0.00  0.00    +0.000 A 
ATOM     16  C   UNL     1       4.863   5.597  18.006  0.00  0.00    +0.000 A 
ENDROOT
BRANCH   1  17
ATOM     17  C   UNL     1       2.865   6.971  17.169  0.00  0.00    +0.000 C 
BRANCH  17  19
ATOM     18  O   UNL     1       2.250   7.435  19.456  0.00  0.00    +0.000 OA
ATOM     19  C   UNL     1       2.163   7.783  18.282  0.00  0.00    +0.000 C 
ATOM     20  N   UNL     1       1.366   8.822  17.804  0.00  0.00    +0.000 N 
ATOM     21  H   UNL     1       1.149   8.781  16.805  0.00  0.00    +0.000 HD
BRANCH  20  22
ATOM     22  C   UNL     1       0.597   9.719  18.584  0.00  0.00    +0.000 A 
ATOM     23  C   UNL     1       1.045  10.244  19.795  0.00  0.00    +0.000 A 
ATOM     24  C   UNL     1       0.232  11.092  20.554  0.00  0.00    +0.000 A 
ATOM     25  C   UNL     1      -1.048  11.417  20.111  0.00  0.00    +0.000 A 
ATOM     26  C   UNL     1      -1.517  10.915  18.890  0.00  0.00    +0.000 A 
ATOM     27  C   UNL     1      -0.675  10.086  18.120  0.00  0.00    +0.000 A 
BRANCH  26  28
ATOM     28  C   UNL     1      -2.914  11.244  18.416  0.00  0.00    +0.000 C 
ATOM     29  F   UNL     1      -3.691  10.145  18.198  0.00  0.00    +0.000 F 
ATOM     30  F   UNL     1      -3.602  12.017  19.303  0.00  0.00    +0.000 F 
ATOM     31  F   UNL     1      -2.912  11.934  17.241  0.00  0.00    +0.000 F 
ENDBRANCH  26  28
ENDBRANCH  20  22
ENDBRANCH  17  19
ENDBRANCH   1  17
TORSDOF 4
ENDMDL
MODEL 7
REMARK VINA RESULT:      -8.0      5.437      8.241
REMARK  Name = 
REMARK  4 active torsions:
REMARK  status: ('A' for Active; 'I' for Inactive)
REMARK    1  A    between atoms: C_2  and  C_3
REMARK    2  A    between atoms: C_3  and  N_4
REMARK    3  A    between atoms: N_20  and  C_21
REMARK    4  A    between atoms: C_25  and  C_26
REMARK                            x       y       z     vdW  Elec       q    Type
REMARK                         _______ _______ _______ _____ _____    ______ ____
ROOT
ATOM      1  N   UNL     1       4.577   5.180  18.613  0.00  0.00    +0.000 N 
ATOM      2  C   UNL     1       4.368   4.108  19.494  0.00  0.00    +0.000 C 
ATOM      3  O   UNL     1       5.300   3.522  20.055  0.00  0.00    +0.000 OA
ATOM      4  C   UNL     1       3.083   3.391  19.380  0.00  0.00    +0.000 A 
ATOM      5  C   UNL     1       3.142   2.071  18.905  0.00  0.00    +0.000 A 
ATOM      6  C   UNL     1       1.971   1.367  18.664  0.00  0.00    +0.000 A 
ATOM      7  C   UNL     1       0.742   1.978  18.905  0.00  0.00    +0.000 A 
ATOM      8  C   UNL     1       0.696   3.275  19.427  0.00  0.00    +0.000 A 
ATOM      9  C   UNL     1       1.874   3.987  19.681  0.00  0.00    +0.000 A 
ATOM     10  S   UNL     1       1.830   5.555  20.482  0.00  0.00    +0.000 S 
ATOM     11  C   UNL     1       2.541   6.596  19.231  0.00  0.00    +0.000 A 
ATOM     12  N   UNL     1       1.800   7.741  19.124  0.00  0.00    +0.000 NA
ATOM     13  C   UNL     1       2.198   8.699  18.274  0.00  0.00    +0.000 A 
ATOM     14  C   UNL     1       3.323   8.569  17.497  0.00  0.00    +0.000 A 
ATOM     15  C   UNL     1       4.067   7.389  17.595  0.00  0.00    +0.000 A 
ATOM     16  C   UNL     1       3.715   6.346  18.479  0.00  0.00    +0.000 A 
ENDROOT
BRANCH   1  17
ATOM     17  C   UNL     1       5.874   5.074  17.929  0.00  0.00    +0.000 C 
BRANCH  17  19
ATOM     18  O   UNL     1       4.689   3.976  16.136  0.00  0.00    +0.000 OA
ATOM     19  C   UNL     1       5.659   4.657  16.456  0.00  0.00    +0.000 C 
ATOM     20  N   UNL     1       6.704   5.022  15.608  0.00  0.00    +0.000 N 
ATOM     21  H   UNL     1       7.571   5.295  16.078  0.00  0.00    +0.000 HD
BRANCH  20  22
ATOM     22  C   UNL     1       6.791   4.762  14.220  0.00  0.00    +0.000 A 
ATOM     23  C   UNL     1       7.856   5.201  13.433  0.00  0.00    +0.000 A 
ATOM     24  C   UNL     1       7.878   4.960  12.056  0.00  0.00    +0.000 A 
ATOM     25  C   UNL     1       6.825   4.281  11.446  0.00  0.00    +0.000 A 
ATOM     26  C   UNL     1       5.751   3.814  12.216  0.00  0.00    +0.000 A 
ATOM     27  C   UNL     1       5.757   4.038  13.608  0.00  0.00    +0.000 A 
BRANCH  26  28
ATOM     28  C   UNL     1       4.594   3.099  11.557  0.00  0.00    +0.000 C 
ATOM     29  F   UNL     1       4.106   3.742  10.459  0.00  0.00    +0.000 F 
ATOM     30  F   UNL     1       4.921   1.844  11.140  0.00  0.00    +0.000 F 
ATOM     31  F   UNL     1       3.533   2.949  12.399  0.00  0.00    +0.000 F 
ENDBRANCH  26  28
ENDBRANCH  20  22
ENDBRANCH  17  19
ENDBRANCH   1  17
TORSDOF 4
ENDMDL
MODEL 8
REMARK VINA RESULT:      -7.9      4.031      8.401
REMARK  Name = 
REMARK  4 active torsions:
REMARK  status: ('A' for Active; 'I' for Inactive)
REMARK    1  A    between atoms: C_2  and  C_3
REMARK    2  A    between atoms: C_3  and  N_4
REMARK    3  A    between atoms: N_20  and  C_21
REMARK    4  A    between atoms: C_25  and  C_26
REMARK                            x       y       z     vdW  Elec       q    Type
REMARK                         _______ _______ _______ _____ _____    ______ ____
ROOT
ATOM      1  N   UNL     1       0.056  11.057  19.340  0.00  0.00    +0.000 N 
ATOM      2  C   UNL     1       0.090  12.385  18.888  0.00  0.00    +0.000 C 
ATOM      3  O   UNL     1      -0.416  12.732  17.815  0.00  0.00    +0.000 OA
ATOM      4  C   UNL     1       1.131  13.260  19.464  0.00  0.00    +0.000 A 
ATOM      5  C   UNL     1       2.150  13.678  18.594  0.00  0.00    +0.000 A 
ATOM      6  C   UNL     1       3.224  14.409  19.083  0.00  0.00    +0.000 A 
ATOM      7  C   UNL     1       3.274  14.729  20.437  0.00  0.00    +0.000 A 
ATOM      8  C   UNL     1       2.227  14.353  21.285  0.00  0.00    +0.000 A 
ATOM      9  C   UNL     1       1.137  13.622  20.797  0.00  0.00    +0.000 A 
ATOM     10  S   UNL     1      -0.256  13.280  21.819  0.00  0.00    +0.000 S 
ATOM     11  C   UNL     1      -0.233  11.504  21.841  0.00  0.00    +0.000 A 
ATOM     12  N   UNL     1      -0.436  11.067  23.120  0.00  0.00    +0.000 NA
ATOM     13  C   UNL     1      -0.517   9.749  23.354  0.00  0.00    +0.000 A 
ATOM     14  C   UNL     1      -0.394   8.817  22.353  0.00  0.00    +0.000 A 
ATOM     15  C   UNL     1      -0.166   9.267  21.050  0.00  0.00    +0.000 A 
ATOM     16  C   UNL     1      -0.085  10.639  20.728  0.00  0.00    +0.000 A 
ENDROOT
BRANCH   1  17
ATOM     17  C   UNL     1       0.022  10.105  18.221  0.00  0.00    +0.000 C 
BRANCH  17  19
ATOM     18  O   UNL     1       2.341  10.169  17.555  0.00  0.00    +0.000 OA
ATOM     19  C   UNL     1       1.426   9.491  18.011  0.00  0.00    +0.000 C 
ATOM     20  N   UNL     1       1.487   8.122  18.271  0.00  0.00    +0.000 N 
ATOM     21  H   UNL     1       0.582   7.649  18.331  0.00  0.00    +0.000 HD
BRANCH  20  22
ATOM     22  C   UNL     1       2.628   7.293  18.151  0.00  0.00    +0.000 A 
ATOM     23  C   UNL     1       3.736   7.639  17.377  0.00  0.00    +0.000 A 
ATOM     24  C   UNL     1       4.823   6.768  17.252  0.00  0.00    +0.000 A 
ATOM     25  C   UNL     1       4.809   5.532  17.894  0.00  0.00    +0.000 A 
ATOM     26  C   UNL     1       3.715   5.166  18.690  0.00  0.00    +0.000 A 
ATOM     27  C   UNL     1       2.639   6.067  18.832  0.00  0.00    +0.000 A 
BRANCH  26  28
ATOM     28  C   UNL     1       3.682   3.817  19.370  0.00  0.00    +0.000 C 
ATOM     29  F   UNL     1       3.091   3.836  20.597  0.00  0.00    +0.000 F 
ATOM     30  F   UNL     1       3.007   2.880  18.645  0.00  0.00    +0.000 F 
ATOM     31  F   UNL     1       4.930   3.309  19.568  0.00  0.00    +0.000 F 
ENDBRANCH  26  28
ENDBRANCH  20  22
ENDBRANCH  17  19
ENDBRANCH   1  17
TORSDOF 4
ENDMDL
MODEL 9
REMARK VINA RESULT:      -7.9      4.698      8.749
REMARK  Name = 
REMARK  4 active torsions:
REMARK  status: ('A' for Active; 'I' for Inactive)
REMARK    1  A    between atoms: C_2  and  C_3
REMARK    2  A    between atoms: C_3  and  N_4
REMARK    3  A    between atoms: N_20  and  C_21
REMARK    4  A    between atoms: C_25  and  C_26
REMARK                            x       y       z     vdW  Elec       q    Type
REMARK                         _______ _______ _______ _____ _____    ______ ____
ROOT
ATOM      1  N   UNL     1       0.071  11.245  19.354  0.00  0.00    +0.000 N 
ATOM      2  C   UNL     1       0.128  12.579  18.924  0.00  0.00    +0.000 C 
ATOM      3  O   UNL     1      -0.352  12.948  17.846  0.00  0.00    +0.000 OA
ATOM      4  C   UNL     1       1.164  13.435  19.535  0.00  0.00    +0.000 A 
ATOM      5  C   UNL     1       2.206  13.856  18.694  0.00  0.00    +0.000 A 
ATOM      6  C   UNL     1       3.276  14.569  19.217  0.00  0.00    +0.000 A 
ATOM      7  C   UNL     1       3.300  14.867  20.577  0.00  0.00    +0.000 A 
ATOM      8  C   UNL     1       2.231  14.488  21.397  0.00  0.00    +0.000 A 
ATOM      9  C   UNL     1       1.146  13.776  20.874  0.00  0.00    +0.000 A 
ATOM     10  S   UNL     1      -0.272  13.432  21.860  0.00  0.00    +0.000 S 
ATOM     11  C   UNL     1      -0.267  11.655  21.855  0.00  0.00    +0.000 A 
ATOM     12  N   UNL     1      -0.502  11.200  23.123  0.00  0.00    +0.000 NA
ATOM     13  C   UNL     1      -0.601   9.880  23.334  0.00  0.00    +0.000 A 
ATOM     14  C   UNL     1      -0.464   8.963  22.321  0.00  0.00    +0.000 A 
ATOM     15  C   UNL     1      -0.205   9.431  21.030  0.00  0.00    +0.000 A 
ATOM     16  C   UNL     1      -0.104  10.807  20.732  0.00  0.00    +0.000 A 
ENDROOT
BRANCH   1  17
ATOM     17  C   UNL     1       0.052  10.310  18.219  0.00  0.00    +0.000 C 
BRANCH  17  19
ATOM     18  O   UNL     1       2.391  10.130  17.652  0.00  0.00    +0.000 OA
ATOM     19  C   UNL     1       1.407   9.570  18.126  0.00  0.00    +0.000 C 
ATOM     20  N   UNL     1       1.345   8.231  18.508  0.00  0.00    +0.000 N 
ATOM     21  H   UNL     1       0.402   7.839  18.570  0.00  0.00    +0.000 HD
BRANCH  20  22
ATOM     22  C   UNL     1       2.416   7.307  18.511  0.00  0.00    +0.000 A 
ATOM     23  C   UNL     1       2.699   6.479  19.597  0.00  0.00    +0.000 A 
ATOM     24  C   UNL     1       3.796   5.612  19.573  0.00  0.00    +0.000 A 
ATOM     25  C   UNL     1       4.632   5.571  18.460  0.00  0.00    +0.000 A 
ATOM     26  C   UNL     1       4.362   6.380  17.348  0.00  0.00    +0.000 A 
ATOM     27  C   UNL     1       3.235   7.227  17.374  0.00  0.00    +0.000 A 
BRANCH  26  28
ATOM     28  C   UNL     1       5.280   6.358  16.148  0.00  0.00    +0.000 C 
ATOM     29  F   UNL     1       4.841   7.122  15.108  0.00  0.00    +0.000 F 
ATOM     30  F   UNL     1       6.534   6.807  16.436  0.00  0.00    +0.000 F 
ATOM     31  F   UNL     1       5.439   5.103  15.642  0.00  0.00    +0.000 F 
ENDBRANCH  26  28
ENDBRANCH  20  22
ENDBRANCH  17  19
ENDBRANCH   1  17
TORSDOF 4
ENDMDL
