MODEL 1
REMARK VINA RESULT:      -9.1      0.000      0.000
REMARK  Name = 
REMARK  7 active torsions:
REMARK  status: ('A' for Active; 'I' for Inactive)
REMARK    1  A    between atoms: C_1  and  C_2
REMARK    2  A    between atoms: C_4  and  C_5
REMARK    3  A    between atoms: C_5  and  S_6
REMARK    4  A    between atoms: S_6  and  C_9
REMARK    5  A    between atoms: C_16  and  C_17
REMARK    6  A    between atoms: N_19  and  N_20
REMARK    7  A    between atoms: C_21  and  C_23
REMARK                            x       y       z     vdW  Elec       q    Type
REMARK                         _______ _______ _______ _____ _____    ______ ____
ROOT
ATOM      1  C   UNL     1       3.606   2.493  20.180  0.00  0.00    +0.000 C 
ATOM      2  C   UNL     1       3.825   3.435  19.047  0.00  0.00    +0.000 A 
ATOM      3  N   UNL     1       4.667   3.010  18.029  0.00  0.00    +0.000 NA
ATOM      4  C   UNL     1       4.778   3.928  17.097  0.00  0.00    +0.000 A 
ATOM      5  S   UNL     1       3.895   5.368  17.402  0.00  0.00    +0.000 S 
ATOM      6  C   UNL     1       3.295   4.706  18.875  0.00  0.00    +0.000 A 
ENDROOT
BRANCH   6   7
ATOM      7  C   UNL     1       2.385   5.442  19.745  0.00  0.00    +0.000 C 
ATOM      8  O   UNL     1       1.442   4.923  20.343  0.00  0.00    +0.000 OA
ATOM      9  N   UNL     1       2.638   6.798  19.868  0.00  0.00    +0.000 N 
ATOM     10  H   UNL     1       3.416   7.259  19.395  0.00  0.00    +0.000 HD
BRANCH   9  11
ATOM     11  N   UNL     1       1.854   7.602  20.705  0.00  0.00    +0.000 N 
ATOM     12  C   UNL     1       1.305   8.744  20.152  0.00  0.00    +0.000 C 
ATOM     13  O   UNL     1       1.517   9.079  18.990  0.00  0.00    +0.000 OA
ATOM     14  H   UNL     1       1.566   7.196  21.594  0.00  0.00    +0.000 HD
BRANCH  12  15
ATOM     15  C   UNL     1       0.409   9.559  21.022  0.00  0.00    +0.000 A 
ATOM     16  C   UNL     1       0.213   9.261  22.376  0.00  0.00    +0.000 A 
ATOM     17  C   UNL     1      -0.623  10.070  23.155  0.00  0.00    +0.000 A 
ATOM     18  C   UNL     1      -1.257  11.173  22.585  0.00  0.00    +0.000 A 
ATOM     19 CL   UNL     1      -2.285  12.161  23.547  0.00  0.00    +0.000 Cl
ATOM     20  C   UNL     1      -1.056  11.485  21.242  0.00  0.00    +0.000 A 
ATOM     21  C   UNL     1      -0.217  10.683  20.462  0.00  0.00    +0.000 A 
ENDBRANCH  12  15
ENDBRANCH   9  11
ENDBRANCH   6   7
BRANCH   4  22
ATOM     22  C   UNL     1       5.666   3.795  15.912  0.00  0.00    +0.000 C 
BRANCH  22  23
ATOM     23  S   UNL     1       6.321   5.376  15.461  0.00  0.00    +0.000 S 
ATOM     24  O   UNL     1       7.352   5.169  14.452  0.00  0.00    +0.000 OA
ATOM     25  O   UNL     1       5.206   6.256  15.151  0.00  0.00    +0.000 OA
BRANCH  23  26
ATOM     26  C   UNL     1       7.115   6.014  16.921  0.00  0.00    +0.000 A 
ATOM     27  C   UNL     1       7.474   5.165  17.957  0.00  0.00    +0.000 A 
ATOM     28  C   UNL     1       8.096   5.736  19.063  0.00  0.00    +0.000 A 
ATOM     29  C   UNL     1       8.335   7.109  19.080  0.00  0.00    +0.000 A 
ATOM     30  C   UNL     1       7.940   7.867  17.986  0.00  0.00    +0.000 A 
ATOM     31  N   UNL     1       7.330   7.355  16.896  0.00  0.00    +0.000 NA
ENDBRANCH  23  26
ENDBRANCH  22  23
ENDBRANCH   4  22
TORSDOF 6
ENDMDL
MODEL 2
REMARK VINA RESULT:      -8.9      0.653      1.310
REMARK  Name = 
REMARK  7 active torsions:
REMARK  status: ('A' for Active; 'I' for Inactive)
REMARK    1  A    between atoms: C_1  and  C_2
REMARK    2  A    between atoms: C_4  and  C_5
REMARK    3  A    between atoms: C_5  and  S_6
REMARK    4  A    between atoms: S_6  and  C_9
REMARK    5  A    between atoms: C_16  and  C_17
REMARK    6  A    between atoms: N_19  and  N_20
REMARK    7  A    between atoms: C_21  and  C_23
REMARK                            x       y       z     vdW  Elec       q    Type
REMARK                         _______ _______ _______ _____ _____    ______ ____
ROOT
ATOM      1  C   UNL     1       3.503   2.682  20.339  0.00  0.00    +0.000 C 
ATOM      2  C   UNL     1       3.688   3.558  19.149  0.00  0.00    +0.000 A 
ATOM      3  N   UNL     1       4.483   3.068  18.124  0.00  0.00    +0.000 NA
ATOM      4  C   UNL     1       4.568   3.933  17.139  0.00  0.00    +0.000 A 
ATOM      5  S   UNL     1       3.715   5.399  17.400  0.00  0.00    +0.000 S 
ATOM      6  C   UNL     1       3.166   4.825  18.929  0.00  0.00    +0.000 A 
ENDROOT
BRANCH   6   7
ATOM      7  C   UNL     1       2.301   5.620  19.793  0.00  0.00    +0.000 C 
ATOM      8  O   UNL     1       1.354   5.153  20.428  0.00  0.00    +0.000 OA
ATOM      9  N   UNL     1       2.601   6.970  19.865  0.00  0.00    +0.000 N 
ATOM     10  H   UNL     1       3.383   7.389  19.361  0.00  0.00    +0.000 HD
BRANCH   9  11
ATOM     11  N   UNL     1       1.862   7.827  20.691  0.00  0.00    +0.000 N 
ATOM     12  C   UNL     1       1.208   8.882  20.084  0.00  0.00    +0.000 C 
ATOM     13  O   UNL     1       1.291   9.100  18.878  0.00  0.00    +0.000 OA
ATOM     14  H   UNL     1       1.682   7.507  21.641  0.00  0.00    +0.000 HD
BRANCH  12  15
ATOM     15  C   UNL     1       0.361   9.749  20.952  0.00  0.00    +0.000 A 
ATOM     16  C   UNL     1      -0.200  10.945  20.489  0.00  0.00    +0.000 A 
ATOM     17  C   UNL     1      -1.006  11.713  21.339  0.00  0.00    +0.000 A 
ATOM     18  C   UNL     1      -1.253  11.286  22.643  0.00  0.00    +0.000 A 
ATOM     19 CL   UNL     1      -2.241  12.236  23.682  0.00  0.00    +0.000 Cl
ATOM     20  C   UNL     1      -0.709  10.089  23.107  0.00  0.00    +0.000 A 
ATOM     21  C   UNL     1       0.091   9.317  22.259  0.00  0.00    +0.000 A 
ENDBRANCH  12  15
ENDBRANCH   9  11
ENDBRANCH   6   7
BRANCH   4  22
ATOM     22  C   UNL     1       5.406   3.723  15.929  0.00  0.00    +0.000 C 
BRANCH  22  23
ATOM     23  S   UNL     1       6.318   5.194  15.558  0.00  0.00    +0.000 S 
ATOM     24  O   UNL     1       7.361   4.852  14.599  0.00  0.00    +0.000 OA
ATOM     25  O   UNL     1       5.368   6.241  15.215  0.00  0.00    +0.000 OA
BRANCH  23  26
ATOM     26  C   UNL     1       7.117   5.674  17.076  0.00  0.00    +0.000 A 
ATOM     27  C   UNL     1       7.354   7.011  17.356  0.00  0.00    +0.000 A 
ATOM     28  C   UNL     1       7.977   7.308  18.565  0.00  0.00    +0.000 A 
ATOM     29  C   UNL     1       8.324   6.271  19.428  0.00  0.00    +0.000 A 
ATOM     30  C   UNL     1       8.035   4.966  19.051  0.00  0.00    +0.000 A 
ATOM     31  N   UNL     1       7.437   4.634  17.888  0.00  0.00    +0.000 NA
ENDBRANCH  23  26
ENDBRANCH  22  23
ENDBRANCH   4  22
TORSDOF 6
ENDMDL
MODEL 3
REMARK VINA RESULT:      -8.8      2.678      4.248
REMARK  Name = 
REMARK  7 active torsions:
REMARK  status: ('A' for Active; 'I' for Inactive)
REMARK    1  A    between atoms: C_1  and  C_2
REMARK    2  A    between atoms: C_4  and  C_5
REMARK    3  A    between atoms: C_5  and  S_6
REMARK    4  A    between atoms: S_6  and  C_9
REMARK    5  A    between atoms: C_16  and  C_17
REMARK    6  A    between atoms: N_19  and  N_20
REMARK    7  A    between atoms: C_21  and  C_23
REMARK                            x       y       z     vdW  Elec       q    Type
REMARK                         _______ _______ _______ _____ _____    ______ ____
ROOT
ATOM      1  C   UNL     1       1.921   9.299  18.262  0.00  0.00    +0.000 C 
ATOM      2  C   UNL     1       2.033   8.021  19.017  0.00  0.00    +0.000 A 
ATOM      3  N   UNL     1       2.523   6.922  18.326  0.00  0.00    +0.000 NA
ATOM      4  C   UNL     1       2.570   5.862  19.100  0.00  0.00    +0.000 A 
ATOM      5  S   UNL     1       2.001   6.118  20.699  0.00  0.00    +0.000 S 
ATOM      6  C   UNL     1       1.698   7.777  20.342  0.00  0.00    +0.000 A 
ENDROOT
BRANCH   6   7
ATOM      7  C   UNL     1       1.165   8.700  21.336  0.00  0.00    +0.000 C 
ATOM      8  O   UNL     1       1.765   9.022  22.362  0.00  0.00    +0.000 OA
ATOM      9  N   UNL     1      -0.093   9.214  21.064  0.00  0.00    +0.000 N 
ATOM     10  H   UNL     1      -0.614   8.977  20.220  0.00  0.00    +0.000 HD
BRANCH   9  11
ATOM     11  N   UNL     1      -0.692  10.140  21.928  0.00  0.00    +0.000 N 
ATOM     12  C   UNL     1      -0.561  11.479  21.609  0.00  0.00    +0.000 C 
ATOM     13  O   UNL     1       0.084  11.862  20.637  0.00  0.00    +0.000 OA
ATOM     14  H   UNL     1      -1.355   9.771  22.609  0.00  0.00    +0.000 HD
BRANCH  12  15
ATOM     15  C   UNL     1      -1.262  12.459  22.485  0.00  0.00    +0.000 A 
ATOM     16  C   UNL     1      -0.716  13.713  22.787  0.00  0.00    +0.000 A 
ATOM     17  C   UNL     1      -1.425  14.607  23.598  0.00  0.00    +0.000 A 
ATOM     18  C   UNL     1      -2.675  14.251  24.103  0.00  0.00    +0.000 A 
ATOM     19 CL   UNL     1      -3.539  15.353  25.103  0.00  0.00    +0.000 Cl
ATOM     20  C   UNL     1      -3.233  13.011  23.796  0.00  0.00    +0.000 A 
ATOM     21  C   UNL     1      -2.530  12.119  22.981  0.00  0.00    +0.000 A 
ENDBRANCH  12  15
ENDBRANCH   9  11
ENDBRANCH   6   7
BRANCH   4  22
ATOM     22  C   UNL     1       2.985   4.515  18.627  0.00  0.00    +0.000 C 
BRANCH  22  23
ATOM     23  S   UNL     1       4.715   4.276  18.915  0.00  0.00    +0.000 S 
ATOM     24  O   UNL     1       5.202   5.397  19.710  0.00  0.00    +0.000 OA
ATOM     25  O   UNL     1       4.908   2.926  19.418  0.00  0.00    +0.000 OA
BRANCH  23  26
ATOM     26  C   UNL     1       5.497   4.368  17.318  0.00  0.00    +0.000 A 
ATOM     27  C   UNL     1       4.753   4.214  16.158  0.00  0.00    +0.000 A 
ATOM     28  C   UNL     1       5.433   4.305  14.947  0.00  0.00    +0.000 A 
ATOM     29  C   UNL     1       6.804   4.548  14.950  0.00  0.00    +0.000 A 
ATOM     30  C   UNL     1       7.453   4.692  16.170  0.00  0.00    +0.000 A 
ATOM     31  N   UNL     1       6.833   4.607  17.365  0.00  0.00    +0.000 NA
ENDBRANCH  23  26
ENDBRANCH  22  23
ENDBRANCH   4  22
TORSDOF 6
ENDMDL
MODEL 4
REMARK VINA RESULT:      -8.6      1.095      1.507
REMARK  Name = 
REMARK  7 active torsions:
REMARK  status: ('A' for Active; 'I' for Inactive)
REMARK    1  A    between atoms: C_1  and  C_2
REMARK    2  A    between atoms: C_4  and  C_5
REMARK    3  A    between atoms: C_5  and  S_6
REMARK    4  A    between atoms: S_6  and  C_9
REMARK    5  A    between atoms: C_16  and  C_17
REMARK    6  A    between atoms: N_19  and  N_20
REMARK    7  A    between atoms: C_21  and  C_23
REMARK                            x       y       z     vdW  Elec       q    Type
REMARK                         _______ _______ _______ _____ _____    ______ ____
ROOT
ATOM      1  C   UNL     1       1.061   3.962  17.744  0.00  0.00    +0.000 C 
ATOM      2  C   UNL     1       2.442   4.452  18.008  0.00  0.00    +0.000 A 
ATOM      3  N   UNL     1       3.459   3.917  17.231  0.00  0.00    +0.000 NA
ATOM      4  C   UNL     1       4.623   4.428  17.563  0.00  0.00    +0.000 A 
ATOM      5  S   UNL     1       4.565   5.564  18.847  0.00  0.00    +0.000 S 
ATOM      6  C   UNL     1       2.854   5.385  18.949  0.00  0.00    +0.000 A 
ENDROOT
BRANCH   6   7
ATOM      7  C   UNL     1       2.051   6.130  19.911  0.00  0.00    +0.000 C 
ATOM      8  O   UNL     1       1.454   5.607  20.853  0.00  0.00    +0.000 OA
ATOM      9  N   UNL     1       1.985   7.499  19.707  0.00  0.00    +0.000 N 
ATOM     10  H   UNL     1       2.475   7.966  18.944  0.00  0.00    +0.000 HD
BRANCH   9  11
ATOM     11  N   UNL     1       1.274   8.323  20.588  0.00  0.00    +0.000 N 
ATOM     12  C   UNL     1       0.683   9.455  20.058  0.00  0.00    +0.000 C 
ATOM     13  O   UNL     1       0.800   9.764  18.875  0.00  0.00    +0.000 OA
ATOM     14  H   UNL     1       1.060   7.937  21.506  0.00  0.00    +0.000 HD
BRANCH  12  15
ATOM     15  C   UNL     1      -0.136  10.290  20.980  0.00  0.00    +0.000 A 
ATOM     16  C   UNL     1      -0.781  11.458  20.553  0.00  0.00    +0.000 A 
ATOM     17  C   UNL     1      -1.557  12.197  21.454  0.00  0.00    +0.000 A 
ATOM     18  C   UNL     1      -1.691  11.770  22.775  0.00  0.00    +0.000 A 
ATOM     19 CL   UNL     1      -2.644  12.685  23.877  0.00  0.00    +0.000 Cl
ATOM     20  C   UNL     1      -1.065  10.602  23.204  0.00  0.00    +0.000 A 
ATOM     21  C   UNL     1      -0.295   9.858  22.305  0.00  0.00    +0.000 A 
ENDBRANCH  12  15
ENDBRANCH   9  11
ENDBRANCH   6   7
BRANCH   4  22
ATOM     22  C   UNL     1       5.911   4.001  16.956  0.00  0.00    +0.000 C 
BRANCH  22  23
ATOM     23  S   UNL     1       6.598   5.320  15.995  0.00  0.00    +0.000 S 
ATOM     24  O   UNL     1       7.664   4.770  15.166  0.00  0.00    +0.000 OA
ATOM     25  O   UNL     1       5.503   6.025  15.349  0.00  0.00    +0.000 OA
BRANCH  23  26
ATOM     26  C   UNL     1       7.343   6.441  17.160  0.00  0.00    +0.000 A 
ATOM     27  C   UNL     1       7.887   5.969  18.345  0.00  0.00    +0.000 A 
ATOM     28  C   UNL     1       8.458   6.906  19.202  0.00  0.00    +0.000 A 
ATOM     29  C   UNL     1       8.464   8.250  18.838  0.00  0.00    +0.000 A 
ATOM     30  C   UNL     1       7.896   8.615  17.624  0.00  0.00    +0.000 A 
ATOM     31  N   UNL     1       7.329   7.741  16.767  0.00  0.00    +0.000 NA
ENDBRANCH  23  26
ENDBRANCH  22  23
ENDBRANCH   4  22
TORSDOF 6
ENDMDL
MODEL 5
REMARK VINA RESULT:      -8.5      1.753      2.912
REMARK  Name = 
REMARK  7 active torsions:
REMARK  status: ('A' for Active; 'I' for Inactive)
REMARK    1  A    between atoms: C_1  and  C_2
REMARK    2  A    between atoms: C_4  and  C_5
REMARK    3  A    between atoms: C_5  and  S_6
REMARK    4  A    between atoms: S_6  and  C_9
REMARK    5  A    between atoms: C_16  and  C_17
REMARK    6  A    between atoms: N_19  and  N_20
REMARK    7  A    between atoms: C_21  and  C_23
REMARK                            x       y       z     vdW  Elec       q    Type
REMARK                         _______ _______ _______ _____ _____    ______ ____
ROOT
ATOM      1  C   UNL     1       2.958   2.709  20.569  0.00  0.00    +0.000 C 
ATOM      2  C   UNL     1       3.583   3.731  19.685  0.00  0.00    +0.000 A 
ATOM      3  N   UNL     1       4.585   3.296  18.829  0.00  0.00    +0.000 NA
ATOM      4  C   UNL     1       5.053   4.289  18.109  0.00  0.00    +0.000 A 
ATOM      5  S   UNL     1       4.334   5.812  18.438  0.00  0.00    +0.000 S 
ATOM      6  C   UNL     1       3.297   5.087  19.608  0.00  0.00    +0.000 A 
ENDROOT
BRANCH   6   7
ATOM      7  C   UNL     1       2.312   5.858  20.357  0.00  0.00    +0.000 C 
ATOM      8  O   UNL     1       1.565   5.370  21.206  0.00  0.00    +0.000 OA
ATOM      9  N   UNL     1       2.252   7.209  20.057  0.00  0.00    +0.000 N 
ATOM     10  H   UNL     1       2.862   7.648  19.368  0.00  0.00    +0.000 HD
BRANCH   9  11
ATOM     11  N   UNL     1       1.370   8.057  20.739  0.00  0.00    +0.000 N 
ATOM     12  C   UNL     1       1.109   9.289  20.168  0.00  0.00    +0.000 C 
ATOM     13  O   UNL     1       1.649   9.659  19.128  0.00  0.00    +0.000 OA
ATOM     14  H   UNL     1       0.821   7.642  21.490  0.00  0.00    +0.000 HD
BRANCH  12  15
ATOM     15  C   UNL     1       0.113  10.160  20.854  0.00  0.00    +0.000 A 
ATOM     16  C   UNL     1      -0.732  11.024  20.148  0.00  0.00    +0.000 A 
ATOM     17  C   UNL     1      -1.665  11.807  20.838  0.00  0.00    +0.000 A 
ATOM     18  C   UNL     1      -1.756  11.724  22.228  0.00  0.00    +0.000 A 
ATOM     19 CL   UNL     1      -2.903  12.691  23.069  0.00  0.00    +0.000 Cl
ATOM     20  C   UNL     1      -0.928  10.856  22.937  0.00  0.00    +0.000 A 
ATOM     21  C   UNL     1       0.000  10.068  22.250  0.00  0.00    +0.000 A 
ENDBRANCH  12  15
ENDBRANCH   9  11
ENDBRANCH   6   7
BRANCH   4  22
ATOM     22  C   UNL     1       6.181   4.150  17.150  0.00  0.00    +0.000 C 
BRANCH  22  23
ATOM     23  S   UNL     1       6.226   5.543  16.058  0.00  0.00    +0.000 S 
ATOM     24  O   UNL     1       4.896   6.139  16.027  0.00  0.00    +0.000 OA
ATOM     25  O   UNL     1       7.357   6.376  16.435  0.00  0.00    +0.000 OA
BRANCH  23  26
ATOM     26  C   UNL     1       6.562   4.887  14.437  0.00  0.00    +0.000 A 
ATOM     27  C   UNL     1       5.758   3.894  13.897  0.00  0.00    +0.000 A 
ATOM     28  C   UNL     1       6.079   3.436  12.623  0.00  0.00    +0.000 A 
ATOM     29  C   UNL     1       7.170   3.987  11.954  0.00  0.00    +0.000 A 
ATOM     30  C   UNL     1       7.906   4.982  12.585  0.00  0.00    +0.000 A 
ATOM     31  N   UNL     1       7.631   5.452  13.819  0.00  0.00    +0.000 NA
ENDBRANCH  23  26
ENDBRANCH  22  23
ENDBRANCH   4  22
TORSDOF 6
ENDMDL
MODEL 6
REMARK VINA RESULT:      -8.4      2.300      3.216
REMARK  Name = 
REMARK  7 active torsions:
REMARK  status: ('A' for Active; 'I' for Inactive)
REMARK    1  A    between atoms: C_1  and  C_2
REMARK    2  A    between atoms: C_4  and  C_5
REMARK    3  A    between atoms: C_5  and  S_6
REMARK    4  A    between atoms: S_6  and  C_9
REMARK    5  A    between atoms: C_16  and  C_17
REMARK    6  A    between atoms: N_19  and  N_20
REMARK    7  A    between atoms: C_21  and  C_23
REMARK                            x       y       z     vdW  Elec       q    Type
REMARK                         _______ _______ _______ _____ _____    ______ ____
ROOT
ATOM      1  C   UNL     1       1.915   5.216  20.390  0.00  0.00    +0.000 C 
ATOM      2  C   UNL     1       2.797   5.485  19.221  0.00  0.00    +0.000 A 
ATOM      3  N   UNL     1       3.634   4.456  18.814  0.00  0.00    +0.000 NA
ATOM      4  C   UNL     1       4.358   4.820  17.781  0.00  0.00    +0.000 A 
ATOM      5  S   UNL     1       4.094   6.432  17.254  0.00  0.00    +0.000 S 
ATOM      6  C   UNL     1       2.900   6.652  18.477  0.00  0.00    +0.000 A 
ENDROOT
BRANCH   6   7
ATOM      7  C   UNL     1       2.172   7.905  18.636  0.00  0.00    +0.000 C 
ATOM      8  O   UNL     1       1.839   8.626  17.693  0.00  0.00    +0.000 OA
ATOM      9  N   UNL     1       1.867   8.262  19.939  0.00  0.00    +0.000 N 
ATOM     10  H   UNL     1       2.119   7.685  20.741  0.00  0.00    +0.000 HD
BRANCH   9  11
ATOM     11  N   UNL     1       1.137   9.426  20.212  0.00  0.00    +0.000 N 
ATOM     12  C   UNL     1       0.075   9.315  21.090  0.00  0.00    +0.000 C 
ATOM     13  O   UNL     1      -0.256   8.242  21.588  0.00  0.00    +0.000 OA
ATOM     14  H   UNL     1       1.554  10.309  19.920  0.00  0.00    +0.000 HD
BRANCH  12  15
ATOM     15  C   UNL     1      -0.653  10.567  21.440  0.00  0.00    +0.000 A 
ATOM     16  C   UNL     1      -0.889  10.946  22.767  0.00  0.00    +0.000 A 
ATOM     17  C   UNL     1      -1.560  12.144  23.043  0.00  0.00    +0.000 A 
ATOM     18  C   UNL     1      -1.991  12.960  21.998  0.00  0.00    +0.000 A 
ATOM     19 CL   UNL     1      -2.818  14.428  22.344  0.00  0.00    +0.000 Cl
ATOM     20  C   UNL     1      -1.748  12.598  20.675  0.00  0.00    +0.000 A 
ATOM     21  C   UNL     1      -1.072  11.406  20.396  0.00  0.00    +0.000 A 
ENDBRANCH  12  15
ENDBRANCH   9  11
ENDBRANCH   6   7
BRANCH   4  22
ATOM     22  C   UNL     1       5.399   3.958  17.162  0.00  0.00    +0.000 C 
BRANCH  22  23
ATOM     23  S   UNL     1       6.749   4.950  16.589  0.00  0.00    +0.000 S 
ATOM     24  O   UNL     1       6.404   6.351  16.800  0.00  0.00    +0.000 OA
ATOM     25  O   UNL     1       7.973   4.434  17.182  0.00  0.00    +0.000 OA
BRANCH  23  26
ATOM     26  C   UNL     1       6.850   4.678  14.833  0.00  0.00    +0.000 A 
ATOM     27  C   UNL     1       5.957   3.827  14.198  0.00  0.00    +0.000 A 
ATOM     28  C   UNL     1       6.095   3.669  12.822  0.00  0.00    +0.000 A 
ATOM     29  C   UNL     1       7.100   4.363  12.152  0.00  0.00    +0.000 A 
ATOM     30  C   UNL     1       7.938   5.195  12.884  0.00  0.00    +0.000 A 
ATOM     31  N   UNL     1       7.841   5.373  14.218  0.00  0.00    +0.000 NA
ENDBRANCH  23  26
ENDBRANCH  22  23
ENDBRANCH   4  22
TORSDOF 6
ENDMDL
MODEL 7
REMARK VINA RESULT:      -8.4      2.246      3.205
REMARK  Name = 
REMARK  7 active torsions:
REMARK  status: ('A' for Active; 'I' for Inactive)
REMARK    1  A    between atoms: C_1  and  C_2
REMARK    2  A    between atoms: C_4  and  C_5
REMARK    3  A    between atoms: C_5  and  S_6
REMARK    4  A    between atoms: S_6  and  C_9
REMARK    5  A    between atoms: C_16  and  C_17
REMARK    6  A    between atoms: N_19  and  N_20
REMARK    7  A    between atoms: C_21  and  C_23
REMARK                            x       y       z     vdW  Elec       q    Type
REMARK                         _______ _______ _______ _____ _____    ______ ____
ROOT
ATOM      1  C   UNL     1       2.668   7.864  17.185  0.00  0.00    +0.000 C 
ATOM      2  C   UNL     1       3.244   6.782  18.030  0.00  0.00    +0.000 A 
ATOM      3  N   UNL     1       4.253   6.014  17.468  0.00  0.00    +0.000 NA
ATOM      4  C   UNL     1       4.671   5.097  18.311  0.00  0.00    +0.000 A 
ATOM      5  S   UNL     1       3.856   5.089  19.821  0.00  0.00    +0.000 S 
ATOM      6  C   UNL     1       2.893   6.429  19.326  0.00  0.00    +0.000 A 
ENDROOT
BRANCH   6   7
ATOM      7  C   UNL     1       1.886   7.026  20.195  0.00  0.00    +0.000 C 
ATOM      8  O   UNL     1       1.173   6.375  20.961  0.00  0.00    +0.000 OA
ATOM      9  N   UNL     1       1.762   8.403  20.114  0.00  0.00    +0.000 N 
ATOM     10  H   UNL     1       2.342   8.973  19.499  0.00  0.00    +0.000 HD
BRANCH   9  11
ATOM     11  N   UNL     1       0.853   9.091  20.929  0.00  0.00    +0.000 N 
ATOM     12  C   UNL     1       0.326  10.269  20.433  0.00  0.00    +0.000 C 
ATOM     13  O   UNL     1       0.658  10.730  19.344  0.00  0.00    +0.000 OA
ATOM     14  H   UNL     1       0.482   8.586  21.731  0.00  0.00    +0.000 HD
BRANCH  12  15
ATOM     15  C   UNL     1      -0.697  10.961  21.266  0.00  0.00    +0.000 A 
ATOM     16  C   UNL     1      -0.830  10.716  22.639  0.00  0.00    +0.000 A 
ATOM     17  C   UNL     1      -1.793  11.409  23.382  0.00  0.00    +0.000 A 
ATOM     18  C   UNL     1      -2.618  12.344  22.758  0.00  0.00    +0.000 A 
ATOM     19 CL   UNL     1      -3.802  13.188  23.676  0.00  0.00    +0.000 Cl
ATOM     20  C   UNL     1      -2.483  12.604  21.395  0.00  0.00    +0.000 A 
ATOM     21  C   UNL     1      -1.517  11.919  20.652  0.00  0.00    +0.000 A 
ENDBRANCH  12  15
ENDBRANCH   9  11
ENDBRANCH   6   7
BRANCH   4  22
ATOM     22  C   UNL     1       5.698   4.076  17.973  0.00  0.00    +0.000 C 
BRANCH  22  23
ATOM     23  S   UNL     1       7.103   4.850  17.225  0.00  0.00    +0.000 S 
ATOM     24  O   UNL     1       7.025   6.282  17.487  0.00  0.00    +0.000 OA
ATOM     25  O   UNL     1       8.293   4.127  17.643  0.00  0.00    +0.000 OA
BRANCH  23  26
ATOM     26  C   UNL     1       6.921   4.612  15.470  0.00  0.00    +0.000 A 
ATOM     27  C   UNL     1       5.973   3.730  14.972  0.00  0.00    +0.000 A 
ATOM     28  C   UNL     1       5.885   3.602  13.590  0.00  0.00    +0.000 A 
ATOM     29  C   UNL     1       6.732   4.354  12.779  0.00  0.00    +0.000 A 
ATOM     30  C   UNL     1       7.642   5.213  13.381  0.00  0.00    +0.000 A 
ATOM     31  N   UNL     1       7.763   5.364  14.716  0.00  0.00    +0.000 NA
ENDBRANCH  23  26
ENDBRANCH  22  23
ENDBRANCH   4  22
TORSDOF 6
ENDMDL
MODEL 8
REMARK VINA RESULT:      -8.3      2.695      4.236
REMARK  Name = 
REMARK  7 active torsions:
REMARK  status: ('A' for Active; 'I' for Inactive)
REMARK    1  A    between atoms: C_1  and  C_2
REMARK    2  A    between atoms: C_4  and  C_5
REMARK    3  A    between atoms: C_5  and  S_6
REMARK    4  A    between atoms: S_6  and  C_9
REMARK    5  A    between atoms: C_16  and  C_17
REMARK    6  A    between atoms: N_19  and  N_20
REMARK    7  A    between atoms: C_21  and  C_23
REMARK                            x       y       z     vdW  Elec       q    Type
REMARK                         _______ _______ _______ _____ _____    ______ ____
ROOT
ATOM      1  C   UNL     1       2.141   9.244  17.972  0.00  0.00    +0.000 C 
ATOM      2  C   UNL     1       2.173   7.991  18.776  0.00  0.00    +0.000 A 
ATOM      3  N   UNL     1       2.635   6.847  18.141  0.00  0.00    +0.000 NA
ATOM      4  C   UNL     1       2.611   5.816  18.954  0.00  0.00    +0.000 A 
ATOM      5  S   UNL     1       2.005   6.156  20.523  0.00  0.00    +0.000 S 
ATOM      6  C   UNL     1       1.788   7.811  20.097  0.00  0.00    +0.000 A 
ENDROOT
BRANCH   6   7
ATOM      7  C   UNL     1       1.265   8.793  21.039  0.00  0.00    +0.000 C 
ATOM      8  O   UNL     1       1.737   8.983  22.161  0.00  0.00    +0.000 OA
ATOM      9  N   UNL     1       0.174   9.525  20.600  0.00  0.00    +0.000 N 
ATOM     10  H   UNL     1      -0.236   9.402  19.674  0.00  0.00    +0.000 HD
BRANCH   9  11
ATOM     11  N   UNL     1      -0.391  10.524  21.404  0.00  0.00    +0.000 N 
ATOM     12  C   UNL     1      -1.174  11.474  20.774  0.00  0.00    +0.000 C 
ATOM     13  O   UNL     1      -1.346  11.483  19.558  0.00  0.00    +0.000 OA
ATOM     14  H   UNL     1      -0.366  10.373  22.410  0.00  0.00    +0.000 HD
BRANCH  12  15
ATOM     15  C   UNL     1      -1.836  12.491  21.638  0.00  0.00    +0.000 A 
ATOM     16  C   UNL     1      -3.142  12.937  21.398  0.00  0.00    +0.000 A 
ATOM     17  C   UNL     1      -3.727  13.879  22.253  0.00  0.00    +0.000 A 
ATOM     18  C   UNL     1      -3.012  14.372  23.344  0.00  0.00    +0.000 A 
ATOM     19 CL   UNL     1      -3.736  15.532  24.387  0.00  0.00    +0.000 Cl
ATOM     20  C   UNL     1      -1.717  13.923  23.598  0.00  0.00    +0.000 A 
ATOM     21  C   UNL     1      -1.133  12.978  22.751  0.00  0.00    +0.000 A 
ENDBRANCH  12  15
ENDBRANCH   9  11
ENDBRANCH   6   7
BRANCH   4  22
ATOM     22  C   UNL     1       2.981   4.435  18.543  0.00  0.00    +0.000 C 
BRANCH  22  23
ATOM     23  S   UNL     1       4.709   4.162  18.815  0.00  0.00    +0.000 S 
ATOM     24  O   UNL     1       5.198   5.205  19.708  0.00  0.00    +0.000 OA
ATOM     25  O   UNL     1       4.891   2.771  19.198  0.00  0.00    +0.000 OA
BRANCH  23  26
ATOM     26  C   UNL     1       5.498   4.390  17.235  0.00  0.00    +0.000 A 
ATOM     27  C   UNL     1       4.761   4.325  16.062  0.00  0.00    +0.000 A 
ATOM     28  C   UNL     1       5.446   4.519  14.867  0.00  0.00    +0.000 A 
ATOM     29  C   UNL     1       6.815   4.772  14.898  0.00  0.00    +0.000 A 
ATOM     30  C   UNL     1       7.456   4.822  16.129  0.00  0.00    +0.000 A 
ATOM     31  N   UNL     1       6.831   4.635  17.310  0.00  0.00    +0.000 NA
ENDBRANCH  23  26
ENDBRANCH  22  23
ENDBRANCH   4  22
TORSDOF 6
ENDMDL
MODEL 9
REMARK VINA RESULT:      -8.3      0.519      1.033
REMARK  Name = 
REMARK  7 active torsions:
REMARK  status: ('A' for Active; 'I' for Inactive)
REMARK    1  A    between atoms: C_1  and  C_2
REMARK    2  A    between atoms: C_4  and  C_5
REMARK    3  A    between atoms: C_5  and  S_6
REMARK    4  A    between atoms: S_6  and  C_9
REMARK    5  A    between atoms: C_16  and  C_17
REMARK    6  A    between atoms: N_19  and  N_20
REMARK    7  A    between atoms: C_21  and  C_23
REMARK                            x       y       z     vdW  Elec       q    Type
REMARK                         _______ _______ _______ _____ _____    ______ ____
ROOT
ATOM      1  C   UNL     1       2.858   2.594  19.773  0.00  0.00    +0.000 C 
ATOM      2  C   UNL     1       3.371   3.599  18.802  0.00  0.00    +0.000 A 
ATOM      3  N   UNL     1       4.193   3.132  17.786  0.00  0.00    +0.000 NA
ATOM      4  C   UNL     1       4.578   4.113  17.003  0.00  0.00    +0.000 A 
ATOM      5  S   UNL     1       3.995   5.661  17.457  0.00  0.00    +0.000 S 
ATOM      6  C   UNL     1       3.139   4.968  18.782  0.00  0.00    +0.000 A 
ENDROOT
BRANCH   6   7
ATOM      7  C   UNL     1       2.330   5.771  19.691  0.00  0.00    +0.000 C 
ATOM      8  O   UNL     1       1.749   5.312  20.675  0.00  0.00    +0.000 OA
ATOM      9  N   UNL     1       2.241   7.119  19.384  0.00  0.00    +0.000 N 
ATOM     10  H   UNL     1       2.718   7.534  18.584  0.00  0.00    +0.000 HD
BRANCH   9  11
ATOM     11  N   UNL     1       1.523   7.997  20.207  0.00  0.00    +0.000 N 
ATOM     12  C   UNL     1       1.161   9.216  19.666  0.00  0.00    +0.000 C 
ATOM     13  O   UNL     1       1.480   9.551  18.528  0.00  0.00    +0.000 OA
ATOM     14  H   UNL     1       1.135   7.608  21.065  0.00  0.00    +0.000 HD
BRANCH  12  15
ATOM     15  C   UNL     1       0.332  10.118  20.514  0.00  0.00    +0.000 A 
ATOM     16  C   UNL     1      -0.454  11.140  19.969  0.00  0.00    +0.000 A 
ATOM     17  C   UNL     1      -1.231  11.948  20.808  0.00  0.00    +0.000 A 
ATOM     18  C   UNL     1      -1.226  11.732  22.186  0.00  0.00    +0.000 A 
ATOM     19 CL   UNL     1      -2.181  12.730  23.211  0.00  0.00    +0.000 Cl
ATOM     20  C   UNL     1      -0.458  10.707  22.736  0.00  0.00    +0.000 A 
ATOM     21  C   UNL     1       0.314   9.895  21.900  0.00  0.00    +0.000 A 
ENDBRANCH  12  15
ENDBRANCH   9  11
ENDBRANCH   6   7
BRANCH   4  22
ATOM     22  C   UNL     1       5.521   3.937  15.866  0.00  0.00    +0.000 C 
BRANCH  22  23
ATOM     23  S   UNL     1       6.260   5.489  15.444  0.00  0.00    +0.000 S 
ATOM     24  O   UNL     1       7.280   5.245  14.431  0.00  0.00    +0.000 OA
ATOM     25  O   UNL     1       5.194   6.433  15.149  0.00  0.00    +0.000 OA
BRANCH  23  26
ATOM     26  C   UNL     1       7.086   6.058  16.915  0.00  0.00    +0.000 A 
ATOM     27  C   UNL     1       7.476   5.160  17.897  0.00  0.00    +0.000 A 
ATOM     28  C   UNL     1       8.121   5.678  19.016  0.00  0.00    +0.000 A 
ATOM     29  C   UNL     1       8.350   7.050  19.098  0.00  0.00    +0.000 A 
ATOM     30  C   UNL     1       7.922   7.861  18.054  0.00  0.00    +0.000 A 
ATOM     31  N   UNL     1       7.290   7.399  16.955  0.00  0.00    +0.000 NA
ENDBRANCH  23  26
ENDBRANCH  22  23
ENDBRANCH   4  22
TORSDOF 6
ENDMDL
