MODEL 1
REMARK VINA RESULT:      -9.1      0.000      0.000
REMARK  Name = 
REMARK  8 active torsions:
REMARK  status: ('A' for Active; 'I' for Inactive)
REMARK    1  A    between atoms: C_1  and  C_2
REMARK    2  A    between atoms: C_2  and  N_3
REMARK    3  A    between atoms: N_3  and  N_4
REMARK    4  A    between atoms: C_5  and  C_7
REMARK    5  A    between atoms: C_10  and  C_11
REMARK    6  A    between atoms: C_11  and  O_13
REMARK    7  A    between atoms: N_19  and  C_20
REMARK    8  A    between atoms: C_23  and  C_24
REMARK                            x       y       z     vdW  Elec       q    Type
REMARK                         _______ _______ _______ _____ _____    ______ ____
ROOT
ATOM      1  C   UNL     1       0.802   7.814  21.407  0.00  0.00    +0.000 C 
ATOM      2  C   UNL     1       1.624   7.972  20.145  0.00  0.00    +0.000 C 
ATOM      3  C   UNL     1       2.320   6.936  19.611  0.00  0.00    +0.000 C 
ATOM      4  C   UNL     1       3.255   7.083  18.425  0.00  0.00    +0.000 C 
ATOM      5  O   UNL     1       3.413   8.118  17.795  0.00  0.00    +0.000 OA
ATOM      6  N   UNL     1       3.838   5.806  18.238  0.00  0.00    +0.000 N 
ATOM      7  C   UNL     1       3.350   4.896  19.215  0.00  0.00    +0.000 A 
ATOM      8  C   UNL     1       3.709   3.572  19.468  0.00  0.00    +0.000 A 
ATOM      9  C   UNL     1       3.039   2.856  20.465  0.00  0.00    +0.000 A 
ATOM     10  C   UNL     1       2.062   3.484  21.230  0.00  0.00    +0.000 A 
ATOM     11  F   UNL     1       1.427   2.790  22.184  0.00  0.00    +0.000 F 
ATOM     12  C   UNL     1       1.746   4.822  21.038  0.00  0.00    +0.000 A 
ATOM     13  C   UNL     1       2.407   5.532  20.042  0.00  0.00    +0.000 A 
ENDROOT
BRANCH   6  14
ATOM     14  C   UNL     1       4.747   5.472  17.185  0.00  0.00    +0.000 A 
ATOM     15  C   UNL     1       6.036   6.028  17.151  0.00  0.00    +0.000 A 
ATOM     16  C   UNL     1       6.934   5.753  16.104  0.00  0.00    +0.000 A 
ATOM     17  C   UNL     1       6.570   4.910  15.053  0.00  0.00    +0.000 A 
ATOM     18  C   UNL     1       7.489   4.658  13.894  0.00  0.00    +0.000 C 
ATOM     19  C   UNL     1       5.301   4.335  15.078  0.00  0.00    +0.000 A 
ATOM     20  C   UNL     1       4.402   4.631  16.114  0.00  0.00    +0.000 A 
ENDBRANCH   6  14
BRANCH   2  21
ATOM     21  N   UNL     1       1.538   9.258  19.604  0.00  0.00    +0.000 N 
ATOM     22  H   UNL     1       1.879   9.974  20.260  0.00  0.00    +0.000 HD
BRANCH  21  23
ATOM     23  N   UNL     1       0.292   9.672  19.094  0.00  0.00    +0.000 N 
ATOM     24  C   UNL     1      -0.268  10.864  19.522  0.00  0.00    +0.000 C 
ATOM     25  O   UNL     1       0.278  11.697  20.239  0.00  0.00    +0.000 OA
ATOM     26  H   UNL     1      -0.191   9.017  18.490  0.00  0.00    +0.000 HD
BRANCH  24  27
ATOM     27  C   UNL     1      -1.642  11.126  19.003  0.00  0.00    +0.000 A 
ATOM     28  C   UNL     1      -2.518  11.990  19.671  0.00  0.00    +0.000 A 
ATOM     29  C   UNL     1      -3.823  12.166  19.201  0.00  0.00    +0.000 A 
ATOM     30  C   UNL     1      -4.263  11.490  18.056  0.00  0.00    +0.000 A 
ATOM     31  C   UNL     1      -3.364  10.685  17.340  0.00  0.00    +0.000 A 
ATOM     32  C   UNL     1      -2.058  10.506  17.818  0.00  0.00    +0.000 A 
BRANCH  30  33
ATOM     33  C   UNL     1      -5.675  11.689  17.634  0.00  0.00    +0.000 C 
ATOM     34  O   UNL     1      -6.012  12.549  16.835  0.00  0.00    +0.000 OA
BRANCH  33  35
ATOM     35  O   UNL     1      -6.558  10.887  18.266  0.00  0.00    +0.000 OA
ATOM     36  H   UNL     1      -6.612   9.971  17.936  0.00  0.00    +0.000 HD
ENDBRANCH  33  35
ENDBRANCH  30  33
ENDBRANCH  24  27
ENDBRANCH  21  23
ENDBRANCH   2  21
TORSDOF 6
ENDMDL
MODEL 2
REMARK VINA RESULT:      -9.0      1.986      2.300
REMARK  Name = 
REMARK  8 active torsions:
REMARK  status: ('A' for Active; 'I' for Inactive)
REMARK    1  A    between atoms: C_1  and  C_2
REMARK    2  A    between atoms: C_2  and  N_3
REMARK    3  A    between atoms: N_3  and  N_4
REMARK    4  A    between atoms: C_5  and  C_7
REMARK    5  A    between atoms: C_10  and  C_11
REMARK    6  A    between atoms: C_11  and  O_13
REMARK    7  A    between atoms: N_19  and  C_20
REMARK    8  A    between atoms: C_23  and  C_24
REMARK                            x       y       z     vdW  Elec       q    Type
REMARK                         _______ _______ _______ _____ _____    ______ ____
ROOT
ATOM      1  C   UNL     1       0.717   7.640  21.489  0.00  0.00    +0.000 C 
ATOM      2  C   UNL     1       1.525   7.839  20.223  0.00  0.00    +0.000 C 
ATOM      3  C   UNL     1       2.254   6.834  19.675  0.00  0.00    +0.000 C 
ATOM      4  C   UNL     1       3.176   7.026  18.485  0.00  0.00    +0.000 C 
ATOM      5  O   UNL     1       3.293   8.071  17.864  0.00  0.00    +0.000 OA
ATOM      6  N   UNL     1       3.802   5.772  18.282  0.00  0.00    +0.000 N 
ATOM      7  C   UNL     1       3.353   4.836  19.253  0.00  0.00    +0.000 A 
ATOM      8  C   UNL     1       3.760   3.522  19.491  0.00  0.00    +0.000 A 
ATOM      9  C   UNL     1       3.122   2.774  20.485  0.00  0.00    +0.000 A 
ATOM     10  C   UNL     1       2.129   3.359  21.262  0.00  0.00    +0.000 A 
ATOM     11  F   UNL     1       1.524   2.634  22.212  0.00  0.00    +0.000 F 
ATOM     12  C   UNL     1       1.765   4.687  21.085  0.00  0.00    +0.000 A 
ATOM     13  C   UNL     1       2.393   5.429  20.092  0.00  0.00    +0.000 A 
ENDROOT
BRANCH   6  14
ATOM     14  C   UNL     1       4.717   5.480  17.221  0.00  0.00    +0.000 A 
ATOM     15  C   UNL     1       5.963   6.123  17.154  0.00  0.00    +0.000 A 
ATOM     16  C   UNL     1       6.861   5.890  16.098  0.00  0.00    +0.000 A 
ATOM     17  C   UNL     1       6.541   5.002  15.070  0.00  0.00    +0.000 A 
ATOM     18  C   UNL     1       7.456   4.791  13.900  0.00  0.00    +0.000 C 
ATOM     19  C   UNL     1       5.316   4.341  15.127  0.00  0.00    +0.000 A 
ATOM     20  C   UNL     1       4.414   4.595  16.173  0.00  0.00    +0.000 A 
ENDBRANCH   6  14
BRANCH   2  21
ATOM     21  N   UNL     1       1.391   9.127  19.696  0.00  0.00    +0.000 N 
ATOM     22  H   UNL     1       2.232   9.697  19.854  0.00  0.00    +0.000 HD
BRANCH  21  23
ATOM     23  N   UNL     1       0.260   9.876  20.079  0.00  0.00    +0.000 N 
ATOM     24  C   UNL     1       0.407  10.963  20.924  0.00  0.00    +0.000 C 
ATOM     25  O   UNL     1       1.473  11.441  21.300  0.00  0.00    +0.000 OA
ATOM     26  H   UNL     1      -0.641   9.521  19.782  0.00  0.00    +0.000 HD
BRANCH  24  27
ATOM     27  C   UNL     1      -0.875  11.593  21.353  0.00  0.00    +0.000 A 
ATOM     28  C   UNL     1      -1.273  11.593  22.696  0.00  0.00    +0.000 A 
ATOM     29  C   UNL     1      -2.510  12.132  23.061  0.00  0.00    +0.000 A 
ATOM     30  C   UNL     1      -3.358  12.684  22.092  0.00  0.00    +0.000 A 
ATOM     31  C   UNL     1      -2.930  12.757  20.758  0.00  0.00    +0.000 A 
ATOM     32  C   UNL     1      -1.690  12.209  20.395  0.00  0.00    +0.000 A 
BRANCH  30  33
ATOM     33  C   UNL     1      -4.678  13.201  22.542  0.00  0.00    +0.000 C 
ATOM     34  O   UNL     1      -4.937  14.393  22.600  0.00  0.00    +0.000 OA
BRANCH  33  35
ATOM     35  O   UNL     1      -5.536  12.241  22.949  0.00  0.00    +0.000 OA
ATOM     36  H   UNL     1      -5.129  11.417  23.272  0.00  0.00    +0.000 HD
ENDBRANCH  33  35
ENDBRANCH  30  33
ENDBRANCH  24  27
ENDBRANCH  21  23
ENDBRANCH   2  21
TORSDOF 6
ENDMDL
MODEL 3
REMARK VINA RESULT:      -8.9      0.401      1.069
REMARK  Name = 
REMARK  8 active torsions:
REMARK  status: ('A' for Active; 'I' for Inactive)
REMARK    1  A    between atoms: C_1  and  C_2
REMARK    2  A    between atoms: C_2  and  N_3
REMARK    3  A    between atoms: N_3  and  N_4
REMARK    4  A    between atoms: C_5  and  C_7
REMARK    5  A    between atoms: C_10  and  C_11
REMARK    6  A    between atoms: C_11  and  O_13
REMARK    7  A    between atoms: N_19  and  C_20
REMARK    8  A    between atoms: C_23  and  C_24
REMARK                            x       y       z     vdW  Elec       q    Type
REMARK                         _______ _______ _______ _____ _____    ______ ____
ROOT
ATOM      1  C   UNL     1       0.755   7.751  21.500  0.00  0.00    +0.000 C 
ATOM      2  C   UNL     1       1.539   7.957  20.221  0.00  0.00    +0.000 C 
ATOM      3  C   UNL     1       2.262   6.957  19.656  0.00  0.00    +0.000 C 
ATOM      4  C   UNL     1       3.162   7.155  18.450  0.00  0.00    +0.000 C 
ATOM      5  O   UNL     1       3.264   8.203  17.831  0.00  0.00    +0.000 OA
ATOM      6  N   UNL     1       3.789   5.905  18.233  0.00  0.00    +0.000 N 
ATOM      7  C   UNL     1       3.361   4.964  19.208  0.00  0.00    +0.000 A 
ATOM      8  C   UNL     1       3.778   3.651  19.435  0.00  0.00    +0.000 A 
ATOM      9  C   UNL     1       3.160   2.897  20.438  0.00  0.00    +0.000 A 
ATOM     10  C   UNL     1       2.179   3.476  21.234  0.00  0.00    +0.000 A 
ATOM     11  F   UNL     1       1.594   2.746  22.193  0.00  0.00    +0.000 F 
ATOM     12  C   UNL     1       1.806   4.803  21.068  0.00  0.00    +0.000 A 
ATOM     13  C   UNL     1       2.414   5.551  20.066  0.00  0.00    +0.000 A 
ENDROOT
BRANCH   6  14
ATOM     14  C   UNL     1       4.685   5.619  17.154  0.00  0.00    +0.000 A 
ATOM     15  C   UNL     1       4.366   4.639  16.200  0.00  0.00    +0.000 A 
ATOM     16  C   UNL     1       5.248   4.305  15.157  0.00  0.00    +0.000 A 
ATOM     17  C   UNL     1       6.483   4.943  15.034  0.00  0.00    +0.000 A 
ATOM     18  C   UNL     1       7.465   4.553  13.969  0.00  0.00    +0.000 C 
ATOM     19  C   UNL     1       6.811   5.930  15.961  0.00  0.00    +0.000 A 
ATOM     20  C   UNL     1       5.936   6.243  17.013  0.00  0.00    +0.000 A 
ENDBRANCH   6  14
BRANCH   2  21
ATOM     21  N   UNL     1       1.390   9.246  19.699  0.00  0.00    +0.000 N 
ATOM     22  H   UNL     1       1.749   9.964  20.342  0.00  0.00    +0.000 HD
BRANCH  21  23
ATOM     23  N   UNL     1       0.107   9.631  19.264  0.00  0.00    +0.000 N 
ATOM     24  C   UNL     1      -0.116  10.931  18.841  0.00  0.00    +0.000 C 
ATOM     25  O   UNL     1       0.744  11.792  18.682  0.00  0.00    +0.000 OA
ATOM     26  H   UNL     1      -0.633   8.947  19.369  0.00  0.00    +0.000 HD
BRANCH  24  27
ATOM     27  C   UNL     1      -1.540  11.245  18.525  0.00  0.00    +0.000 A 
ATOM     28  C   UNL     1      -2.347  11.948  19.428  0.00  0.00    +0.000 A 
ATOM     29  C   UNL     1      -3.696  12.171  19.137  0.00  0.00    +0.000 A 
ATOM     30  C   UNL     1      -4.251  11.703  17.938  0.00  0.00    +0.000 A 
ATOM     31  C   UNL     1      -3.427  11.067  16.997  0.00  0.00    +0.000 A 
ATOM     32  C   UNL     1      -2.076  10.839  17.296  0.00  0.00    +0.000 A 
BRANCH  30  33
ATOM     33  C   UNL     1      -5.702  11.936  17.710  0.00  0.00    +0.000 C 
ATOM     34  O   UNL     1      -6.555  11.103  17.970  0.00  0.00    +0.000 OA
BRANCH  33  35
ATOM     35  O   UNL     1      -5.984  13.119  17.124  0.00  0.00    +0.000 OA
ATOM     36  H   UNL     1      -5.687  13.218  16.201  0.00  0.00    +0.000 HD
ENDBRANCH  33  35
ENDBRANCH  30  33
ENDBRANCH  24  27
ENDBRANCH  21  23
ENDBRANCH   2  21
TORSDOF 6
ENDMDL
MODEL 4
REMARK VINA RESULT:      -8.9      0.856      1.279
REMARK  Name = 
REMARK  8 active torsions:
REMARK  status: ('A' for Active; 'I' for Inactive)
REMARK    1  A    between atoms: C_1  and  C_2
REMARK    2  A    between atoms: C_2  and  N_3
REMARK    3  A    between atoms: N_3  and  N_4
REMARK    4  A    between atoms: C_5  and  C_7
REMARK    5  A    between atoms: C_10  and  C_11
REMARK    6  A    between atoms: C_11  and  O_13
REMARK    7  A    between atoms: N_19  and  C_20
REMARK    8  A    between atoms: C_23  and  C_24
REMARK                            x       y       z     vdW  Elec       q    Type
REMARK                         _______ _______ _______ _____ _____    ______ ____
ROOT
ATOM      1  C   UNL     1       0.834   7.544  21.551  0.00  0.00    +0.000 C 
ATOM      2  C   UNL     1       1.610   7.760  20.268  0.00  0.00    +0.000 C 
ATOM      3  C   UNL     1       2.341   6.768  19.699  0.00  0.00    +0.000 C 
ATOM      4  C   UNL     1       3.232   6.977  18.490  0.00  0.00    +0.000 C 
ATOM      5  O   UNL     1       3.320   8.027  17.870  0.00  0.00    +0.000 OA
ATOM      6  N   UNL     1       3.873   5.734  18.268  0.00  0.00    +0.000 N 
ATOM      7  C   UNL     1       3.461   4.788  19.245  0.00  0.00    +0.000 A 
ATOM      8  C   UNL     1       3.893   3.480  19.468  0.00  0.00    +0.000 A 
ATOM      9  C   UNL     1       3.289   2.718  20.474  0.00  0.00    +0.000 A 
ATOM     10  C   UNL     1       2.305   3.286  21.276  0.00  0.00    +0.000 A 
ATOM     11  F   UNL     1       1.733   2.549  22.237  0.00  0.00    +0.000 F 
ATOM     12  C   UNL     1       1.917   4.608  21.112  0.00  0.00    +0.000 A 
ATOM     13  C   UNL     1       2.511   5.364  20.108  0.00  0.00    +0.000 A 
ENDROOT
BRANCH   6  14
ATOM     14  C   UNL     1       4.767   5.459  17.185  0.00  0.00    +0.000 A 
ATOM     15  C   UNL     1       6.009   6.109  17.101  0.00  0.00    +0.000 A 
ATOM     16  C   UNL     1       6.887   5.893  16.024  0.00  0.00    +0.000 A 
ATOM     17  C   UNL     1       6.549   5.018  14.991  0.00  0.00    +0.000 A 
ATOM     18  C   UNL     1       7.442   4.825  13.801  0.00  0.00    +0.000 C 
ATOM     19  C   UNL     1       5.329   4.350  15.065  0.00  0.00    +0.000 A 
ATOM     20  C   UNL     1       4.447   4.587  16.131  0.00  0.00    +0.000 A 
ENDBRANCH   6  14
BRANCH   2  21
ATOM     21  N   UNL     1       1.444   9.047  19.749  0.00  0.00    +0.000 N 
ATOM     22  H   UNL     1       2.017   9.740  20.249  0.00  0.00    +0.000 HD
BRANCH  21  23
ATOM     23  N   UNL     1       0.130   9.544  19.639  0.00  0.00    +0.000 N 
ATOM     24  C   UNL     1      -0.420   9.770  18.389  0.00  0.00    +0.000 C 
ATOM     25  O   UNL     1       0.088   9.461  17.315  0.00  0.00    +0.000 OA
ATOM     26  H   UNL     1      -0.331   9.804  20.503  0.00  0.00    +0.000 HD
BRANCH  24  27
ATOM     27  C   UNL     1      -1.766  10.413  18.409  0.00  0.00    +0.000 A 
ATOM     28  C   UNL     1      -2.842   9.869  17.697  0.00  0.00    +0.000 A 
ATOM     29  C   UNL     1      -4.075  10.527  17.679  0.00  0.00    +0.000 A 
ATOM     30  C   UNL     1      -4.249  11.729  18.378  0.00  0.00    +0.000 A 
ATOM     31  C   UNL     1      -3.197  12.235  19.156  0.00  0.00    +0.000 A 
ATOM     32  C   UNL     1      -1.959  11.575  19.166  0.00  0.00    +0.000 A 
BRANCH  30  33
ATOM     33  C   UNL     1      -5.573  12.400  18.282  0.00  0.00    +0.000 C 
ATOM     34  O   UNL     1      -6.442  12.273  19.130  0.00  0.00    +0.000 OA
BRANCH  33  35
ATOM     35  O   UNL     1      -5.755  13.100  17.142  0.00  0.00    +0.000 OA
ATOM     36  H   UNL     1      -6.678  13.192  16.842  0.00  0.00    +0.000 HD
ENDBRANCH  33  35
ENDBRANCH  30  33
ENDBRANCH  24  27
ENDBRANCH  21  23
ENDBRANCH   2  21
TORSDOF 6
ENDMDL
MODEL 5
REMARK VINA RESULT:      -8.8      0.563      1.225
REMARK  Name = 
REMARK  8 active torsions:
REMARK  status: ('A' for Active; 'I' for Inactive)
REMARK    1  A    between atoms: C_1  and  C_2
REMARK    2  A    between atoms: C_2  and  N_3
REMARK    3  A    between atoms: N_3  and  N_4
REMARK    4  A    between atoms: C_5  and  C_7
REMARK    5  A    between atoms: C_10  and  C_11
REMARK    6  A    between atoms: C_11  and  O_13
REMARK    7  A    between atoms: N_19  and  C_20
REMARK    8  A    between atoms: C_23  and  C_24
REMARK                            x       y       z     vdW  Elec       q    Type
REMARK                         _______ _______ _______ _____ _____    ______ ____
ROOT
ATOM      1  C   UNL     1       0.869   7.908  21.485  0.00  0.00    +0.000 C 
ATOM      2  C   UNL     1       1.535   8.036  20.130  0.00  0.00    +0.000 C 
ATOM      3  C   UNL     1       2.191   6.996  19.555  0.00  0.00    +0.000 C 
ATOM      4  C   UNL     1       2.978   7.117  18.264  0.00  0.00    +0.000 C 
ATOM      5  O   UNL     1       3.035   8.130  17.584  0.00  0.00    +0.000 OA
ATOM      6  N   UNL     1       3.568   5.847  18.056  0.00  0.00    +0.000 N 
ATOM      7  C   UNL     1       3.220   4.965  19.115  0.00  0.00    +0.000 A 
ATOM      8  C   UNL     1       3.640   3.658  19.371  0.00  0.00    +0.000 A 
ATOM      9  C   UNL     1       3.108   2.967  20.464  0.00  0.00    +0.000 A 
ATOM     10  C   UNL     1       2.211   3.603  21.315  0.00  0.00    +0.000 A 
ATOM     11  F   UNL     1       1.708   2.933  22.360  0.00  0.00    +0.000 F 
ATOM     12  C   UNL     1       1.841   4.925  21.114  0.00  0.00    +0.000 A 
ATOM     13  C   UNL     1       2.363   5.611  20.023  0.00  0.00    +0.000 A 
ENDROOT
BRANCH   6  14
ATOM     14  C   UNL     1       4.357   5.491  16.917  0.00  0.00    +0.000 A 
ATOM     15  C   UNL     1       4.443   4.155  16.495  0.00  0.00    +0.000 A 
ATOM     16  C   UNL     1       5.247   3.770  15.408  0.00  0.00    +0.000 A 
ATOM     17  C   UNL     1       5.996   4.714  14.705  0.00  0.00    +0.000 A 
ATOM     18  C   UNL     1       6.912   4.314  13.585  0.00  0.00    +0.000 C 
ATOM     19  C   UNL     1       5.912   6.048  15.097  0.00  0.00    +0.000 A 
ATOM     20  C   UNL     1       5.124   6.422  16.197  0.00  0.00    +0.000 A 
ENDBRANCH   6  14
BRANCH   2  21
ATOM     21  N   UNL     1       1.354   9.298  19.558  0.00  0.00    +0.000 N 
ATOM     22  H   UNL     1       1.696  10.051  20.171  0.00  0.00    +0.000 HD
BRANCH  21  23
ATOM     23  N   UNL     1       0.061   9.635  19.111  0.00  0.00    +0.000 N 
ATOM     24  C   UNL     1      -0.285  10.965  18.938  0.00  0.00    +0.000 C 
ATOM     25  O   UNL     1       0.479  11.922  19.021  0.00  0.00    +0.000 OA
ATOM     26  H   UNL     1      -0.601   8.873  19.020  0.00  0.00    +0.000 HD
BRANCH  24  27
ATOM     27  C   UNL     1      -1.716  11.193  18.583  0.00  0.00    +0.000 A 
ATOM     28  C   UNL     1      -2.256  10.699  17.390  0.00  0.00    +0.000 A 
ATOM     29  C   UNL     1      -3.582  10.984  17.050  0.00  0.00    +0.000 A 
ATOM     30  C   UNL     1      -4.383  11.757  17.901  0.00  0.00    +0.000 A 
ATOM     31  C   UNL     1      -3.869  12.187  19.133  0.00  0.00    +0.000 A 
ATOM     32  C   UNL     1      -2.536  11.905  19.467  0.00  0.00    +0.000 A 
BRANCH  30  33
ATOM     33  C   UNL     1      -5.771  12.059  17.459  0.00  0.00    +0.000 C 
ATOM     34  O   UNL     1      -6.073  13.097  16.891  0.00  0.00    +0.000 OA
BRANCH  33  35
ATOM     35  O   UNL     1      -6.676  11.120  17.805  0.00  0.00    +0.000 OA
ATOM     36  H   UNL     1      -7.168  10.712  17.069  0.00  0.00    +0.000 HD
ENDBRANCH  33  35
ENDBRANCH  30  33
ENDBRANCH  24  27
ENDBRANCH  21  23
ENDBRANCH   2  21
TORSDOF 6
ENDMDL
MODEL 6
REMARK VINA RESULT:      -8.8      2.098      2.634
REMARK  Name = 
REMARK  8 active torsions:
REMARK  status: ('A' for Active; 'I' for Inactive)
REMARK    1  A    between atoms: C_1  and  C_2
REMARK    2  A    between atoms: C_2  and  N_3
REMARK    3  A    between atoms: N_3  and  N_4
REMARK    4  A    between atoms: C_5  and  C_7
REMARK    5  A    between atoms: C_10  and  C_11
REMARK    6  A    between atoms: C_11  and  O_13
REMARK    7  A    between atoms: N_19  and  C_20
REMARK    8  A    between atoms: C_23  and  C_24
REMARK                            x       y       z     vdW  Elec       q    Type
REMARK                         _______ _______ _______ _____ _____    ______ ____
ROOT
ATOM      1  C   UNL     1       0.768   7.533  21.594  0.00  0.00    +0.000 C 
ATOM      2  C   UNL     1       1.537   7.787  20.315  0.00  0.00    +0.000 C 
ATOM      3  C   UNL     1       2.279   6.816  19.722  0.00  0.00    +0.000 C 
ATOM      4  C   UNL     1       3.164   7.063  18.515  0.00  0.00    +0.000 C 
ATOM      5  O   UNL     1       3.237   8.127  17.919  0.00  0.00    +0.000 OA
ATOM      6  N   UNL     1       3.819   5.833  18.264  0.00  0.00    +0.000 N 
ATOM      7  C   UNL     1       3.420   4.861  19.221  0.00  0.00    +0.000 A 
ATOM      8  C   UNL     1       3.869   3.553  19.414  0.00  0.00    +0.000 A 
ATOM      9  C   UNL     1       3.277   2.762  20.405  0.00  0.00    +0.000 A 
ATOM     10  C   UNL     1       2.288   3.300  21.221  0.00  0.00    +0.000 A 
ATOM     11  F   UNL     1       1.728   2.535  22.167  0.00  0.00    +0.000 F 
ATOM     12  C   UNL     1       1.884   4.621  21.088  0.00  0.00    +0.000 A 
ATOM     13  C   UNL     1       2.466   5.406  20.098  0.00  0.00    +0.000 A 
ENDROOT
BRANCH   6  14
ATOM     14  C   UNL     1       4.713   5.593  17.173  0.00  0.00    +0.000 A 
ATOM     15  C   UNL     1       4.384   4.667  16.170  0.00  0.00    +0.000 A 
ATOM     16  C   UNL     1       5.263   4.377  15.111  0.00  0.00    +0.000 A 
ATOM     17  C   UNL     1       6.505   5.006  15.022  0.00  0.00    +0.000 A 
ATOM     18  C   UNL     1       7.485   4.661  13.939  0.00  0.00    +0.000 C 
ATOM     19  C   UNL     1       6.843   5.941  15.998  0.00  0.00    +0.000 A 
ATOM     20  C   UNL     1       5.971   6.209  17.065  0.00  0.00    +0.000 A 
ENDBRANCH   6  14
BRANCH   2  21
ATOM     21  N   UNL     1       1.354   9.083  19.824  0.00  0.00    +0.000 N 
ATOM     22  H   UNL     1       2.174   9.679  19.999  0.00  0.00    +0.000 HD
BRANCH  21  23
ATOM     23  N   UNL     1       0.197   9.778  20.228  0.00  0.00    +0.000 N 
ATOM     24  C   UNL     1       0.315  10.943  20.967  0.00  0.00    +0.000 C 
ATOM     25  O   UNL     1       1.363  11.529  21.221  0.00  0.00    +0.000 OA
ATOM     26  H   UNL     1      -0.692   9.334  20.030  0.00  0.00    +0.000 HD
BRANCH  24  27
ATOM     27  C   UNL     1      -0.981  11.514  21.438  0.00  0.00    +0.000 A 
ATOM     28  C   UNL     1      -1.836  12.194  20.563  0.00  0.00    +0.000 A 
ATOM     29  C   UNL     1      -3.013  12.777  21.044  0.00  0.00    +0.000 A 
ATOM     30  C   UNL     1      -3.351  12.678  22.400  0.00  0.00    +0.000 A 
ATOM     31  C   UNL     1      -2.537  11.931  23.263  0.00  0.00    +0.000 A 
ATOM     32  C   UNL     1      -1.354  11.353  22.778  0.00  0.00    +0.000 A 
BRANCH  30  33
ATOM     33  C   UNL     1      -4.594  13.357  22.853  0.00  0.00    +0.000 C 
ATOM     34  O   UNL     1      -4.840  14.526  22.600  0.00  0.00    +0.000 OA
BRANCH  33  35
ATOM     35  O   UNL     1      -5.389  12.590  23.629  0.00  0.00    +0.000 OA
ATOM     36  H   UNL     1      -6.149  13.044  24.038  0.00  0.00    +0.000 HD
ENDBRANCH  33  35
ENDBRANCH  30  33
ENDBRANCH  24  27
ENDBRANCH  21  23
ENDBRANCH   2  21
TORSDOF 6
ENDMDL
MODEL 7
REMARK VINA RESULT:      -8.8      2.941      3.484
REMARK  Name = 
REMARK  8 active torsions:
REMARK  status: ('A' for Active; 'I' for Inactive)
REMARK    1  A    between atoms: C_1  and  C_2
REMARK    2  A    between atoms: C_2  and  N_3
REMARK    3  A    between atoms: N_3  and  N_4
REMARK    4  A    between atoms: C_5  and  C_7
REMARK    5  A    between atoms: C_10  and  C_11
REMARK    6  A    between atoms: C_11  and  O_13
REMARK    7  A    between atoms: N_19  and  C_20
REMARK    8  A    between atoms: C_23  and  C_24
REMARK                            x       y       z     vdW  Elec       q    Type
REMARK                         _______ _______ _______ _____ _____    ______ ____
ROOT
ATOM      1  C   UNL     1       0.850   7.464  21.467  0.00  0.00    +0.000 C 
ATOM      2  C   UNL     1       1.625   7.682  20.184  0.00  0.00    +0.000 C 
ATOM      3  C   UNL     1       2.363   6.693  19.618  0.00  0.00    +0.000 C 
ATOM      4  C   UNL     1       3.254   6.906  18.408  0.00  0.00    +0.000 C 
ATOM      5  O   UNL     1       3.336   7.954  17.787  0.00  0.00    +0.000 OA
ATOM      6  N   UNL     1       3.902   5.666  18.190  0.00  0.00    +0.000 N 
ATOM      7  C   UNL     1       3.494   4.719  19.169  0.00  0.00    +0.000 A 
ATOM      8  C   UNL     1       3.934   3.414  19.395  0.00  0.00    +0.000 A 
ATOM      9  C   UNL     1       3.334   2.651  20.402  0.00  0.00    +0.000 A 
ATOM     10  C   UNL     1       2.346   3.215  21.201  0.00  0.00    +0.000 A 
ATOM     11  F   UNL     1       1.778   2.476  22.164  0.00  0.00    +0.000 F 
ATOM     12  C   UNL     1       1.950   4.534  21.035  0.00  0.00    +0.000 A 
ATOM     13  C   UNL     1       2.541   5.291  20.029  0.00  0.00    +0.000 A 
ENDROOT
BRANCH   6  14
ATOM     14  C   UNL     1       4.799   5.394  17.108  0.00  0.00    +0.000 A 
ATOM     15  C   UNL     1       6.046   6.035  17.035  0.00  0.00    +0.000 A 
ATOM     16  C   UNL     1       6.927   5.822  15.960  0.00  0.00    +0.000 A 
ATOM     17  C   UNL     1       6.587   4.958  14.918  0.00  0.00    +0.000 A 
ATOM     18  C   UNL     1       7.484   4.770  13.730  0.00  0.00    +0.000 C 
ATOM     19  C   UNL     1       5.361   4.299  14.981  0.00  0.00    +0.000 A 
ATOM     20  C   UNL     1       4.477   4.533  16.046  0.00  0.00    +0.000 A 
ENDBRANCH   6  14
BRANCH   2  21
ATOM     21  N   UNL     1       1.452   8.967  19.662  0.00  0.00    +0.000 N 
ATOM     22  H   UNL     1       2.343   9.382  19.359  0.00  0.00    +0.000 HD
BRANCH  21  23
ATOM     23  N   UNL     1       0.763   9.908  20.452  0.00  0.00    +0.000 N 
ATOM     24  C   UNL     1       0.918  11.262  20.207  0.00  0.00    +0.000 C 
ATOM     25  O   UNL     1       1.523  11.755  19.260  0.00  0.00    +0.000 OA
ATOM     26  H   UNL     1       0.243   9.543  21.242  0.00  0.00    +0.000 HD
BRANCH  24  27
ATOM     27  C   UNL     1       0.236  12.153  21.190  0.00  0.00    +0.000 A 
ATOM     28  C   UNL     1       0.569  13.509  21.294  0.00  0.00    +0.000 A 
ATOM     29  C   UNL     1      -0.038  14.307  22.269  0.00  0.00    +0.000 A 
ATOM     30  C   UNL     1      -0.989  13.762  23.142  0.00  0.00    +0.000 A 
ATOM     31  C   UNL     1      -1.382  12.424  22.989  0.00  0.00    +0.000 A 
ATOM     32  C   UNL     1      -0.766  11.625  22.014  0.00  0.00    +0.000 A 
BRANCH  30  33
ATOM     33  C   UNL     1      -1.564  14.655  24.183  0.00  0.00    +0.000 C 
ATOM     34  O   UNL     1      -2.764  14.844  24.303  0.00  0.00    +0.000 OA
BRANCH  33  35
ATOM     35  O   UNL     1      -0.641  15.293  24.934  0.00  0.00    +0.000 OA
ATOM     36  H   UNL     1      -0.782  15.261  25.898  0.00  0.00    +0.000 HD
ENDBRANCH  33  35
ENDBRANCH  30  33
ENDBRANCH  24  27
ENDBRANCH  21  23
ENDBRANCH   2  21
TORSDOF 6
ENDMDL
MODEL 8
REMARK VINA RESULT:      -8.7      2.035      2.592
REMARK  Name = 
REMARK  8 active torsions:
REMARK  status: ('A' for Active; 'I' for Inactive)
REMARK    1  A    between atoms: C_1  and  C_2
REMARK    2  A    between atoms: C_2  and  N_3
REMARK    3  A    between atoms: N_3  and  N_4
REMARK    4  A    between atoms: C_5  and  C_7
REMARK    5  A    between atoms: C_10  and  C_11
REMARK    6  A    between atoms: C_11  and  O_13
REMARK    7  A    between atoms: N_19  and  C_20
REMARK    8  A    between atoms: C_23  and  C_24
REMARK                            x       y       z     vdW  Elec       q    Type
REMARK                         _______ _______ _______ _____ _____    ______ ____
ROOT
ATOM      1  C   UNL     1       0.887   7.398  21.523  0.00  0.00    +0.000 C 
ATOM      2  C   UNL     1       1.626   7.663  20.228  0.00  0.00    +0.000 C 
ATOM      3  C   UNL     1       2.379   6.707  19.627  0.00  0.00    +0.000 C 
ATOM      4  C   UNL     1       3.236   6.969  18.402  0.00  0.00    +0.000 C 
ATOM      5  O   UNL     1       3.272   8.031  17.799  0.00  0.00    +0.000 OA
ATOM      6  N   UNL     1       3.915   5.753  18.145  0.00  0.00    +0.000 N 
ATOM      7  C   UNL     1       3.558   4.777  19.114  0.00  0.00    +0.000 A 
ATOM      8  C   UNL     1       4.041   3.482  19.306  0.00  0.00    +0.000 A 
ATOM      9  C   UNL     1       3.487   2.682  20.311  0.00  0.00    +0.000 A 
ATOM     10  C   UNL     1       2.501   3.201  21.143  0.00  0.00    +0.000 A 
ATOM     11  F   UNL     1       1.977   2.428  22.103  0.00  0.00    +0.000 F 
ATOM     12  C   UNL     1       2.063   4.511  21.011  0.00  0.00    +0.000 A 
ATOM     13  C   UNL     1       2.608   5.304  20.007  0.00  0.00    +0.000 A 
ENDROOT
BRANCH   6  14
ATOM     14  C   UNL     1       4.794   5.529  17.039  0.00  0.00    +0.000 A 
ATOM     15  C   UNL     1       4.457   4.607  16.034  0.00  0.00    +0.000 A 
ATOM     16  C   UNL     1       5.322   4.332  14.960  0.00  0.00    +0.000 A 
ATOM     17  C   UNL     1       6.558   4.972  14.856  0.00  0.00    +0.000 A 
ATOM     18  C   UNL     1       7.523   4.643  13.755  0.00  0.00    +0.000 C 
ATOM     19  C   UNL     1       6.903   5.903  15.834  0.00  0.00    +0.000 A 
ATOM     20  C   UNL     1       6.045   6.156  16.915  0.00  0.00    +0.000 A 
ENDBRANCH   6  14
BRANCH   2  21
ATOM     21  N   UNL     1       1.403   8.952  19.735  0.00  0.00    +0.000 N 
ATOM     22  H   UNL     1       2.233   9.551  19.837  0.00  0.00    +0.000 HD
BRANCH  21  23
ATOM     23  N   UNL     1       0.279   9.652  20.217  0.00  0.00    +0.000 N 
ATOM     24  C   UNL     1       0.405  10.975  20.606  0.00  0.00    +0.000 C 
ATOM     25  O   UNL     1       1.404  11.674  20.461  0.00  0.00    +0.000 OA
ATOM     26  H   UNL     1      -0.570   9.115  20.345  0.00  0.00    +0.000 HD
BRANCH  24  27
ATOM     27  C   UNL     1      -0.824  11.563  21.214  0.00  0.00    +0.000 A 
ATOM     28  C   UNL     1      -1.119  11.388  22.572  0.00  0.00    +0.000 A 
ATOM     29  C   UNL     1      -2.310  11.893  23.101  0.00  0.00    +0.000 A 
ATOM     30  C   UNL     1      -3.214  12.585  22.283  0.00  0.00    +0.000 A 
ATOM     31  C   UNL     1      -2.885  12.831  20.942  0.00  0.00    +0.000 A 
ATOM     32  C   UNL     1      -1.691  12.316  20.413  0.00  0.00    +0.000 A 
BRANCH  30  33
ATOM     33  C   UNL     1      -4.482  13.059  22.900  0.00  0.00    +0.000 C 
ATOM     34  O   UNL     1      -5.051  12.450  23.792  0.00  0.00    +0.000 OA
BRANCH  33  35
ATOM     35  O   UNL     1      -4.983  14.179  22.338  0.00  0.00    +0.000 OA
ATOM     36  H   UNL     1      -5.570  14.712  22.904  0.00  0.00    +0.000 HD
ENDBRANCH  33  35
ENDBRANCH  30  33
ENDBRANCH  24  27
ENDBRANCH  21  23
ENDBRANCH   2  21
TORSDOF 6
ENDMDL
MODEL 9
REMARK VINA RESULT:      -8.6      2.467      3.474
REMARK  Name = 
REMARK  8 active torsions:
REMARK  status: ('A' for Active; 'I' for Inactive)
REMARK    1  A    between atoms: C_1  and  C_2
REMARK    2  A    between atoms: C_2  and  N_3
REMARK    3  A    between atoms: N_3  and  N_4
REMARK    4  A    between atoms: C_5  and  C_7
REMARK    5  A    between atoms: C_10  and  C_11
REMARK    6  A    between atoms: C_11  and  O_13
REMARK    7  A    between atoms: N_19  and  C_20
REMARK    8  A    between atoms: C_23  and  C_24
REMARK                            x       y       z     vdW  Elec       q    Type
REMARK                         _______ _______ _______ _____ _____    ______ ____
ROOT
ATOM      1  C   UNL     1       0.827   7.343  21.467  0.00  0.00    +0.000 C 
ATOM      2  C   UNL     1       1.617   7.590  20.198  0.00  0.00    +0.000 C 
ATOM      3  C   UNL     1       2.352   6.610  19.613  0.00  0.00    +0.000 C 
ATOM      4  C   UNL     1       3.257   6.848  18.418  0.00  0.00    +0.000 C 
ATOM      5  O   UNL     1       3.353   7.912  17.826  0.00  0.00    +0.000 OA
ATOM      6  N   UNL     1       3.898   5.609  18.173  0.00  0.00    +0.000 N 
ATOM      7  C   UNL     1       3.473   4.640  19.123  0.00  0.00    +0.000 A 
ATOM      8  C   UNL     1       3.901   3.326  19.318  0.00  0.00    +0.000 A 
ATOM      9  C   UNL     1       3.285   2.541  20.299  0.00  0.00    +0.000 A 
ATOM     10  C   UNL     1       2.293   3.091  21.103  0.00  0.00    +0.000 A 
ATOM     11  F   UNL     1       1.710   2.331  22.040  0.00  0.00    +0.000 F 
ATOM     12  C   UNL     1       1.909   4.418  20.968  0.00  0.00    +0.000 A 
ATOM     13  C   UNL     1       2.515   5.196  19.989  0.00  0.00    +0.000 A 
ENDROOT
BRANCH   6  14
ATOM     14  C   UNL     1       4.803   5.359  17.093  0.00  0.00    +0.000 A 
ATOM     15  C   UNL     1       6.052   6.000  17.045  0.00  0.00    +0.000 A 
ATOM     16  C   UNL     1       6.941   5.808  15.973  0.00  0.00    +0.000 A 
ATOM     17  C   UNL     1       6.609   4.968  14.910  0.00  0.00    +0.000 A 
ATOM     18  C   UNL     1       7.515   4.803  13.725  0.00  0.00    +0.000 C 
ATOM     19  C   UNL     1       5.382   4.309  14.948  0.00  0.00    +0.000 A 
ATOM     20  C   UNL     1       4.489   4.522  16.010  0.00  0.00    +0.000 A 
ENDBRANCH   6  14
BRANCH   2  21
ATOM     21  N   UNL     1       1.459   8.889  19.709  0.00  0.00    +0.000 N 
ATOM     22  H   UNL     1       2.303   9.223  19.225  0.00  0.00    +0.000 HD
BRANCH  21  23
ATOM     23  N   UNL     1       1.036   9.883  20.614  0.00  0.00    +0.000 N 
ATOM     24  C   UNL     1      -0.143  10.571  20.382  0.00  0.00    +0.000 C 
ATOM     25  O   UNL     1      -0.958  10.321  19.499  0.00  0.00    +0.000 OA
ATOM     26  H   UNL     1       1.675  10.115  21.365  0.00  0.00    +0.000 HD
BRANCH  24  27
ATOM     27  C   UNL     1      -0.415  11.680  21.343  0.00  0.00    +0.000 A 
ATOM     28  C   UNL     1      -1.352  11.535  22.372  0.00  0.00    +0.000 A 
ATOM     29  C   UNL     1      -1.636  12.612  23.218  0.00  0.00    +0.000 A 
ATOM     30  C   UNL     1      -0.981  13.839  23.050  0.00  0.00    +0.000 A 
ATOM     31  C   UNL     1       0.015  13.963  22.070  0.00  0.00    +0.000 A 
ATOM     32  C   UNL     1       0.292  12.883  21.219  0.00  0.00    +0.000 A 
BRANCH  30  33
ATOM     33  C   UNL     1      -1.361  14.956  23.956  0.00  0.00    +0.000 C 
ATOM     34  O   UNL     1      -2.520  15.297  24.135  0.00  0.00    +0.000 OA
BRANCH  33  35
ATOM     35  O   UNL     1      -0.311  15.603  24.504  0.00  0.00    +0.000 OA
ATOM     36  H   UNL     1       0.066  16.327  23.972  0.00  0.00    +0.000 HD
ENDBRANCH  33  35
ENDBRANCH  30  33
ENDBRANCH  24  27
ENDBRANCH  21  23
ENDBRANCH   2  21
TORSDOF 6
ENDMDL
