MODEL 1
REMARK VINA RESULT:      -7.6      0.000      0.000
REMARK  Name = 
REMARK  4 active torsions:
REMARK  status: ('A' for Active; 'I' for Inactive)
REMARK    1  A    between atoms: C_1  and  C_2
REMARK    2  A    between atoms: C_2  and  C_3
REMARK    3  A    between atoms: C_3  and  O_5
REMARK    4  A    between atoms: O_5  and  N_6
REMARK                            x       y       z     vdW  Elec       q    Type
REMARK                         _______ _______ _______ _____ _____    ______ ____
ROOT
ATOM      1  N   UNL     1       6.206   5.424  16.603  0.00  0.00    +0.000 N 
ATOM      2  C   UNL     1       7.195   6.164  17.221  0.00  0.00    +0.000 C 
ATOM      3  O   UNL     1       7.738   7.156  16.743  0.00  0.00    +0.000 OA
ATOM      4  C   UNL     1       7.635   5.522  18.520  0.00  0.00    +0.000 C 
ATOM      5  O   UNL     1       6.621   4.998  19.361  0.00  0.00    +0.000 OA
ATOM      6  C   UNL     1       5.590   4.395  18.688  0.00  0.00    +0.000 A 
ATOM      7  C   UNL     1       4.734   3.627  19.481  0.00  0.00    +0.000 A 
ATOM      8  C   UNL     1       3.620   3.024  18.907  0.00  0.00    +0.000 A 
ATOM      9  C   UNL     1       3.378   3.201  17.548  0.00  0.00    +0.000 A 
ATOM     10  F   UNL     1       2.289   2.641  17.007  0.00  0.00    +0.000 F 
ATOM     11  C   UNL     1       4.228   3.960  16.742  0.00  0.00    +0.000 A 
ATOM     12  C   UNL     1       5.345   4.575  17.313  0.00  0.00    +0.000 A 
ENDROOT
BRANCH   1  13
ATOM     13  O   UNL     1       5.935   5.760  15.250  0.00  0.00    +0.000 OA
BRANCH  13  14
ATOM     14  C   UNL     1       6.744   5.032  14.398  0.00  0.00    +0.000 C 
ATOM     15  O   UNL     1       7.913   5.299  14.148  0.00  0.00    +0.000 OA
BRANCH  14  17
ATOM     16  C   UNL     1       6.418   3.570  12.385  0.00  0.00    +0.000 C 
ATOM     17  C   UNL     1       5.981   3.868  13.810  0.00  0.00    +0.000 C 
ENDBRANCH  14  17
ENDBRANCH  13  14
ENDBRANCH   1  13
TORSDOF 3
ENDMDL
MODEL 2
REMARK VINA RESULT:      -7.1      3.338      5.586
REMARK  Name = 
REMARK  4 active torsions:
REMARK  status: ('A' for Active; 'I' for Inactive)
REMARK    1  A    between atoms: C_1  and  C_2
REMARK    2  A    between atoms: C_2  and  C_3
REMARK    3  A    between atoms: C_3  and  O_5
REMARK    4  A    between atoms: O_5  and  N_6
REMARK                            x       y       z     vdW  Elec       q    Type
REMARK                         _______ _______ _______ _____ _____    ______ ____
ROOT
ATOM      1  N   UNL     1       3.035   5.100  18.628  0.00  0.00    +0.000 N 
ATOM      2  C   UNL     1       2.584   6.232  19.279  0.00  0.00    +0.000 C 
ATOM      3  O   UNL     1       2.114   6.256  20.413  0.00  0.00    +0.000 OA
ATOM      4  C   UNL     1       2.610   7.440  18.367  0.00  0.00    +0.000 C 
ATOM      5  O   UNL     1       3.748   7.602  17.536  0.00  0.00    +0.000 OA
ATOM      6  C   UNL     1       4.243   6.429  17.028  0.00  0.00    +0.000 A 
ATOM      7  C   UNL     1       5.169   6.577  15.993  0.00  0.00    +0.000 A 
ATOM      8  C   UNL     1       5.779   5.450  15.449  0.00  0.00    +0.000 A 
ATOM      9  C   UNL     1       5.453   4.194  15.952  0.00  0.00    +0.000 A 
ATOM     10  F   UNL     1       6.064   3.117  15.444  0.00  0.00    +0.000 F 
ATOM     11  C   UNL     1       4.525   4.032  16.981  0.00  0.00    +0.000 A 
ATOM     12  C   UNL     1       3.914   5.158  17.537  0.00  0.00    +0.000 A 
ENDROOT
BRANCH   1  13
ATOM     13  O   UNL     1       2.773   3.866  19.279  0.00  0.00    +0.000 OA
BRANCH  13  14
ATOM     14  C   UNL     1       1.510   3.405  18.954  0.00  0.00    +0.000 C 
ATOM     15  O   UNL     1       1.058   3.355  17.816  0.00  0.00    +0.000 OA
BRANCH  14  17
ATOM     16  C   UNL     1       1.681   2.897  21.404  0.00  0.00    +0.000 C 
ATOM     17  C   UNL     1       0.763   2.986  20.197  0.00  0.00    +0.000 C 
ENDBRANCH  14  17
ENDBRANCH  13  14
ENDBRANCH   1  13
TORSDOF 3
ENDMDL
MODEL 3
REMARK VINA RESULT:      -6.8      2.586      4.949
REMARK  Name = 
REMARK  4 active torsions:
REMARK  status: ('A' for Active; 'I' for Inactive)
REMARK    1  A    between atoms: C_1  and  C_2
REMARK    2  A    between atoms: C_2  and  C_3
REMARK    3  A    between atoms: C_3  and  O_5
REMARK    4  A    between atoms: O_5  and  N_6
REMARK                            x       y       z     vdW  Elec       q    Type
REMARK                         _______ _______ _______ _____ _____    ______ ____
ROOT
ATOM      1  N   UNL     1       4.385   3.486  17.880  0.00  0.00    +0.000 N 
ATOM      2  C   UNL     1       4.721   3.681  19.206  0.00  0.00    +0.000 C 
ATOM      3  O   UNL     1       4.324   2.993  20.143  0.00  0.00    +0.000 OA
ATOM      4  C   UNL     1       5.538   4.942  19.389  0.00  0.00    +0.000 C 
ATOM      5  O   UNL     1       6.556   5.200  18.437  0.00  0.00    +0.000 OA
ATOM      6  C   UNL     1       6.223   4.856  17.152  0.00  0.00    +0.000 A 
ATOM      7  C   UNL     1       7.077   5.356  16.166  0.00  0.00    +0.000 A 
ATOM      8  C   UNL     1       6.864   5.015  14.834  0.00  0.00    +0.000 A 
ATOM      9  C   UNL     1       5.801   4.177  14.511  0.00  0.00    +0.000 A 
ATOM     10  F   UNL     1       5.618   3.830  13.231  0.00  0.00    +0.000 F 
ATOM     11  C   UNL     1       4.936   3.676  15.485  0.00  0.00    +0.000 A 
ATOM     12  C   UNL     1       5.148   4.008  16.825  0.00  0.00    +0.000 A 
ENDROOT
BRANCH   1  13
ATOM     13  O   UNL     1       3.379   2.515  17.631  0.00  0.00    +0.000 OA
BRANCH  13  14
ATOM     14  C   UNL     1       2.122   3.073  17.775  0.00  0.00    +0.000 C 
ATOM     15  O   UNL     1       1.741   4.091  17.209  0.00  0.00    +0.000 OA
BRANCH  14  17
ATOM     16  C   UNL     1       0.837   3.088  19.929  0.00  0.00    +0.000 C 
ATOM     17  C   UNL     1       1.289   2.261  18.738  0.00  0.00    +0.000 C 
ENDBRANCH  14  17
ENDBRANCH  13  14
ENDBRANCH   1  13
TORSDOF 3
ENDMDL
MODEL 4
REMARK VINA RESULT:      -6.7      1.620      1.737
REMARK  Name = 
REMARK  4 active torsions:
REMARK  status: ('A' for Active; 'I' for Inactive)
REMARK    1  A    between atoms: C_1  and  C_2
REMARK    2  A    between atoms: C_2  and  C_3
REMARK    3  A    between atoms: C_3  and  O_5
REMARK    4  A    between atoms: O_5  and  N_6
REMARK                            x       y       z     vdW  Elec       q    Type
REMARK                         _______ _______ _______ _____ _____    ______ ____
ROOT
ATOM      1  N   UNL     1       5.782   4.193  17.052  0.00  0.00    +0.000 N 
ATOM      2  C   UNL     1       7.023   4.603  17.501  0.00  0.00    +0.000 C 
ATOM      3  O   UNL     1       8.039   4.662  16.814  0.00  0.00    +0.000 OA
ATOM      4  C   UNL     1       7.017   4.847  18.995  0.00  0.00    +0.000 C 
ATOM      5  O   UNL     1       5.895   5.523  19.538  0.00  0.00    +0.000 OA
ATOM      6  C   UNL     1       4.700   5.182  18.959  0.00  0.00    +0.000 A 
ATOM      7  C   UNL     1       3.564   5.606  19.653  0.00  0.00    +0.000 A 
ATOM      8  C   UNL     1       2.302   5.366  19.119  0.00  0.00    +0.000 A 
ATOM      9  C   UNL     1       2.197   4.707  17.898  0.00  0.00    +0.000 A 
ATOM     10  F   UNL     1       0.982   4.504  17.376  0.00  0.00    +0.000 F 
ATOM     11  C   UNL     1       3.323   4.272  17.197  0.00  0.00    +0.000 A 
ATOM     12  C   UNL     1       4.594   4.516  17.723  0.00  0.00    +0.000 A 
ENDROOT
BRANCH   1  13
ATOM     13  O   UNL     1       5.746   3.650  15.741  0.00  0.00    +0.000 OA
BRANCH  13  14
ATOM     14  C   UNL     1       5.900   4.651  14.798  0.00  0.00    +0.000 C 
ATOM     15  O   UNL     1       5.499   5.801  14.931  0.00  0.00    +0.000 OA
BRANCH  14  17
ATOM     16  C   UNL     1       5.662   3.449  12.610  0.00  0.00    +0.000 C 
ATOM     17  C   UNL     1       6.617   4.124  13.579  0.00  0.00    +0.000 C 
ENDBRANCH  14  17
ENDBRANCH  13  14
ENDBRANCH   1  13
TORSDOF 3
ENDMDL
MODEL 5
REMARK VINA RESULT:      -6.7      2.339      3.940
REMARK  Name = 
REMARK  4 active torsions:
REMARK  status: ('A' for Active; 'I' for Inactive)
REMARK    1  A    between atoms: C_1  and  C_2
REMARK    2  A    between atoms: C_2  and  C_3
REMARK    3  A    between atoms: C_3  and  O_5
REMARK    4  A    between atoms: O_5  and  N_6
REMARK                            x       y       z     vdW  Elec       q    Type
REMARK                         _______ _______ _______ _____ _____    ______ ____
ROOT
ATOM      1  N   UNL     1       6.216   5.294  17.704  0.00  0.00    +0.000 N 
ATOM      2  C   UNL     1       6.872   4.422  16.857  0.00  0.00    +0.000 C 
ATOM      3  O   UNL     1       8.084   4.226  16.845  0.00  0.00    +0.000 OA
ATOM      4  C   UNL     1       5.924   3.827  15.837  0.00  0.00    +0.000 C 
ATOM      5  O   UNL     1       4.648   3.417  16.298  0.00  0.00    +0.000 OA
ATOM      6  C   UNL     1       4.102   4.245  17.245  0.00  0.00    +0.000 A 
ATOM      7  C   UNL     1       2.745   4.034  17.504  0.00  0.00    +0.000 A 
ATOM      8  C   UNL     1       2.109   4.779  18.492  0.00  0.00    +0.000 A 
ATOM      9  C   UNL     1       2.841   5.721  19.207  0.00  0.00    +0.000 A 
ATOM     10  F   UNL     1       2.231   6.414  20.176  0.00  0.00    +0.000 F 
ATOM     11  C   UNL     1       4.195   5.947  18.955  0.00  0.00    +0.000 A 
ATOM     12  C   UNL     1       4.842   5.198  17.970  0.00  0.00    +0.000 A 
ENDROOT
BRANCH   1  13
ATOM     13  O   UNL     1       7.047   6.132  18.495  0.00  0.00    +0.000 OA
BRANCH  13  14
ATOM     14  C   UNL     1       7.392   7.272  17.794  0.00  0.00    +0.000 C 
ATOM     15  O   UNL     1       6.925   7.591  16.707  0.00  0.00    +0.000 OA
BRANCH  14  17
ATOM     16  C   UNL     1       8.441   9.525  18.137  0.00  0.00    +0.000 C 
ATOM     17  C   UNL     1       8.434   8.063  18.550  0.00  0.00    +0.000 C 
ENDBRANCH  14  17
ENDBRANCH  13  14
ENDBRANCH   1  13
TORSDOF 3
ENDMDL
MODEL 6
REMARK VINA RESULT:      -6.6      1.355      1.421
REMARK  Name = 
REMARK  4 active torsions:
REMARK  status: ('A' for Active; 'I' for Inactive)
REMARK    1  A    between atoms: C_1  and  C_2
REMARK    2  A    between atoms: C_2  and  C_3
REMARK    3  A    between atoms: C_3  and  O_5
REMARK    4  A    between atoms: O_5  and  N_6
REMARK                            x       y       z     vdW  Elec       q    Type
REMARK                         _______ _______ _______ _____ _____    ______ ____
ROOT
ATOM      1  N   UNL     1       5.669   5.423  16.830  0.00  0.00    +0.000 N 
ATOM      2  C   UNL     1       6.844   5.952  17.326  0.00  0.00    +0.000 C 
ATOM      3  O   UNL     1       7.684   6.553  16.661  0.00  0.00    +0.000 OA
ATOM      4  C   UNL     1       7.046   5.582  18.780  0.00  0.00    +0.000 C 
ATOM      5  O   UNL     1       5.914   5.654  19.631  0.00  0.00    +0.000 OA
ATOM      6  C   UNL     1       4.744   5.249  19.043  0.00  0.00    +0.000 A 
ATOM      7  C   UNL     1       3.681   5.036  19.925  0.00  0.00    +0.000 A 
ATOM      8  C   UNL     1       2.432   4.683  19.425  0.00  0.00    +0.000 A 
ATOM      9  C   UNL     1       2.265   4.551  18.050  0.00  0.00    +0.000 A 
ATOM     10  F   UNL     1       1.054   4.238  17.573  0.00  0.00    +0.000 F 
ATOM     11  C   UNL     1       3.319   4.754  17.158  0.00  0.00    +0.000 A 
ATOM     12  C   UNL     1       4.574   5.116  17.652  0.00  0.00    +0.000 A 
ENDROOT
BRANCH   1  13
ATOM     13  O   UNL     1       5.526   5.447  15.417  0.00  0.00    +0.000 OA
BRANCH  13  14
ATOM     14  C   UNL     1       6.022   4.283  14.860  0.00  0.00    +0.000 C 
ATOM     15  O   UNL     1       5.984   3.181  15.396  0.00  0.00    +0.000 OA
BRANCH  14  17
ATOM     16  C   UNL     1       6.250   3.496  12.489  0.00  0.00    +0.000 C 
ATOM     17  C   UNL     1       6.628   4.560  13.505  0.00  0.00    +0.000 C 
ENDBRANCH  14  17
ENDBRANCH  13  14
ENDBRANCH   1  13
TORSDOF 3
ENDMDL
MODEL 7
REMARK VINA RESULT:      -6.6      3.357      5.589
REMARK  Name = 
REMARK  4 active torsions:
REMARK  status: ('A' for Active; 'I' for Inactive)
REMARK    1  A    between atoms: C_1  and  C_2
REMARK    2  A    between atoms: C_2  and  C_3
REMARK    3  A    between atoms: C_3  and  O_5
REMARK    4  A    between atoms: O_5  and  N_6
REMARK                            x       y       z     vdW  Elec       q    Type
REMARK                         _______ _______ _______ _____ _____    ______ ____
ROOT
ATOM      1  N   UNL     1       3.698   5.019  19.093  0.00  0.00    +0.000 N 
ATOM      2  C   UNL     1       2.674   5.930  19.262  0.00  0.00    +0.000 C 
ATOM      3  O   UNL     1       1.821   5.879  20.144  0.00  0.00    +0.000 OA
ATOM      4  C   UNL     1       2.642   6.940  18.135  0.00  0.00    +0.000 C 
ATOM      5  O   UNL     1       3.885   7.463  17.696  0.00  0.00    +0.000 OA
ATOM      6  C   UNL     1       4.905   6.547  17.682  0.00  0.00    +0.000 A 
ATOM      7  C   UNL     1       6.052   6.950  16.992  0.00  0.00    +0.000 A 
ATOM      8  C   UNL     1       7.168   6.120  16.970  0.00  0.00    +0.000 A 
ATOM      9  C   UNL     1       7.120   4.901  17.640  0.00  0.00    +0.000 A 
ATOM     10  F   UNL     1       8.206   4.120  17.638  0.00  0.00    +0.000 F 
ATOM     11  C   UNL     1       5.979   4.484  18.327  0.00  0.00    +0.000 A 
ATOM     12  C   UNL     1       4.857   5.315  18.360  0.00  0.00    +0.000 A 
ENDROOT
BRANCH   1  13
ATOM     13  O   UNL     1       3.639   3.861  19.913  0.00  0.00    +0.000 OA
BRANCH  13  14
ATOM     14  C   UNL     1       2.883   2.876  19.306  0.00  0.00    +0.000 C 
ATOM     15  O   UNL     1       3.087   2.432  18.182  0.00  0.00    +0.000 OA
BRANCH  14  17
ATOM     16  C   UNL     1       2.033   2.800  21.665  0.00  0.00    +0.000 C 
ATOM     17  C   UNL     1       1.762   2.433  20.216  0.00  0.00    +0.000 C 
ENDBRANCH  14  17
ENDBRANCH  13  14
ENDBRANCH   1  13
TORSDOF 3
ENDMDL
MODEL 8
REMARK VINA RESULT:      -6.5      2.421      3.504
REMARK  Name = 
REMARK  4 active torsions:
REMARK  status: ('A' for Active; 'I' for Inactive)
REMARK    1  A    between atoms: C_1  and  C_2
REMARK    2  A    between atoms: C_2  and  C_3
REMARK    3  A    between atoms: C_3  and  O_5
REMARK    4  A    between atoms: O_5  and  N_6
REMARK                            x       y       z     vdW  Elec       q    Type
REMARK                         _______ _______ _______ _____ _____    ______ ____
ROOT
ATOM      1  N   UNL     1       4.870   5.184  17.507  0.00  0.00    +0.000 N 
ATOM      2  C   UNL     1       4.708   6.284  16.687  0.00  0.00    +0.000 C 
ATOM      3  O   UNL     1       5.159   6.390  15.550  0.00  0.00    +0.000 OA
ATOM      4  C   UNL     1       4.016   7.417  17.414  0.00  0.00    +0.000 C 
ATOM      5  O   UNL     1       2.915   7.081  18.242  0.00  0.00    +0.000 OA
ATOM      6  C   UNL     1       3.068   5.903  18.928  0.00  0.00    +0.000 A 
ATOM      7  C   UNL     1       2.144   5.693  19.955  0.00  0.00    +0.000 A 
ATOM      8  C   UNL     1       2.173   4.501  20.671  0.00  0.00    +0.000 A 
ATOM      9  C   UNL     1       3.124   3.538  20.348  0.00  0.00    +0.000 A 
ATOM     10  F   UNL     1       3.129   2.382  21.023  0.00  0.00    +0.000 F 
ATOM     11  C   UNL     1       4.057   3.738  19.330  0.00  0.00    +0.000 A 
ATOM     12  C   UNL     1       4.030   4.929  18.601  0.00  0.00    +0.000 A 
ENDROOT
BRANCH   1  13
ATOM     13  O   UNL     1       5.764   4.186  17.035  0.00  0.00    +0.000 OA
BRANCH  13  14
ATOM     14  C   UNL     1       7.067   4.646  17.074  0.00  0.00    +0.000 C 
ATOM     15  O   UNL     1       7.822   4.686  16.110  0.00  0.00    +0.000 OA
BRANCH  14  17
ATOM     16  C   UNL     1       7.876   6.533  18.515  0.00  0.00    +0.000 C 
ATOM     17  C   UNL     1       7.434   5.080  18.473  0.00  0.00    +0.000 C 
ENDBRANCH  14  17
ENDBRANCH  13  14
ENDBRANCH   1  13
TORSDOF 3
ENDMDL
MODEL 9
REMARK VINA RESULT:      -6.4      1.890      1.955
REMARK  Name = 
REMARK  4 active torsions:
REMARK  status: ('A' for Active; 'I' for Inactive)
REMARK    1  A    between atoms: C_1  and  C_2
REMARK    2  A    between atoms: C_2  and  C_3
REMARK    3  A    between atoms: C_3  and  O_5
REMARK    4  A    between atoms: O_5  and  N_6
REMARK                            x       y       z     vdW  Elec       q    Type
REMARK                         _______ _______ _______ _____ _____    ______ ____
ROOT
ATOM      1  N   UNL     1       4.942   4.971  16.237  0.00  0.00    +0.000 N 
ATOM      2  C   UNL     1       4.923   6.348  16.133  0.00  0.00    +0.000 C 
ATOM      3  O   UNL     1       5.073   6.980  15.091  0.00  0.00    +0.000 OA
ATOM      4  C   UNL     1       4.829   7.003  17.495  0.00  0.00    +0.000 C 
ATOM      5  O   UNL     1       3.932   6.430  18.431  0.00  0.00    +0.000 OA
ATOM      6  C   UNL     1       3.885   5.060  18.395  0.00  0.00    +0.000 A 
ATOM      7  C   UNL     1       3.241   4.462  19.481  0.00  0.00    +0.000 A 
ATOM      8  C   UNL     1       3.083   3.080  19.512  0.00  0.00    +0.000 A 
ATOM      9  C   UNL     1       3.572   2.318  18.454  0.00  0.00    +0.000 A 
ATOM     10  F   UNL     1       3.392   0.992  18.476  0.00  0.00    +0.000 F 
ATOM     11  C   UNL     1       4.223   2.902  17.367  0.00  0.00    +0.000 A 
ATOM     12  C   UNL     1       4.378   4.289  17.325  0.00  0.00    +0.000 A 
ENDROOT
BRANCH   1  13
ATOM     13  O   UNL     1       5.329   4.267  15.066  0.00  0.00    +0.000 OA
BRANCH  13  14
ATOM     14  C   UNL     1       6.690   4.388  14.855  0.00  0.00    +0.000 C 
ATOM     15  O   UNL     1       7.523   4.533  15.742  0.00  0.00    +0.000 OA
BRANCH  14  17
ATOM     16  C   UNL     1       5.977   3.511  12.616  0.00  0.00    +0.000 C 
ATOM     17  C   UNL     1       7.005   4.329  13.380  0.00  0.00    +0.000 C 
ENDBRANCH  14  17
ENDBRANCH  13  14
ENDBRANCH   1  13
TORSDOF 3
ENDMDL
