MODEL 1
REMARK VINA RESULT:      -6.8      0.000      0.000
REMARK  Name = 
REMARK  8 active torsions:
REMARK  status: ('A' for Active; 'I' for Inactive)
REMARK    1  A    between atoms: C_1  and  C_2
REMARK    2  A    between atoms: C_8  and  C_9
REMARK    3  A    between atoms: N_11  and  C_12
REMARK    4  A    between atoms: C_12  and  C_13
REMARK    5  A    between atoms: C_12  and  C_15
REMARK    6  A    between atoms: C_15  and  C_16
REMARK    7  A    between atoms: C_16  and  C_17
REMARK    8  A    between atoms: C_16  and  C_18
REMARK                            x       y       z     vdW  Elec       q    Type
REMARK                         _______ _______ _______ _____ _____    ______ ____
ROOT
ATOM      1  C   UNL     1       4.902   4.445  17.471  0.00  0.00    +0.000 C 
ATOM      2  O   UNL     1       5.419   4.053  18.516  0.00  0.00    +0.000 OA
ATOM      3  N   UNL     1       3.568   4.832  17.437  0.00  0.00    +0.000 N 
ATOM      4  H   UNL     1       3.240   5.273  16.581  0.00  0.00    +0.000 HD
ENDROOT
BRANCH   1  12
ATOM      5  C   UNL     1       5.136   3.027  12.195  0.00  0.00    +0.000 C 
ATOM      6  C   UNL     1       6.201   3.908  12.773  0.00  0.00    +0.000 A 
ATOM      7  C   UNL     1       7.219   4.389  12.035  0.00  0.00    +0.000 A 
ATOM      8  C   UNL     1       8.194   5.252  12.758  0.00  0.00    +0.000 A 
ATOM      9  N   UNL     1       8.154   5.576  14.013  0.00  0.00    +0.000 NA
ATOM     10  C   UNL     1       7.105   5.071  14.732  0.00  0.00    +0.000 A 
ATOM     11  N   UNL     1       6.805   5.240  16.006  0.00  0.00    +0.000 NA
ATOM     12  C   UNL     1       5.640   4.518  16.177  0.00  0.00    +0.000 A 
ATOM     13  N   UNL     1       5.212   3.899  15.061  0.00  0.00    +0.000 NA
ATOM     14  N   UNL     1       6.136   4.249  14.136  0.00  0.00    +0.000 N 
ENDBRANCH   1  12
BRANCH   3  15
ATOM     15  C   UNL     1       2.756   4.861  18.662  0.00  0.00    +0.000 C 
BRANCH  15  16
ATOM     16  C   UNL     1       2.490   6.286  19.121  0.00  0.00    +0.000 C 
ATOM     17  N   UNL     1       2.268   7.467  19.502  0.00  0.00    +0.000 NA
ENDBRANCH  15  16
BRANCH  15  18
ATOM     18  C   UNL     1       1.409   4.135  18.484  0.00  0.00    +0.000 C 
BRANCH  18  19
ATOM     19  C   UNL     1       1.241   2.804  19.250  0.00  0.00    +0.000 C 
ATOM     20  C   UNL     1       2.371   1.807  18.983  0.00  0.00    +0.000 C 
ATOM     21  C   UNL     1       1.165   3.092  20.755  0.00  0.00    +0.000 C 
ENDBRANCH  18  19
ENDBRANCH  15  18
ENDBRANCH   3  15
TORSDOF 5
ENDMDL
MODEL 2
REMARK VINA RESULT:      -6.8      0.949      1.104
REMARK  Name = 
REMARK  8 active torsions:
REMARK  status: ('A' for Active; 'I' for Inactive)
REMARK    1  A    between atoms: C_1  and  C_2
REMARK    2  A    between atoms: C_8  and  C_9
REMARK    3  A    between atoms: N_11  and  C_12
REMARK    4  A    between atoms: C_12  and  C_13
REMARK    5  A    between atoms: C_12  and  C_15
REMARK    6  A    between atoms: C_15  and  C_16
REMARK    7  A    between atoms: C_16  and  C_17
REMARK    8  A    between atoms: C_16  and  C_18
REMARK                            x       y       z     vdW  Elec       q    Type
REMARK                         _______ _______ _______ _____ _____    ______ ____
ROOT
ATOM      1  C   UNL     1       5.956   4.436  17.629  0.00  0.00    +0.000 C 
ATOM      2  O   UNL     1       6.683   4.717  18.582  0.00  0.00    +0.000 OA
ATOM      3  N   UNL     1       4.653   3.997  17.832  0.00  0.00    +0.000 N 
ATOM      4  H   UNL     1       4.065   3.913  17.007  0.00  0.00    +0.000 HD
ENDROOT
BRANCH   1  12
ATOM      5  C   UNL     1       5.293   2.787  12.459  0.00  0.00    +0.000 C 
ATOM      6  C   UNL     1       6.343   3.804  12.783  0.00  0.00    +0.000 A 
ATOM      7  C   UNL     1       7.130   4.354  11.839  0.00  0.00    +0.000 A 
ATOM      8  C   UNL     1       8.125   5.352  12.323  0.00  0.00    +0.000 A 
ATOM      9  N   UNL     1       8.299   5.733  13.550  0.00  0.00    +0.000 NA
ATOM     10  C   UNL     1       7.479   5.156  14.482  0.00  0.00    +0.000 A 
ATOM     11  N   UNL     1       7.424   5.355  15.785  0.00  0.00    +0.000 NA
ATOM     12  C   UNL     1       6.407   4.522  16.211  0.00  0.00    +0.000 A 
ATOM     13  N   UNL     1       5.839   3.806  15.223  0.00  0.00    +0.000 NA
ATOM     14  N   UNL     1       6.512   4.205  14.120  0.00  0.00    +0.000 N 
ENDBRANCH   1  12
BRANCH   3  15
ATOM     15  C   UNL     1       4.077   3.930  19.183  0.00  0.00    +0.000 C 
BRANCH  15  16
ATOM     16  C   UNL     1       3.347   5.214  19.541  0.00  0.00    +0.000 C 
ATOM     17  N   UNL     1       2.742   6.280  19.839  0.00  0.00    +0.000 NA
ENDBRANCH  15  16
BRANCH  15  18
ATOM     18  C   UNL     1       3.108   2.744  19.343  0.00  0.00    +0.000 C 
BRANCH  18  19
ATOM     19  C   UNL     1       1.658   3.093  19.749  0.00  0.00    +0.000 C 
ATOM     20  C   UNL     1       0.605   2.399  18.882  0.00  0.00    +0.000 C 
ATOM     21  C   UNL     1       1.438   2.711  21.218  0.00  0.00    +0.000 C 
ENDBRANCH  18  19
ENDBRANCH  15  18
ENDBRANCH   3  15
TORSDOF 5
ENDMDL
MODEL 3
REMARK VINA RESULT:      -6.7      1.512      2.307
REMARK  Name = 
REMARK  8 active torsions:
REMARK  status: ('A' for Active; 'I' for Inactive)
REMARK    1  A    between atoms: C_1  and  C_2
REMARK    2  A    between atoms: C_8  and  C_9
REMARK    3  A    between atoms: N_11  and  C_12
REMARK    4  A    between atoms: C_12  and  C_13
REMARK    5  A    between atoms: C_12  and  C_15
REMARK    6  A    between atoms: C_15  and  C_16
REMARK    7  A    between atoms: C_16  and  C_17
REMARK    8  A    between atoms: C_16  and  C_18
REMARK                            x       y       z     vdW  Elec       q    Type
REMARK                         _______ _______ _______ _____ _____    ______ ____
ROOT
ATOM      1  C   UNL     1       5.595   4.068  17.644  0.00  0.00    +0.000 C 
ATOM      2  O   UNL     1       6.241   4.295  18.666  0.00  0.00    +0.000 OA
ATOM      3  N   UNL     1       4.293   3.586  17.717  0.00  0.00    +0.000 N 
ATOM      4  H   UNL     1       3.769   3.549  16.846  0.00  0.00    +0.000 HD
ENDROOT
BRANCH   1  12
ATOM      5  C   UNL     1       5.242   2.922  12.309  0.00  0.00    +0.000 C 
ATOM      6  C   UNL     1       6.299   3.864  12.796  0.00  0.00    +0.000 A 
ATOM      7  C   UNL     1       7.168   4.466  11.963  0.00  0.00    +0.000 A 
ATOM      8  C   UNL     1       8.158   5.377  12.603  0.00  0.00    +0.000 A 
ATOM      9  N   UNL     1       8.258   5.638  13.869  0.00  0.00    +0.000 NA
ATOM     10  C   UNL     1       7.357   5.010  14.686  0.00  0.00    +0.000 A 
ATOM     11  N   UNL     1       7.217   5.093  15.995  0.00  0.00    +0.000 NA
ATOM     12  C   UNL     1       6.147   4.264  16.273  0.00  0.00    +0.000 A 
ATOM     13  N   UNL     1       5.626   3.663  15.187  0.00  0.00    +0.000 NA
ATOM     14  N   UNL     1       6.387   4.135  14.173  0.00  0.00    +0.000 N 
ENDBRANCH   1  12
BRANCH   3  15
ATOM     15  C   UNL     1       3.621   3.411  19.012  0.00  0.00    +0.000 C 
BRANCH  15  16
ATOM     16  C   UNL     1       4.398   2.473  19.922  0.00  0.00    +0.000 C 
ATOM     17  N   UNL     1       5.044   1.696  20.677  0.00  0.00    +0.000 NA
ENDBRANCH  15  16
BRANCH  15  18
ATOM     18  C   UNL     1       3.407   4.750  19.743  0.00  0.00    +0.000 C 
BRANCH  18  19
ATOM     19  C   UNL     1       2.130   4.864  20.605  0.00  0.00    +0.000 C 
ATOM     20  C   UNL     1       1.574   6.288  20.675  0.00  0.00    +0.000 C 
ATOM     21  C   UNL     1       1.054   3.926  20.044  0.00  0.00    +0.000 C 
ENDBRANCH  18  19
ENDBRANCH  15  18
ENDBRANCH   3  15
TORSDOF 5
ENDMDL
MODEL 4
REMARK VINA RESULT:      -6.7      1.861      6.809
REMARK  Name = 
REMARK  8 active torsions:
REMARK  status: ('A' for Active; 'I' for Inactive)
REMARK    1  A    between atoms: C_1  and  C_2
REMARK    2  A    between atoms: C_8  and  C_9
REMARK    3  A    between atoms: N_11  and  C_12
REMARK    4  A    between atoms: C_12  and  C_13
REMARK    5  A    between atoms: C_12  and  C_15
REMARK    6  A    between atoms: C_15  and  C_16
REMARK    7  A    between atoms: C_16  and  C_17
REMARK    8  A    between atoms: C_16  and  C_18
REMARK                            x       y       z     vdW  Elec       q    Type
REMARK                         _______ _______ _______ _____ _____    ______ ____
ROOT
ATOM      1  C   UNL     1       5.402   5.081  15.269  0.00  0.00    +0.000 C 
ATOM      2  O   UNL     1       5.335   6.281  15.004  0.00  0.00    +0.000 OA
ATOM      3  N   UNL     1       5.926   4.177  14.353  0.00  0.00    +0.000 N 
ATOM      4  H   UNL     1       6.079   3.227  14.683  0.00  0.00    +0.000 HD
ENDROOT
BRANCH   1  12
ATOM      5  C   UNL     1       1.166   3.346  18.260  0.00  0.00    +0.000 C 
ATOM      6  C   UNL     1       2.553   3.255  18.817  0.00  0.00    +0.000 A 
ATOM      7  C   UNL     1       2.809   2.739  20.034  0.00  0.00    +0.000 A 
ATOM      8  C   UNL     1       4.242   2.718  20.443  0.00  0.00    +0.000 A 
ATOM      9  N   UNL     1       5.248   3.145  19.745  0.00  0.00    +0.000 NA
ATOM     10  C   UNL     1       4.951   3.661  18.513  0.00  0.00    +0.000 A 
ATOM     11  N   UNL     1       5.761   4.152  17.595  0.00  0.00    +0.000 NA
ATOM     12  C   UNL     1       4.920   4.506  16.557  0.00  0.00    +0.000 A 
ATOM     13  N   UNL     1       3.619   4.263  16.802  0.00  0.00    +0.000 NA
ATOM     14  N   UNL     1       3.630   3.722  18.043  0.00  0.00    +0.000 N 
ENDBRANCH   1  12
BRANCH   3  15
ATOM     15  C   UNL     1       6.489   4.634  13.074  0.00  0.00    +0.000 C 
BRANCH  15  16
ATOM     16  C   UNL     1       7.824   5.333  13.270  0.00  0.00    +0.000 C 
ATOM     17  N   UNL     1       8.931   5.915  13.432  0.00  0.00    +0.000 NA
ENDBRANCH  15  16
BRANCH  15  18
ATOM     18  C   UNL     1       6.674   3.477  12.074  0.00  0.00    +0.000 C 
BRANCH  18  19
ATOM     19  C   UNL     1       5.483   2.506  11.920  0.00  0.00    +0.000 C 
ATOM     20  C   UNL     1       4.266   3.144  11.248  0.00  0.00    +0.000 C 
ATOM     21  C   UNL     1       5.928   1.283  11.108  0.00  0.00    +0.000 C 
ENDBRANCH  18  19
ENDBRANCH  15  18
ENDBRANCH   3  15
TORSDOF 5
ENDMDL
MODEL 5
REMARK VINA RESULT:      -6.6      1.795      6.972
REMARK  Name = 
REMARK  8 active torsions:
REMARK  status: ('A' for Active; 'I' for Inactive)
REMARK    1  A    between atoms: C_1  and  C_2
REMARK    2  A    between atoms: C_8  and  C_9
REMARK    3  A    between atoms: N_11  and  C_12
REMARK    4  A    between atoms: C_12  and  C_13
REMARK    5  A    between atoms: C_12  and  C_15
REMARK    6  A    between atoms: C_15  and  C_16
REMARK    7  A    between atoms: C_16  and  C_17
REMARK    8  A    between atoms: C_16  and  C_18
REMARK                            x       y       z     vdW  Elec       q    Type
REMARK                         _______ _______ _______ _____ _____    ______ ____
ROOT
ATOM      1  C   UNL     1       5.360   5.330  15.182  0.00  0.00    +0.000 C 
ATOM      2  O   UNL     1       5.379   6.508  14.827  0.00  0.00    +0.000 OA
ATOM      3  N   UNL     1       5.844   4.327  14.350  0.00  0.00    +0.000 N 
ATOM      4  H   UNL     1       5.926   3.397  14.753  0.00  0.00    +0.000 HD
ENDROOT
BRANCH   1  12
ATOM      5  C   UNL     1       2.485   6.592  19.658  0.00  0.00    +0.000 C 
ATOM      6  C   UNL     1       3.026   5.206  19.492  0.00  0.00    +0.000 A 
ATOM      7  C   UNL     1       2.817   4.236  20.402  0.00  0.00    +0.000 A 
ATOM      8  C   UNL     1       3.420   2.911  20.090  0.00  0.00    +0.000 A 
ATOM      9  N   UNL     1       4.118   2.611  19.039  0.00  0.00    +0.000 NA
ATOM     10  C   UNL     1       4.309   3.620  18.135  0.00  0.00    +0.000 A 
ATOM     11  N   UNL     1       4.960   3.603  16.987  0.00  0.00    +0.000 NA
ATOM     12  C   UNL     1       4.812   4.885  16.496  0.00  0.00    +0.000 A 
ATOM     13  N   UNL     1       4.105   5.700  17.301  0.00  0.00    +0.000 NA
ATOM     14  N   UNL     1       3.778   4.902  18.344  0.00  0.00    +0.000 N 
ENDBRANCH   1  12
BRANCH   3  15
ATOM     15  C   UNL     1       6.464   4.649  13.057  0.00  0.00    +0.000 C 
BRANCH  15  16
ATOM     16  C   UNL     1       7.798   5.356  13.238  0.00  0.00    +0.000 C 
ATOM     17  N   UNL     1       8.904   5.942  13.390  0.00  0.00    +0.000 NA
ENDBRANCH  15  16
BRANCH  15  18
ATOM     18  C   UNL     1       6.679   3.396  12.187  0.00  0.00    +0.000 C 
BRANCH  18  19
ATOM     19  C   UNL     1       5.443   2.497  11.963  0.00  0.00    +0.000 C 
ATOM     20  C   UNL     1       4.294   3.215  11.252  0.00  0.00    +0.000 C 
ATOM     21  C   UNL     1       5.854   1.265  11.147  0.00  0.00    +0.000 C 
ENDBRANCH  18  19
ENDBRANCH  15  18
ENDBRANCH   3  15
TORSDOF 5
ENDMDL
MODEL 6
REMARK VINA RESULT:      -6.6      1.820      2.408
REMARK  Name = 
REMARK  8 active torsions:
REMARK  status: ('A' for Active; 'I' for Inactive)
REMARK    1  A    between atoms: C_1  and  C_2
REMARK    2  A    between atoms: C_8  and  C_9
REMARK    3  A    between atoms: N_11  and  C_12
REMARK    4  A    between atoms: C_12  and  C_13
REMARK    5  A    between atoms: C_12  and  C_15
REMARK    6  A    between atoms: C_15  and  C_16
REMARK    7  A    between atoms: C_16  and  C_17
REMARK    8  A    between atoms: C_16  and  C_18
REMARK                            x       y       z     vdW  Elec       q    Type
REMARK                         _______ _______ _______ _____ _____    ______ ____
ROOT
ATOM      1  C   UNL     1       4.191   3.621  17.055  0.00  0.00    +0.000 C 
ATOM      2  O   UNL     1       2.967   3.640  16.929  0.00  0.00    +0.000 OA
ATOM      3  N   UNL     1       4.776   3.320  18.279  0.00  0.00    +0.000 N 
ATOM      4  H   UNL     1       5.785   3.187  18.284  0.00  0.00    +0.000 HD
ENDROOT
BRANCH   1  12
ATOM      5  C   UNL     1       5.534   2.881  11.807  0.00  0.00    +0.000 C 
ATOM      6  C   UNL     1       6.353   3.801  12.658  0.00  0.00    +0.000 A 
ATOM      7  C   UNL     1       7.411   4.479  12.176  0.00  0.00    +0.000 A 
ATOM      8  C   UNL     1       8.120   5.355  13.150  0.00  0.00    +0.000 A 
ATOM      9  N   UNL     1       7.817   5.520  14.400  0.00  0.00    +0.000 NA
ATOM     10  C   UNL     1       6.735   4.817  14.855  0.00  0.00    +0.000 A 
ATOM     11  N   UNL     1       6.198   4.796  16.060  0.00  0.00    +0.000 NA
ATOM     12  C   UNL     1       5.128   3.931  15.938  0.00  0.00    +0.000 A 
ATOM     13  N   UNL     1       4.988   3.406  14.706  0.00  0.00    +0.000 NA
ATOM     14  N   UNL     1       6.005   3.967  14.010  0.00  0.00    +0.000 N 
ENDBRANCH   1  12
BRANCH   3  15
ATOM     15  C   UNL     1       3.957   2.937  19.438  0.00  0.00    +0.000 C 
BRANCH  15  16
ATOM     16  C   UNL     1       4.743   2.084  20.420  0.00  0.00    +0.000 C 
ATOM     17  N   UNL     1       5.396   1.375  21.234  0.00  0.00    +0.000 NA
ENDBRANCH  15  16
BRANCH  15  18
ATOM     18  C   UNL     1       3.394   4.163  20.182  0.00  0.00    +0.000 C 
BRANCH  18  19
ATOM     19  C   UNL     1       1.947   4.040  20.710  0.00  0.00    +0.000 C 
ATOM     20  C   UNL     1       0.941   3.641  19.628  0.00  0.00    +0.000 C 
ATOM     21  C   UNL     1       1.908   3.007  21.844  0.00  0.00    +0.000 C 
ENDBRANCH  18  19
ENDBRANCH  15  18
ENDBRANCH   3  15
TORSDOF 5
ENDMDL
MODEL 7
REMARK VINA RESULT:      -6.4      4.480      8.325
REMARK  Name = 
REMARK  8 active torsions:
REMARK  status: ('A' for Active; 'I' for Inactive)
REMARK    1  A    between atoms: C_1  and  C_2
REMARK    2  A    between atoms: C_8  and  C_9
REMARK    3  A    between atoms: N_11  and  C_12
REMARK    4  A    between atoms: C_12  and  C_13
REMARK    5  A    between atoms: C_12  and  C_15
REMARK    6  A    between atoms: C_15  and  C_16
REMARK    7  A    between atoms: C_16  and  C_17
REMARK    8  A    between atoms: C_16  and  C_18
REMARK                            x       y       z     vdW  Elec       q    Type
REMARK                         _______ _______ _______ _____ _____    ______ ____
ROOT
ATOM      1  C   UNL     1       2.309   7.196  19.200  0.00  0.00    +0.000 C 
ATOM      2  O   UNL     1       2.316   7.276  17.972  0.00  0.00    +0.000 OA
ATOM      3  N   UNL     1       2.958   6.153  19.850  0.00  0.00    +0.000 N 
ATOM      4  H   UNL     1       3.030   6.219  20.863  0.00  0.00    +0.000 HD
ENDROOT
BRANCH   1  12
ATOM      5  C   UNL     1       0.214  12.215  19.768  0.00  0.00    +0.000 C 
ATOM      6  C   UNL     1       0.095  11.231  20.890  0.00  0.00    +0.000 A 
ATOM      7  C   UNL     1      -0.532  11.526  22.044  0.00  0.00    +0.000 A 
ATOM      8  C   UNL     1      -0.567  10.439  23.062  0.00  0.00    +0.000 A 
ATOM      9  N   UNL     1      -0.056   9.253  22.940  0.00  0.00    +0.000 NA
ATOM     10  C   UNL     1       0.572   8.987  21.753  0.00  0.00    +0.000 A 
ATOM     11  N   UNL     1       1.165   7.880  21.350  0.00  0.00    +0.000 NA
ATOM     12  C   UNL     1       1.602   8.176  20.074  0.00  0.00    +0.000 A 
ATOM     13  N   UNL     1       1.312   9.428  19.675  0.00  0.00    +0.000 NA
ATOM     14  N   UNL     1       0.654   9.950  20.735  0.00  0.00    +0.000 N 
ENDBRANCH   1  12
BRANCH   3  15
ATOM     15  C   UNL     1       3.740   5.160  19.098  0.00  0.00    +0.000 C 
BRANCH  15  16
ATOM     16  C   UNL     1       5.222   5.258  19.420  0.00  0.00    +0.000 C 
ATOM     17  N   UNL     1       6.452   5.340  19.687  0.00  0.00    +0.000 NA
ENDBRANCH  15  16
BRANCH  15  18
ATOM     18  C   UNL     1       3.264   3.721  19.368  0.00  0.00    +0.000 C 
BRANCH  18  19
ATOM     19  C   UNL     1       1.960   3.570  20.183  0.00  0.00    +0.000 C 
ATOM     20  C   UNL     1       0.878   2.776  19.449  0.00  0.00    +0.000 C 
ATOM     21  C   UNL     1       2.274   2.884  21.519  0.00  0.00    +0.000 C 
ENDBRANCH  18  19
ENDBRANCH  15  18
ENDBRANCH   3  15
TORSDOF 5
ENDMDL
MODEL 8
REMARK VINA RESULT:      -6.4      1.808      6.795
REMARK  Name = 
REMARK  8 active torsions:
REMARK  status: ('A' for Active; 'I' for Inactive)
REMARK    1  A    between atoms: C_1  and  C_2
REMARK    2  A    between atoms: C_8  and  C_9
REMARK    3  A    between atoms: N_11  and  C_12
REMARK    4  A    between atoms: C_12  and  C_13
REMARK    5  A    between atoms: C_12  and  C_15
REMARK    6  A    between atoms: C_15  and  C_16
REMARK    7  A    between atoms: C_16  and  C_17
REMARK    8  A    between atoms: C_16  and  C_18
REMARK                            x       y       z     vdW  Elec       q    Type
REMARK                         _______ _______ _______ _____ _____    ______ ____
ROOT
ATOM      1  C   UNL     1       5.373   5.369  15.175  0.00  0.00    +0.000 C 
ATOM      2  O   UNL     1       5.513   6.545  14.844  0.00  0.00    +0.000 OA
ATOM      3  N   UNL     1       5.764   4.339  14.328  0.00  0.00    +0.000 N 
ATOM      4  H   UNL     1       5.748   3.398  14.713  0.00  0.00    +0.000 HD
ENDROOT
BRANCH   1  12
ATOM      5  C   UNL     1       3.743   1.287  18.428  0.00  0.00    +0.000 C 
ATOM      6  C   UNL     1       3.627   2.703  18.901  0.00  0.00    +0.000 A 
ATOM      7  C   UNL     1       3.148   3.019  20.119  0.00  0.00    +0.000 A 
ATOM      8  C   UNL     1       3.098   4.473  20.440  0.00  0.00    +0.000 A 
ATOM      9  N   UNL     1       3.466   5.446  19.666  0.00  0.00    +0.000 NA
ATOM     10  C   UNL     1       3.949   5.087  18.437  0.00  0.00    +0.000 A 
ATOM     11  N   UNL     1       4.399   5.851  17.459  0.00  0.00    +0.000 NA
ATOM     12  C   UNL     1       4.767   4.956  16.474  0.00  0.00    +0.000 A 
ATOM     13  N   UNL     1       4.551   3.668  16.798  0.00  0.00    +0.000 NA
ATOM     14  N   UNL     1       4.034   3.742  18.046  0.00  0.00    +0.000 N 
ENDBRANCH   1  12
BRANCH   3  15
ATOM     15  C   UNL     1       6.430   4.622  13.048  0.00  0.00    +0.000 C 
BRANCH  15  16
ATOM     16  C   UNL     1       7.758   5.331  13.254  0.00  0.00    +0.000 C 
ATOM     17  N   UNL     1       8.859   5.921  13.425  0.00  0.00    +0.000 NA
ENDBRANCH  15  16
BRANCH  15  18
ATOM     18  C   UNL     1       6.671   3.343  12.223  0.00  0.00    +0.000 C 
BRANCH  18  19
ATOM     19  C   UNL     1       5.434   2.457  11.955  0.00  0.00    +0.000 C 
ATOM     20  C   UNL     1       4.310   3.193  11.224  0.00  0.00    +0.000 C 
ATOM     21  C   UNL     1       5.857   1.233  11.133  0.00  0.00    +0.000 C 
ENDBRANCH  18  19
ENDBRANCH  15  18
ENDBRANCH   3  15
TORSDOF 5
ENDMDL
MODEL 9
REMARK VINA RESULT:      -6.4      4.565      7.799
REMARK  Name = 
REMARK  8 active torsions:
REMARK  status: ('A' for Active; 'I' for Inactive)
REMARK    1  A    between atoms: C_1  and  C_2
REMARK    2  A    between atoms: C_8  and  C_9
REMARK    3  A    between atoms: N_11  and  C_12
REMARK    4  A    between atoms: C_12  and  C_13
REMARK    5  A    between atoms: C_12  and  C_15
REMARK    6  A    between atoms: C_15  and  C_16
REMARK    7  A    between atoms: C_16  and  C_17
REMARK    8  A    between atoms: C_16  and  C_18
REMARK                            x       y       z     vdW  Elec       q    Type
REMARK                         _______ _______ _______ _____ _____    ______ ____
ROOT
ATOM      1  C   UNL     1       2.442   6.086  19.892  0.00  0.00    +0.000 C 
ATOM      2  O   UNL     1       3.636   5.903  19.656  0.00  0.00    +0.000 OA
ATOM      3  N   UNL     1       1.571   5.013  20.037  0.00  0.00    +0.000 N 
ATOM      4  H   UNL     1       0.632   5.227  20.363  0.00  0.00    +0.000 HD
ENDROOT
BRANCH   1  12
ATOM      5  C   UNL     1      -0.183   9.706  23.039  0.00  0.00    +0.000 C 
ATOM      6  C   UNL     1       0.213  10.086  21.646  0.00  0.00    +0.000 A 
ATOM      7  C   UNL     1      -0.037  11.304  21.132  0.00  0.00    +0.000 A 
ATOM      8  C   UNL     1       0.422  11.526  19.732  0.00  0.00    +0.000 A 
ATOM      9  N   UNL     1       1.028  10.666  18.975  0.00  0.00    +0.000 NA
ATOM     10  C   UNL     1       1.267   9.438  19.531  0.00  0.00    +0.000 A 
ATOM     11  N   UNL     1       1.866   8.385  19.007  0.00  0.00    +0.000 NA
ATOM     12  C   UNL     1       1.838   7.444  20.018  0.00  0.00    +0.000 A 
ATOM     13  N   UNL     1       1.235   7.869  21.143  0.00  0.00    +0.000 NA
ATOM     14  N   UNL     1       0.872   9.138  20.843  0.00  0.00    +0.000 N 
ENDBRANCH   1  12
BRANCH   3  15
ATOM     15  C   UNL     1       2.061   3.628  19.994  0.00  0.00    +0.000 C 
BRANCH  15  16
ATOM     16  C   UNL     1       1.731   2.880  21.276  0.00  0.00    +0.000 C 
ATOM     17  N   UNL     1       1.458   2.258  22.339  0.00  0.00    +0.000 NA
ENDBRANCH  15  16
BRANCH  15  18
ATOM     18  C   UNL     1       1.488   2.845  18.798  0.00  0.00    +0.000 C 
BRANCH  18  19
ATOM     19  C   UNL     1       2.491   2.452  17.691  0.00  0.00    +0.000 C 
ATOM     20  C   UNL     1       3.184   3.655  17.050  0.00  0.00    +0.000 C 
ATOM     21  C   UNL     1       3.550   1.511  18.279  0.00  0.00    +0.000 C 
ENDBRANCH  18  19
ENDBRANCH  15  18
ENDBRANCH   3  15
TORSDOF 5
ENDMDL
