MODEL 1
REMARK VINA RESULT:      -7.1      0.000      0.000
REMARK  Name = 
REMARK  10 active torsions:
REMARK  status: ('A' for Active; 'I' for Inactive)
REMARK    1  A    between atoms: C_2  and  O_3
REMARK    2  A    between atoms: C_2  and  C_4
REMARK    3  A    between atoms: C_4  and  C_5
REMARK    4  A    between atoms: C_5  and  N_6
REMARK    5  A    between atoms: N_6  and  C_7
REMARK    6  A    between atoms: C_11  and  C_12
REMARK    7  A    between atoms: C_12  and  C_13
REMARK    8  A    between atoms: C_16  and  S_17
REMARK    9  A    between atoms: N_18  and  N_19
REMARK   10  A    between atoms: C_20  and  C_22
REMARK                            x       y       z     vdW  Elec       q    Type
REMARK                         _______ _______ _______ _____ _____    ______ ____
ROOT
ATOM      1  C   UNL     1       3.376   5.746  18.129  0.00  0.00    +0.000 C 
ENDROOT
BRANCH   1   6
ATOM      2  C   UNL     1       1.978   6.039  20.253  0.00  0.00    +0.000 A 
ATOM      3  S   UNL     1       1.025   7.200  21.084  0.00  0.00    +0.000 S 
ATOM      4  C   UNL     1       1.218   8.356  19.874  0.00  0.00    +0.000 A 
ATOM      5  C   UNL     1       2.010   7.915  18.833  0.00  0.00    +0.000 A 
ATOM      6  C   UNL     1       2.461   6.547  19.042  0.00  0.00    +0.000 A 
ATOM      7  C   UNL     1       2.293   8.825  17.669  0.00  0.00    +0.000 C 
ATOM      8  C   UNL     1       2.052  10.303  18.013  0.00  0.00    +0.000 C 
ATOM      9  C   UNL     1       0.700  10.503  18.701  0.00  0.00    +0.000 C 
ATOM     10  C   UNL     1       0.614   9.719  20.015  0.00  0.00    +0.000 C 
BRANCH   2  11
ATOM     11  N   UNL     1       2.244   4.806  20.775  0.00  0.00    +0.000 N 
ATOM     12  H   UNL     1       3.198   4.479  20.864  0.00  0.00    +0.000 HD
BRANCH  11  13
ATOM     13  C   UNL     1       1.216   3.788  20.986  0.00  0.00    +0.000 C 
BRANCH  13  14
ATOM     14  C   UNL     1       0.892   3.122  19.657  0.00  0.00    +0.000 C 
BRANCH  14  16
ATOM     15  O   UNL     1       3.164   2.287  19.709  0.00  0.00    +0.000 OA
ATOM     16  C   UNL     1       2.110   2.429  19.106  0.00  0.00    +0.000 C 
BRANCH  16  17
ATOM     17  O   UNL     1       1.951   2.030  17.822  0.00  0.00    +0.000 OA
ATOM     18  H   UNL     1       2.456   1.229  17.589  0.00  0.00    +0.000 HD
ENDBRANCH  16  17
ENDBRANCH  14  16
ENDBRANCH  13  14
ENDBRANCH  11  13
ENDBRANCH   2  11
ENDBRANCH   1   6
BRANCH   1  19
ATOM     19  C   UNL     1       4.789   5.556  18.566  0.00  0.00    +0.000 A 
ATOM     20  N   UNL     1       5.209   5.497  19.822  0.00  0.00    +0.000 NA
ATOM     21  N   UNL     1       6.541   5.161  19.831  0.00  0.00    +0.000 NA
ATOM     22  C   UNL     1       6.904   4.984  18.585  0.00  0.00    +0.000 A 
ATOM     23  N   UNL     1       5.854   5.257  17.747  0.00  0.00    +0.000 N 
BRANCH  23  24
ATOM     24  N   UNL     1       5.770   4.780  16.473  0.00  0.00    +0.000 N 
ATOM     25  C   UNL     1       6.577   5.290  15.483  0.00  0.00    +0.000 C 
ATOM     26  O   UNL     1       7.361   6.216  15.626  0.00  0.00    +0.000 OA
ATOM     27  H   UNL     1       5.493   3.807  16.427  0.00  0.00    +0.000 HD
BRANCH  25  28
ATOM     28  C   UNL     1       6.420   4.641  14.146  0.00  0.00    +0.000 A 
ATOM     29  C   UNL     1       5.290   3.873  13.830  0.00  0.00    +0.000 A 
ATOM     30  C   UNL     1       5.166   3.285  12.569  0.00  0.00    +0.000 A 
ATOM     31  C   UNL     1       6.160   3.476  11.611  0.00  0.00    +0.000 A 
ATOM     32  C   UNL     1       7.278   4.257  11.907  0.00  0.00    +0.000 A 
ATOM     33  C   UNL     1       7.408   4.841  13.172  0.00  0.00    +0.000 A 
ENDBRANCH  25  28
ENDBRANCH  23  24
BRANCH  22  34
ATOM     34  S   UNL     1       8.400   4.286  18.080  0.00  0.00    +0.000 S 
ATOM     35  H   UNL     1       7.950   3.821  16.902  0.00  0.00    +0.000 HD
ENDBRANCH  22  34
ENDBRANCH   1  19
TORSDOF 10
ENDMDL
MODEL 2
REMARK VINA RESULT:      -7.0      2.228      7.496
REMARK  Name = 
REMARK  10 active torsions:
REMARK  status: ('A' for Active; 'I' for Inactive)
REMARK    1  A    between atoms: C_2  and  O_3
REMARK    2  A    between atoms: C_2  and  C_4
REMARK    3  A    between atoms: C_4  and  C_5
REMARK    4  A    between atoms: C_5  and  N_6
REMARK    5  A    between atoms: N_6  and  C_7
REMARK    6  A    between atoms: C_11  and  C_12
REMARK    7  A    between atoms: C_12  and  C_13
REMARK    8  A    between atoms: C_16  and  S_17
REMARK    9  A    between atoms: N_18  and  N_19
REMARK   10  A    between atoms: C_20  and  C_22
REMARK                            x       y       z     vdW  Elec       q    Type
REMARK                         _______ _______ _______ _____ _____    ______ ____
ROOT
ATOM      1  C   UNL     1       3.711   4.492  16.105  0.00  0.00    +0.000 C 
ENDROOT
BRANCH   1   6
ATOM      2  C   UNL     1       6.157   5.243  16.150  0.00  0.00    +0.000 A 
ATOM      3  S   UNL     1       7.587   5.220  15.201  0.00  0.00    +0.000 S 
ATOM      4  C   UNL     1       6.821   4.461  13.906  0.00  0.00    +0.000 A 
ATOM      5  C   UNL     1       5.490   4.189  14.154  0.00  0.00    +0.000 A 
ATOM      6  C   UNL     1       5.084   4.651  15.473  0.00  0.00    +0.000 A 
ATOM      7  C   UNL     1       4.656   3.507  13.104  0.00  0.00    +0.000 C 
ATOM      8  C   UNL     1       5.516   2.768  12.068  0.00  0.00    +0.000 C 
ATOM      9  C   UNL     1       6.646   3.657  11.544  0.00  0.00    +0.000 C 
ATOM     10  C   UNL     1       7.587   4.095  12.671  0.00  0.00    +0.000 C 
BRANCH   2  11
ATOM     11  N   UNL     1       6.133   5.743  17.420  0.00  0.00    +0.000 N 
ATOM     12  H   UNL     1       5.574   5.299  18.138  0.00  0.00    +0.000 HD
BRANCH  11  13
ATOM     13  C   UNL     1       6.668   7.056  17.773  0.00  0.00    +0.000 C 
BRANCH  13  14
ATOM     14  C   UNL     1       7.985   6.877  18.514  0.00  0.00    +0.000 C 
BRANCH  14  16
ATOM     15  O   UNL     1       8.346   4.484  18.591  0.00  0.00    +0.000 OA
ATOM     16  C   UNL     1       8.042   5.520  19.164  0.00  0.00    +0.000 C 
BRANCH  16  17
ATOM     17  O   UNL     1       7.644   5.541  20.458  0.00  0.00    +0.000 OA
ATOM     18  H   UNL     1       8.164   4.959  21.044  0.00  0.00    +0.000 HD
ENDBRANCH  16  17
ENDBRANCH  14  16
ENDBRANCH  13  14
ENDBRANCH  11  13
ENDBRANCH   2  11
ENDBRANCH   1   6
BRANCH   1  19
ATOM     19  C   UNL     1       3.596   3.587  17.285  0.00  0.00    +0.000 A 
ATOM     20  N   UNL     1       4.359   2.531  17.526  0.00  0.00    +0.000 NA
ATOM     21  N   UNL     1       4.061   2.041  18.774  0.00  0.00    +0.000 NA
ATOM     22  C   UNL     1       3.148   2.826  19.290  0.00  0.00    +0.000 A 
ATOM     23  N   UNL     1       2.792   3.790  18.383  0.00  0.00    +0.000 N 
BRANCH  23  24
ATOM     24  N   UNL     1       2.208   4.971  18.736  0.00  0.00    +0.000 N 
ATOM     25  C   UNL     1       2.961   5.982  19.287  0.00  0.00    +0.000 C 
ATOM     26  O   UNL     1       4.149   5.903  19.559  0.00  0.00    +0.000 OA
ATOM     27  H   UNL     1       1.410   5.211  18.161  0.00  0.00    +0.000 HD
BRANCH  25  28
ATOM     28  C   UNL     1       2.208   7.240  19.578  0.00  0.00    +0.000 A 
ATOM     29  C   UNL     1       2.074   8.255  18.618  0.00  0.00    +0.000 A 
ATOM     30  C   UNL     1       1.358   9.416  18.915  0.00  0.00    +0.000 A 
ATOM     31  C   UNL     1       0.756   9.563  20.163  0.00  0.00    +0.000 A 
ATOM     32  C   UNL     1       0.864   8.551  21.117  0.00  0.00    +0.000 A 
ATOM     33  C   UNL     1       1.587   7.389  20.825  0.00  0.00    +0.000 A 
ENDBRANCH  25  28
ENDBRANCH  23  24
BRANCH  22  34
ATOM     34  S   UNL     1       2.640   2.802  20.940  0.00  0.00    +0.000 S 
ATOM     35  H   UNL     1       1.739   3.793  20.825  0.00  0.00    +0.000 HD
ENDBRANCH  22  34
ENDBRANCH   1  19
TORSDOF 10
ENDMDL
MODEL 3
REMARK VINA RESULT:      -6.9      7.135     10.151
REMARK  Name = 
REMARK  10 active torsions:
REMARK  status: ('A' for Active; 'I' for Inactive)
REMARK    1  A    between atoms: C_2  and  O_3
REMARK    2  A    between atoms: C_2  and  C_4
REMARK    3  A    between atoms: C_4  and  C_5
REMARK    4  A    between atoms: C_5  and  N_6
REMARK    5  A    between atoms: N_6  and  C_7
REMARK    6  A    between atoms: C_11  and  C_12
REMARK    7  A    between atoms: C_12  and  C_13
REMARK    8  A    between atoms: C_16  and  S_17
REMARK    9  A    between atoms: N_18  and  N_19
REMARK   10  A    between atoms: C_20  and  C_22
REMARK                            x       y       z     vdW  Elec       q    Type
REMARK                         _______ _______ _______ _____ _____    ______ ____
ROOT
ATOM      1  C   UNL     1      -2.888  12.368  20.714  0.00  0.00    +0.000 C 
ENDROOT
BRANCH   1   6
ATOM      2  C   UNL     1      -5.001  12.407  19.271  0.00  0.00    +0.000 A 
ATOM      3  S   UNL     1      -6.684  12.734  19.362  0.00  0.00    +0.000 S 
ATOM      4  C   UNL     1      -6.599  13.181  20.985  0.00  0.00    +0.000 A 
ATOM      5  C   UNL     1      -5.324  13.080  21.503  0.00  0.00    +0.000 A 
ATOM      6  C   UNL     1      -4.370  12.630  20.501  0.00  0.00    +0.000 A 
ATOM      7  C   UNL     1      -5.070  13.435  22.943  0.00  0.00    +0.000 C 
ATOM      8  C   UNL     1      -6.355  13.409  23.784  0.00  0.00    +0.000 C 
ATOM      9  C   UNL     1      -7.486  14.179  23.100  0.00  0.00    +0.000 C 
ATOM     10  C   UNL     1      -7.834  13.575  21.736  0.00  0.00    +0.000 C 
BRANCH   2  11
ATOM     11  N   UNL     1      -4.410  11.943  18.132  0.00  0.00    +0.000 N 
ATOM     12  H   UNL     1      -4.090  12.586  17.419  0.00  0.00    +0.000 HD
BRANCH  11  13
ATOM     13  C   UNL     1      -4.433  10.536  17.734  0.00  0.00    +0.000 C 
BRANCH  13  14
ATOM     14  C   UNL     1      -3.023  10.097  17.370  0.00  0.00    +0.000 C 
BRANCH  14  16
ATOM     15  O   UNL     1      -2.631  10.657  15.047  0.00  0.00    +0.000 OA
ATOM     16  C   UNL     1      -2.491  10.928  16.231  0.00  0.00    +0.000 C 
BRANCH  16  17
ATOM     17  O   UNL     1      -1.765  11.989  16.651  0.00  0.00    +0.000 OA
ATOM     18  H   UNL     1      -2.198  12.517  17.348  0.00  0.00    +0.000 HD
ENDBRANCH  16  17
ENDBRANCH  14  16
ENDBRANCH  13  14
ENDBRANCH  11  13
ENDBRANCH   2  11
ENDBRANCH   1   6
BRANCH   1  19
ATOM     19  C   UNL     1      -1.939  13.469  20.381  0.00  0.00    +0.000 A 
ATOM     20  N   UNL     1      -1.951  14.685  20.908  0.00  0.00    +0.000 NA
ATOM     21  N   UNL     1      -0.841  15.369  20.475  0.00  0.00    +0.000 NA
ATOM     22  C   UNL     1      -0.150  14.549  19.722  0.00  0.00    +0.000 A 
ATOM     23  N   UNL     1      -0.814  13.356  19.597  0.00  0.00    +0.000 N 
BRANCH  23  24
ATOM     24  N   UNL     1      -0.198  12.190  19.251  0.00  0.00    +0.000 N 
ATOM     25  C   UNL     1       0.474  11.450  20.196  0.00  0.00    +0.000 C 
ATOM     26  O   UNL     1       0.631  11.779  21.362  0.00  0.00    +0.000 OA
ATOM     27  H   UNL     1      -0.652  11.710  18.484  0.00  0.00    +0.000 HD
BRANCH  25  28
ATOM     28  C   UNL     1       1.057  10.168  19.695  0.00  0.00    +0.000 A 
ATOM     29  C   UNL     1       1.250   9.067  20.542  0.00  0.00    +0.000 A 
ATOM     30  C   UNL     1       1.789   7.880  20.044  0.00  0.00    +0.000 A 
ATOM     31  C   UNL     1       2.122   7.778  18.695  0.00  0.00    +0.000 A 
ATOM     32  C   UNL     1       1.913   8.859  17.838  0.00  0.00    +0.000 A 
ATOM     33  C   UNL     1       1.379  10.053  18.336  0.00  0.00    +0.000 A 
ENDBRANCH  25  28
ENDBRANCH  23  24
BRANCH  22  34
ATOM     34  S   UNL     1       1.458  14.835  19.164  0.00  0.00    +0.000 S 
ATOM     35  H   UNL     1       2.017  13.790  19.799  0.00  0.00    +0.000 HD
ENDBRANCH  22  34
ENDBRANCH   1  19
TORSDOF 10
ENDMDL
MODEL 4
REMARK VINA RESULT:      -6.9      6.627      9.503
REMARK  Name = 
REMARK  10 active torsions:
REMARK  status: ('A' for Active; 'I' for Inactive)
REMARK    1  A    between atoms: C_2  and  O_3
REMARK    2  A    between atoms: C_2  and  C_4
REMARK    3  A    between atoms: C_4  and  C_5
REMARK    4  A    between atoms: C_5  and  N_6
REMARK    5  A    between atoms: N_6  and  C_7
REMARK    6  A    between atoms: C_11  and  C_12
REMARK    7  A    between atoms: C_12  and  C_13
REMARK    8  A    between atoms: C_16  and  S_17
REMARK    9  A    between atoms: N_18  and  N_19
REMARK   10  A    between atoms: C_20  and  C_22
REMARK                            x       y       z     vdW  Elec       q    Type
REMARK                         _______ _______ _______ _____ _____    ______ ____
ROOT
ATOM      1  C   UNL     1      -2.276  11.996  19.764  0.00  0.00    +0.000 C 
ENDROOT
BRANCH   1   6
ATOM      2  C   UNL     1      -4.715  12.705  19.450  0.00  0.00    +0.000 A 
ATOM      3  S   UNL     1      -6.092  13.211  20.341  0.00  0.00    +0.000 S 
ATOM      4  C   UNL     1      -5.264  13.182  21.808  0.00  0.00    +0.000 A 
ATOM      5  C   UNL     1      -3.951  12.777  21.675  0.00  0.00    +0.000 A 
ATOM      6  C   UNL     1      -3.613  12.498  20.287  0.00  0.00    +0.000 A 
ATOM      7  C   UNL     1      -3.067  12.688  22.889  0.00  0.00    +0.000 C 
ATOM      8  C   UNL     1      -3.875  12.601  24.192  0.00  0.00    +0.000 C 
ATOM      9  C   UNL     1      -4.969  13.670  24.243  0.00  0.00    +0.000 C 
ATOM     10  C   UNL     1      -5.965  13.513  23.090  0.00  0.00    +0.000 C 
BRANCH   2  11
ATOM     11  N   UNL     1      -4.757  12.497  18.101  0.00  0.00    +0.000 N 
ATOM     12  H   UNL     1      -5.075  13.227  17.477  0.00  0.00    +0.000 HD
BRANCH  11  13
ATOM     13  C   UNL     1      -4.615  11.177  17.491  0.00  0.00    +0.000 C 
BRANCH  13  14
ATOM     14  C   UNL     1      -4.385  11.340  15.996  0.00  0.00    +0.000 C 
BRANCH  14  16
ATOM     15  O   UNL     1      -2.740  10.003  14.827  0.00  0.00    +0.000 OA
ATOM     16  C   UNL     1      -2.996  10.892  15.625  0.00  0.00    +0.000 C 
BRANCH  16  17
ATOM     17  O   UNL     1      -2.033  11.532  16.330  0.00  0.00    +0.000 OA
ATOM     18  H   UNL     1      -1.485  10.941  16.881  0.00  0.00    +0.000 HD
ENDBRANCH  16  17
ENDBRANCH  14  16
ENDBRANCH  13  14
ENDBRANCH  11  13
ENDBRANCH   2  11
ENDBRANCH   1   6
BRANCH   1  19
ATOM     19  C   UNL     1      -1.234  13.015  19.450  0.00  0.00    +0.000 A 
ATOM     20  N   UNL     1      -1.204  14.258  19.910  0.00  0.00    +0.000 NA
ATOM     21  N   UNL     1      -0.021  14.845  19.532  0.00  0.00    +0.000 NA
ATOM     22  C   UNL     1       0.668  13.941  18.880  0.00  0.00    +0.000 A 
ATOM     23  N   UNL     1      -0.062  12.787  18.765  0.00  0.00    +0.000 N 
BRANCH  23  24
ATOM     24  N   UNL     1       0.500  11.566  18.532  0.00  0.00    +0.000 N 
ATOM     25  C   UNL     1       1.018  10.828  19.569  0.00  0.00    +0.000 C 
ATOM     26  O   UNL     1       1.082  11.200  20.731  0.00  0.00    +0.000 OA
ATOM     27  H   UNL     1       0.091  11.083  17.741  0.00  0.00    +0.000 HD
BRANCH  25  28
ATOM     28  C   UNL     1       1.554   9.488  19.182  0.00  0.00    +0.000 A 
ATOM     29  C   UNL     1       2.060   9.242  17.896  0.00  0.00    +0.000 A 
ATOM     30  C   UNL     1       2.562   7.982  17.565  0.00  0.00    +0.000 A 
ATOM     31  C   UNL     1       2.579   6.966  18.519  0.00  0.00    +0.000 A 
ATOM     32  C   UNL     1       2.100   7.206  19.807  0.00  0.00    +0.000 A 
ATOM     33  C   UNL     1       1.589   8.466  20.140  0.00  0.00    +0.000 A 
ENDBRANCH  25  28
ENDBRANCH  23  24
BRANCH  22  34
ATOM     34  S   UNL     1       2.330  14.094  18.438  0.00  0.00    +0.000 S 
ATOM     35  H   UNL     1       2.196  15.259  17.782  0.00  0.00    +0.000 HD
ENDBRANCH  22  34
ENDBRANCH   1  19
TORSDOF 10
ENDMDL
MODEL 5
REMARK VINA RESULT:      -6.9      3.377      7.386
REMARK  Name = 
REMARK  10 active torsions:
REMARK  status: ('A' for Active; 'I' for Inactive)
REMARK    1  A    between atoms: C_2  and  O_3
REMARK    2  A    between atoms: C_2  and  C_4
REMARK    3  A    between atoms: C_4  and  C_5
REMARK    4  A    between atoms: C_5  and  N_6
REMARK    5  A    between atoms: N_6  and  C_7
REMARK    6  A    between atoms: C_11  and  C_12
REMARK    7  A    between atoms: C_12  and  C_13
REMARK    8  A    between atoms: C_16  and  S_17
REMARK    9  A    between atoms: N_18  and  N_19
REMARK   10  A    between atoms: C_20  and  C_22
REMARK                            x       y       z     vdW  Elec       q    Type
REMARK                         _______ _______ _______ _____ _____    ______ ____
ROOT
ATOM      1  C   UNL     1       2.656   7.350  18.137  0.00  0.00    +0.000 C 
ENDROOT
BRANCH   1   6
ATOM      2  C   UNL     1       3.064   4.849  17.779  0.00  0.00    +0.000 A 
ATOM      3  S   UNL     1       4.324   3.724  17.469  0.00  0.00    +0.000 S 
ATOM      4  C   UNL     1       5.518   4.913  17.521  0.00  0.00    +0.000 A 
ATOM      5  C   UNL     1       5.009   6.175  17.751  0.00  0.00    +0.000 A 
ATOM      6  C   UNL     1       3.562   6.150  17.910  0.00  0.00    +0.000 A 
ATOM      7  C   UNL     1       5.937   7.357  17.822  0.00  0.00    +0.000 C 
ATOM      8  C   UNL     1       7.291   7.073  17.154  0.00  0.00    +0.000 C 
ATOM      9  C   UNL     1       7.876   5.739  17.621  0.00  0.00    +0.000 C 
ATOM     10  C   UNL     1       6.954   4.566  17.273  0.00  0.00    +0.000 C 
BRANCH   2  11
ATOM     11  N   UNL     1       1.752   4.476  17.831  0.00  0.00    +0.000 N 
ATOM     12  H   UNL     1       1.018   5.168  17.751  0.00  0.00    +0.000 HD
BRANCH  11  13
ATOM     13  C   UNL     1       1.313   3.151  18.263  0.00  0.00    +0.000 C 
BRANCH  13  14
ATOM     14  C   UNL     1       2.086   2.750  19.510  0.00  0.00    +0.000 C 
BRANCH  14  16
ATOM     15  O   UNL     1       1.501   2.639  21.856  0.00  0.00    +0.000 OA
ATOM     16  C   UNL     1       1.315   3.122  20.749  0.00  0.00    +0.000 C 
BRANCH  16  17
ATOM     17  O   UNL     1       0.323   4.009  20.503  0.00  0.00    +0.000 OA
ATOM     18  H   UNL     1       0.478   4.894  20.885  0.00  0.00    +0.000 HD
ENDBRANCH  16  17
ENDBRANCH  14  16
ENDBRANCH  13  14
ENDBRANCH  11  13
ENDBRANCH   2  11
ENDBRANCH   1   6
BRANCH   1  19
ATOM     19  C   UNL     1       1.917   7.419  19.431  0.00  0.00    +0.000 A 
ATOM     20  N   UNL     1       1.788   6.427  20.301  0.00  0.00    +0.000 NA
ATOM     21  N   UNL     1       1.179   6.907  21.435  0.00  0.00    +0.000 NA
ATOM     22  C   UNL     1       0.981   8.189  21.256  0.00  0.00    +0.000 A 
ATOM     23  N   UNL     1       1.389   8.555  20.000  0.00  0.00    +0.000 N 
BRANCH  23  24
ATOM     24  N   UNL     1       1.707   9.838  19.660  0.00  0.00    +0.000 N 
ATOM     25  C   UNL     1       0.774  10.650  19.059  0.00  0.00    +0.000 C 
ATOM     26  O   UNL     1      -0.350  10.302  18.729  0.00  0.00    +0.000 OA
ATOM     27  H   UNL     1       2.399  10.254  20.271  0.00  0.00    +0.000 HD
BRANCH  25  28
ATOM     28  C   UNL     1       1.235  12.046  18.789  0.00  0.00    +0.000 A 
ATOM     29  C   UNL     1       2.482  12.307  18.200  0.00  0.00    +0.000 A 
ATOM     30  C   UNL     1       2.884  13.621  17.952  0.00  0.00    +0.000 A 
ATOM     31  C   UNL     1       2.037  14.680  18.273  0.00  0.00    +0.000 A 
ATOM     32  C   UNL     1       0.786  14.431  18.839  0.00  0.00    +0.000 A 
ATOM     33  C   UNL     1       0.384  13.115  19.095  0.00  0.00    +0.000 A 
ENDBRANCH  25  28
ENDBRANCH  23  24
BRANCH  22  34
ATOM     34  S   UNL     1       0.499   9.298  22.488  0.00  0.00    +0.000 S 
ATOM     35  H   UNL     1       1.028   8.609  23.514  0.00  0.00    +0.000 HD
ENDBRANCH  22  34
ENDBRANCH   1  19
TORSDOF 10
ENDMDL
MODEL 6
REMARK VINA RESULT:      -6.8      4.288      6.798
REMARK  Name = 
REMARK  10 active torsions:
REMARK  status: ('A' for Active; 'I' for Inactive)
REMARK    1  A    between atoms: C_2  and  O_3
REMARK    2  A    between atoms: C_2  and  C_4
REMARK    3  A    between atoms: C_4  and  C_5
REMARK    4  A    between atoms: C_5  and  N_6
REMARK    5  A    between atoms: N_6  and  C_7
REMARK    6  A    between atoms: C_11  and  C_12
REMARK    7  A    between atoms: C_12  and  C_13
REMARK    8  A    between atoms: C_16  and  S_17
REMARK    9  A    between atoms: N_18  and  N_19
REMARK   10  A    between atoms: C_20  and  C_22
REMARK                            x       y       z     vdW  Elec       q    Type
REMARK                         _______ _______ _______ _____ _____    ______ ____
ROOT
ATOM      1  C   UNL     1       0.236   9.049  19.542  0.00  0.00    +0.000 C 
ENDROOT
BRANCH   1   6
ATOM      2  C   UNL     1      -0.893  11.266  20.141  0.00  0.00    +0.000 A 
ATOM      3  S   UNL     1      -2.083  12.365  19.570  0.00  0.00    +0.000 S 
ATOM      4  C   UNL     1      -2.467  11.399  18.244  0.00  0.00    +0.000 A 
ATOM      5  C   UNL     1      -1.709  10.247  18.182  0.00  0.00    +0.000 A 
ATOM      6  C   UNL     1      -0.780  10.154  19.299  0.00  0.00    +0.000 A 
ATOM      7  C   UNL     1      -1.917   9.272  17.055  0.00  0.00    +0.000 C 
ATOM      8  C   UNL     1      -2.620   9.916  15.851  0.00  0.00    +0.000 C 
ATOM      9  C   UNL     1      -3.857  10.707  16.283  0.00  0.00    +0.000 C 
ATOM     10  C   UNL     1      -3.492  11.842  17.246  0.00  0.00    +0.000 C 
BRANCH   2  11
ATOM     11  N   UNL     1      -0.144  11.517  21.254  0.00  0.00    +0.000 N 
ATOM     12  H   UNL     1       0.819  11.211  21.305  0.00  0.00    +0.000 HD
BRANCH  11  13
ATOM     13  C   UNL     1      -0.717  11.981  22.516  0.00  0.00    +0.000 C 
BRANCH  13  14
ATOM     14  C   UNL     1      -1.315  10.796  23.259  0.00  0.00    +0.000 C 
BRANCH  14  16
ATOM     15  O   UNL     1       0.796   9.678  23.653  0.00  0.00    +0.000 OA
ATOM     16  C   UNL     1      -0.358   9.633  23.252  0.00  0.00    +0.000 C 
BRANCH  16  17
ATOM     17  O   UNL     1      -0.883   8.525  22.679  0.00  0.00    +0.000 OA
ATOM     18  H   UNL     1      -0.911   8.557  21.704  0.00  0.00    +0.000 HD
ENDBRANCH  16  17
ENDBRANCH  14  16
ENDBRANCH  13  14
ENDBRANCH  11  13
ENDBRANCH   2  11
ENDBRANCH   1   6
BRANCH   1  19
ATOM     19  C   UNL     1       1.363   8.925  18.573  0.00  0.00    +0.000 A 
ATOM     20  N   UNL     1       1.891   9.918  17.871  0.00  0.00    +0.000 NA
ATOM     21  N   UNL     1       3.002   9.454  17.210  0.00  0.00    +0.000 NA
ATOM     22  C   UNL     1       3.158   8.198  17.548  0.00  0.00    +0.000 A 
ATOM     23  N   UNL     1       2.134   7.804  18.370  0.00  0.00    +0.000 N 
BRANCH  23  24
ATOM     24  N   UNL     1       2.219   6.733  19.210  0.00  0.00    +0.000 N 
ATOM     25  C   UNL     1       1.953   5.464  18.751  0.00  0.00    +0.000 C 
ATOM     26  O   UNL     1       1.571   5.193  17.622  0.00  0.00    +0.000 OA
ATOM     27  H   UNL     1       2.905   6.854  19.945  0.00  0.00    +0.000 HD
BRANCH  25  28
ATOM     28  C   UNL     1       2.135   4.377  19.760  0.00  0.00    +0.000 A 
ATOM     29  C   UNL     1       1.100   4.000  20.629  0.00  0.00    +0.000 A 
ATOM     30  C   UNL     1       1.297   2.976  21.557  0.00  0.00    +0.000 A 
ATOM     31  C   UNL     1       2.519   2.310  21.611  0.00  0.00    +0.000 A 
ATOM     32  C   UNL     1       3.549   2.661  20.737  0.00  0.00    +0.000 A 
ATOM     33  C   UNL     1       3.357   3.693  19.810  0.00  0.00    +0.000 A 
ENDBRANCH  25  28
ENDBRANCH  23  24
BRANCH  22  34
ATOM     34  S   UNL     1       4.557   7.246  17.206  0.00  0.00    +0.000 S 
ATOM     35  H   UNL     1       4.553   7.459  15.879  0.00  0.00    +0.000 HD
ENDBRANCH  22  34
ENDBRANCH   1  19
TORSDOF 10
ENDMDL
MODEL 7
REMARK VINA RESULT:      -6.8      8.513     11.339
REMARK  Name = 
REMARK  10 active torsions:
REMARK  status: ('A' for Active; 'I' for Inactive)
REMARK    1  A    between atoms: C_2  and  O_3
REMARK    2  A    between atoms: C_2  and  C_4
REMARK    3  A    between atoms: C_4  and  C_5
REMARK    4  A    between atoms: C_5  and  N_6
REMARK    5  A    between atoms: N_6  and  C_7
REMARK    6  A    between atoms: C_11  and  C_12
REMARK    7  A    between atoms: C_12  and  C_13
REMARK    8  A    between atoms: C_16  and  S_17
REMARK    9  A    between atoms: N_18  and  N_19
REMARK   10  A    between atoms: C_20  and  C_22
REMARK                            x       y       z     vdW  Elec       q    Type
REMARK                         _______ _______ _______ _____ _____    ______ ____
ROOT
ATOM      1  C   UNL     1      -2.743  13.672  21.856  0.00  0.00    +0.000 C 
ENDROOT
BRANCH   1   6
ATOM      2  C   UNL     1      -4.512  13.872  23.695  0.00  0.00    +0.000 A 
ATOM      3  S   UNL     1      -6.162  13.521  24.015  0.00  0.00    +0.000 S 
ATOM      4  C   UNL     1      -6.392  12.794  22.513  0.00  0.00    +0.000 A 
ATOM      5  C   UNL     1      -5.255  12.811  21.730  0.00  0.00    +0.000 A 
ATOM      6  C   UNL     1      -4.137  13.440  22.417  0.00  0.00    +0.000 A 
ATOM      7  C   UNL     1      -5.285  12.208  20.351  0.00  0.00    +0.000 C 
ATOM      8  C   UNL     1      -6.715  12.074  19.807  0.00  0.00    +0.000 C 
ATOM      9  C   UNL     1      -7.646  11.429  20.835  0.00  0.00    +0.000 C 
ATOM     10  C   UNL     1      -7.735  12.263  22.117  0.00  0.00    +0.000 C 
BRANCH   2  11
ATOM     11  N   UNL     1      -3.722  14.537  24.588  0.00  0.00    +0.000 N 
ATOM     12  H   UNL     1      -3.537  14.144  25.502  0.00  0.00    +0.000 HD
BRANCH  11  13
ATOM     13  C   UNL     1      -3.318  15.931  24.416  0.00  0.00    +0.000 C 
BRANCH  13  14
ATOM     14  C   UNL     1      -2.497  16.365  25.621  0.00  0.00    +0.000 C 
BRANCH  14  16
ATOM     15  O   UNL     1      -0.456  15.561  26.646  0.00  0.00    +0.000 OA
ATOM     16  C   UNL     1      -1.201  15.598  25.678  0.00  0.00    +0.000 C 
BRANCH  16  17
ATOM     17  O   UNL     1      -0.896  14.997  24.505  0.00  0.00    +0.000 OA
ATOM     18  H   UNL     1      -0.729  14.039  24.580  0.00  0.00    +0.000 HD
ENDBRANCH  16  17
ENDBRANCH  14  16
ENDBRANCH  13  14
ENDBRANCH  11  13
ENDBRANCH   2  11
ENDBRANCH   1   6
BRANCH   1  19
ATOM     19  C   UNL     1      -1.729  12.599  22.068  0.00  0.00    +0.000 A 
ATOM     20  N   UNL     1      -1.151  12.299  23.222  0.00  0.00    +0.000 NA
ATOM     21  N   UNL     1      -0.395  11.164  23.060  0.00  0.00    +0.000 NA
ATOM     22  C   UNL     1      -0.553  10.767  21.822  0.00  0.00    +0.000 A 
ATOM     23  N   UNL     1      -1.349  11.653  21.143  0.00  0.00    +0.000 N 
BRANCH  23  24
ATOM     24  N   UNL     1      -2.031  11.329  20.008  0.00  0.00    +0.000 N 
ATOM     25  C   UNL     1      -1.479  11.566  18.771  0.00  0.00    +0.000 C 
ATOM     26  O   UNL     1      -0.407  12.120  18.577  0.00  0.00    +0.000 OA
ATOM     27  H   UNL     1      -2.649  10.535  20.126  0.00  0.00    +0.000 HD
BRANCH  25  28
ATOM     28  C   UNL     1      -2.310  11.115  17.614  0.00  0.00    +0.000 A 
ATOM     29  C   UNL     1      -1.861  10.120  16.731  0.00  0.00    +0.000 A 
ATOM     30  C   UNL     1      -2.662   9.712  15.663  0.00  0.00    +0.000 A 
ATOM     31  C   UNL     1      -3.922  10.280  15.480  0.00  0.00    +0.000 A 
ATOM     32  C   UNL     1      -4.387  11.254  16.365  0.00  0.00    +0.000 A 
ATOM     33  C   UNL     1      -3.583  11.670  17.433  0.00  0.00    +0.000 A 
ENDBRANCH  25  28
ENDBRANCH  23  24
BRANCH  22  34
ATOM     34  S   UNL     1      -0.036   9.243  21.197  0.00  0.00    +0.000 S 
ATOM     35  H   UNL     1      -0.884   8.496  21.926  0.00  0.00    +0.000 HD
ENDBRANCH  22  34
ENDBRANCH   1  19
TORSDOF 10
ENDMDL
MODEL 8
REMARK VINA RESULT:      -6.8      3.195      7.405
REMARK  Name = 
REMARK  10 active torsions:
REMARK  status: ('A' for Active; 'I' for Inactive)
REMARK    1  A    between atoms: C_2  and  O_3
REMARK    2  A    between atoms: C_2  and  C_4
REMARK    3  A    between atoms: C_4  and  C_5
REMARK    4  A    between atoms: C_5  and  N_6
REMARK    5  A    between atoms: N_6  and  C_7
REMARK    6  A    between atoms: C_11  and  C_12
REMARK    7  A    between atoms: C_12  and  C_13
REMARK    8  A    between atoms: C_16  and  S_17
REMARK    9  A    between atoms: N_18  and  N_19
REMARK   10  A    between atoms: C_20  and  C_22
REMARK                            x       y       z     vdW  Elec       q    Type
REMARK                         _______ _______ _______ _____ _____    ______ ____
ROOT
ATOM      1  C   UNL     1       2.707   7.404  18.222  0.00  0.00    +0.000 C 
ENDROOT
BRANCH   1   6
ATOM      2  C   UNL     1       2.975   4.884  17.868  0.00  0.00    +0.000 A 
ATOM      3  S   UNL     1       4.160   3.697  17.501  0.00  0.00    +0.000 S 
ATOM      4  C   UNL     1       5.411   4.827  17.475  0.00  0.00    +0.000 A 
ATOM      5  C   UNL     1       4.976   6.114  17.719  0.00  0.00    +0.000 A 
ATOM      6  C   UNL     1       3.541   6.161  17.957  0.00  0.00    +0.000 A 
ATOM      7  C   UNL     1       5.962   7.250  17.726  0.00  0.00    +0.000 C 
ATOM      8  C   UNL     1       7.262   6.896  16.987  0.00  0.00    +0.000 C 
ATOM      9  C   UNL     1       7.808   5.539  17.435  0.00  0.00    +0.000 C 
ATOM     10  C   UNL     1       6.813   4.409  17.151  0.00  0.00    +0.000 C 
BRANCH   2  11
ATOM     11  N   UNL     1       1.651   4.576  17.996  0.00  0.00    +0.000 N 
ATOM     12  H   UNL     1       0.948   5.303  17.961  0.00  0.00    +0.000 HD
BRANCH  11  13
ATOM     13  C   UNL     1       1.173   3.271  18.448  0.00  0.00    +0.000 C 
BRANCH  13  14
ATOM     14  C   UNL     1       0.740   3.373  19.902  0.00  0.00    +0.000 C 
BRANCH  14  16
ATOM     15  O   UNL     1       2.959   2.583  20.459  0.00  0.00    +0.000 OA
ATOM     16  C   UNL     1       1.818   2.843  20.811  0.00  0.00    +0.000 C 
BRANCH  16  17
ATOM     17  O   UNL     1       1.375   2.605  22.067  0.00  0.00    +0.000 OA
ATOM     18  H   UNL     1       0.816   3.317  22.433  0.00  0.00    +0.000 HD
ENDBRANCH  16  17
ENDBRANCH  14  16
ENDBRANCH  13  14
ENDBRANCH  11  13
ENDBRANCH   2  11
ENDBRANCH   1   6
BRANCH   1  19
ATOM     19  C   UNL     1       1.945   7.463  19.502  0.00  0.00    +0.000 A 
ATOM     20  N   UNL     1       1.857   6.486  20.394  0.00  0.00    +0.000 NA
ATOM     21  N   UNL     1       1.203   6.957  21.507  0.00  0.00    +0.000 NA
ATOM     22  C   UNL     1       0.937   8.222  21.293  0.00  0.00    +0.000 A 
ATOM     23  N   UNL     1       1.345   8.581  20.034  0.00  0.00    +0.000 N 
BRANCH  23  24
ATOM     24  N   UNL     1       1.595   9.870  19.668  0.00  0.00    +0.000 N 
ATOM     25  C   UNL     1       0.590  10.656  19.153  0.00  0.00    +0.000 C 
ATOM     26  O   UNL     1      -0.549  10.276  18.925  0.00  0.00    +0.000 OA
ATOM     27  H   UNL     1       2.328  10.306  20.214  0.00  0.00    +0.000 HD
BRANCH  25  28
ATOM     28  C   UNL     1       0.987  12.063  18.843  0.00  0.00    +0.000 A 
ATOM     29  C   UNL     1       0.089  13.130  18.994  0.00  0.00    +0.000 A 
ATOM     30  C   UNL     1       0.491  14.436  18.705  0.00  0.00    +0.000 A 
ATOM     31  C   UNL     1       1.794  14.686  18.281  0.00  0.00    +0.000 A 
ATOM     32  C   UNL     1       2.703  13.635  18.149  0.00  0.00    +0.000 A 
ATOM     33  C   UNL     1       2.301  12.324  18.432  0.00  0.00    +0.000 A 
ENDBRANCH  25  28
ENDBRANCH  23  24
BRANCH  22  34
ATOM     34  S   UNL     1       0.374   9.331  22.490  0.00  0.00    +0.000 S 
ATOM     35  H   UNL     1       1.310  10.269  22.266  0.00  0.00    +0.000 HD
ENDBRANCH  22  34
ENDBRANCH   1  19
TORSDOF 10
ENDMDL
MODEL 9
REMARK VINA RESULT:      -6.8      3.229      7.938
REMARK  Name = 
REMARK  10 active torsions:
REMARK  status: ('A' for Active; 'I' for Inactive)
REMARK    1  A    between atoms: C_2  and  O_3
REMARK    2  A    between atoms: C_2  and  C_4
REMARK    3  A    between atoms: C_4  and  C_5
REMARK    4  A    between atoms: C_5  and  N_6
REMARK    5  A    between atoms: N_6  and  C_7
REMARK    6  A    between atoms: C_11  and  C_12
REMARK    7  A    between atoms: C_12  and  C_13
REMARK    8  A    between atoms: C_16  and  S_17
REMARK    9  A    between atoms: N_18  and  N_19
REMARK   10  A    between atoms: C_20  and  C_22
REMARK                            x       y       z     vdW  Elec       q    Type
REMARK                         _______ _______ _______ _____ _____    ______ ____
ROOT
ATOM      1  C   UNL     1       2.872   7.452  18.157  0.00  0.00    +0.000 C 
ENDROOT
BRANCH   1   6
ATOM      2  C   UNL     1       4.845   6.012  17.391  0.00  0.00    +0.000 A 
ATOM      3  S   UNL     1       5.287   4.376  17.118  0.00  0.00    +0.000 S 
ATOM      4  C   UNL     1       3.751   3.803  17.506  0.00  0.00    +0.000 A 
ATOM      5  C   UNL     1       2.878   4.810  17.866  0.00  0.00    +0.000 A 
ATOM      6  C   UNL     1       3.510   6.119  17.797  0.00  0.00    +0.000 A 
ATOM      7  C   UNL     1       1.463   4.473  18.250  0.00  0.00    +0.000 C 
ATOM      8  C   UNL     1       1.304   2.999  18.653  0.00  0.00    +0.000 C 
ATOM      9  C   UNL     1       1.955   2.067  17.628  0.00  0.00    +0.000 C 
ATOM     10  C   UNL     1       3.457   2.334  17.497  0.00  0.00    +0.000 C 
BRANCH   2  11
ATOM     11  N   UNL     1       5.735   7.039  17.263  0.00  0.00    +0.000 N 
ATOM     12  H   UNL     1       5.414   7.974  17.046  0.00  0.00    +0.000 HD
BRANCH  11  13
ATOM     13  C   UNL     1       7.179   6.838  17.160  0.00  0.00    +0.000 C 
BRANCH  13  14
ATOM     14  C   UNL     1       7.801   6.969  18.542  0.00  0.00    +0.000 C 
BRANCH  14  16
ATOM     15  O   UNL     1       8.215   4.584  18.486  0.00  0.00    +0.000 OA
ATOM     16  C   UNL     1       8.057   5.608  19.135  0.00  0.00    +0.000 C 
BRANCH  16  17
ATOM     17  O   UNL     1       8.022   5.609  20.487  0.00  0.00    +0.000 OA
ATOM     18  H   UNL     1       8.697   6.179  20.902  0.00  0.00    +0.000 HD
ENDBRANCH  16  17
ENDBRANCH  14  16
ENDBRANCH  13  14
ENDBRANCH  11  13
ENDBRANCH   2  11
ENDBRANCH   1   6
BRANCH   1  19
ATOM     19  C   UNL     1       2.070   7.515  19.412  0.00  0.00    +0.000 A 
ATOM     20  N   UNL     1       1.913   6.525  20.280  0.00  0.00    +0.000 NA
ATOM     21  N   UNL     1       1.243   6.999  21.381  0.00  0.00    +0.000 NA
ATOM     22  C   UNL     1       1.034   8.278  21.186  0.00  0.00    +0.000 A 
ATOM     23  N   UNL     1       1.497   8.645  19.949  0.00  0.00    +0.000 N 
BRANCH  23  24
ATOM     24  N   UNL     1       1.811   9.931  19.619  0.00  0.00    +0.000 N 
ATOM     25  C   UNL     1       0.889  10.733  18.988  0.00  0.00    +0.000 C 
ATOM     26  O   UNL     1      -0.220  10.372  18.622  0.00  0.00    +0.000 OA
ATOM     27  H   UNL     1       2.479  10.355  20.251  0.00  0.00    +0.000 HD
BRANCH  25  28
ATOM     28  C   UNL     1       1.343  12.133  18.732  0.00  0.00    +0.000 A 
ATOM     29  C   UNL     1       2.595  12.407  18.159  0.00  0.00    +0.000 A 
ATOM     30  C   UNL     1       2.990  13.725  17.924  0.00  0.00    +0.000 A 
ATOM     31  C   UNL     1       2.132  14.776  18.242  0.00  0.00    +0.000 A 
ATOM     32  C   UNL     1       0.875  14.515  18.791  0.00  0.00    +0.000 A 
ATOM     33  C   UNL     1       0.480  13.195  19.034  0.00  0.00    +0.000 A 
ENDBRANCH  25  28
ENDBRANCH  23  24
BRANCH  22  34
ATOM     34  S   UNL     1       0.475   9.384  22.387  0.00  0.00    +0.000 S 
ATOM     35  H   UNL     1       1.436   9.113  23.287  0.00  0.00    +0.000 HD
ENDBRANCH  22  34
ENDBRANCH   1  19
TORSDOF 10
ENDMDL
