MODEL 1
REMARK VINA RESULT:      -6.9      0.000      0.000
REMARK  Name = 
REMARK  18 active torsions:
REMARK  status: ('A' for Active; 'I' for Inactive)
REMARK    1  A    between atoms: C_1  and  O_2
REMARK    2  A    between atoms: O_2  and  C_3
REMARK    3  A    between atoms: C_5  and  O_6
REMARK    4  A    between atoms: O_6  and  C_7
REMARK    5  A    between atoms: C_7  and  C_8
REMARK    6  A    between atoms: C_8  and  N_9
REMARK    7  A    between atoms: C_12  and  C_13
REMARK    8  A    between atoms: C_14  and  C_15
REMARK    9  A    between atoms: C_15  and  C_17
REMARK   10  A    between atoms: C_17  and  C_18
REMARK   11  A    between atoms: C_18  and  C_20
REMARK   12  A    between atoms: C_21  and  C_22
REMARK   13  A    between atoms: C_25  and  O_26
REMARK   14  A    between atoms: O_26  and  C_27
REMARK   15  A    between atoms: C_27  and  C_28
REMARK   16  A    between atoms: C_28  and  N_29
REMARK   17  A    between atoms: C_31  and  O_32
REMARK   18  A    between atoms: O_32  and  C_33
REMARK                            x       y       z     vdW  Elec       q    Type
REMARK                         _______ _______ _______ _____ _____    ______ ____
ROOT
ATOM      1  C   UNL     1       7.215   6.357  16.676  0.00  0.00    +0.000 C 
ENDROOT
BRANCH   1   2
ATOM      2  C   UNL     1       7.763   7.139  17.844  0.00  0.00    +0.000 C 
ATOM      3  O   UNL     1       7.997   6.611  18.925  0.00  0.00    +0.000 OA
BRANCH   2   4
ATOM      4  C   UNL     1       7.966   8.604  17.648  0.00  0.00    +0.000 C 
ATOM      5  C   UNL     1       8.736   9.301  18.500  0.00  0.00    +0.000 C 
BRANCH   5   6
ATOM      6  C   UNL     1       8.837  10.770  18.483  0.00  0.00    +0.000 A 
ATOM      7  C   UNL     1       8.232  11.442  17.399  0.00  0.00    +0.000 A 
ATOM      8  C   UNL     1       8.157  12.833  17.349  0.00  0.00    +0.000 A 
ATOM      9  C   UNL     1       8.691  13.600  18.375  0.00  0.00    +0.000 A 
ATOM     10  C   UNL     1       9.262  12.957  19.473  0.00  0.00    +0.000 A 
ATOM     11  C   UNL     1       9.342  11.552  19.538  0.00  0.00    +0.000 A 
BRANCH  11  12
ATOM     12  O   UNL     1       9.832  11.106  20.738  0.00  0.00    +0.000 OA
ATOM     13  C   UNL     1       9.182  11.558  21.920  0.00  0.00    +0.000 C 
ENDBRANCH  11  12
BRANCH   9  14
ATOM     14  O   UNL     1       8.543  14.950  18.228  0.00  0.00    +0.000 OA
BRANCH  14  15
ATOM     15  C   UNL     1       9.733  15.727  18.398  0.00  0.00    +0.000 C 
BRANCH  15  16
ATOM     16  C   UNL     1      10.743  15.336  17.312  0.00  0.00    +0.000 C 
BRANCH  16  17
ATOM     17  N   UNL     1      10.761  16.310  16.216  0.00  0.00    +0.000 NA
ATOM     18  H   UNL     1       9.823  16.350  15.809  0.00  0.00    +0.000 HD
ATOM     19  H   UNL     1      11.382  15.983  15.479  0.00  0.00    +0.000 HD
ENDBRANCH  16  17
ENDBRANCH  15  16
ENDBRANCH  14  15
ENDBRANCH   9  14
ENDBRANCH   5   6
ENDBRANCH   2   4
ENDBRANCH   1   2
BRANCH   1  20
ATOM     20  C   UNL     1       5.736   6.071  16.762  0.00  0.00    +0.000 C 
ATOM     21  O   UNL     1       5.220   5.135  16.164  0.00  0.00    +0.000 OA
BRANCH  20  23
ATOM     22  C   UNL     1       3.615   6.799  17.797  0.00  0.00    +0.000 C 
ATOM     23  C   UNL     1       4.902   7.063  17.510  0.00  0.00    +0.000 C 
BRANCH  22  29
ATOM     24  C   UNL     1       2.117   7.572  19.671  0.00  0.00    +0.000 A 
ATOM     25  C   UNL     1       1.208   8.501  20.195  0.00  0.00    +0.000 A 
ATOM     26  C   UNL     1       0.800   9.605  19.446  0.00  0.00    +0.000 A 
ATOM     27  C   UNL     1       1.367   9.833  18.197  0.00  0.00    +0.000 A 
ATOM     28  C   UNL     1       2.308   8.936  17.682  0.00  0.00    +0.000 A 
ATOM     29  C   UNL     1       2.674   7.778  18.389  0.00  0.00    +0.000 A 
BRANCH  24  31
ATOM     30  C   UNL     1       1.566   5.436  20.550  0.00  0.00    +0.000 C 
ATOM     31  O   UNL     1       2.534   6.470  20.380  0.00  0.00    +0.000 OA
ENDBRANCH  24  31
BRANCH  26  32
ATOM     32  O   UNL     1      -0.114  10.424  20.051  0.00  0.00    +0.000 OA
BRANCH  32  33
ATOM     33  C   UNL     1      -0.498  11.564  19.273  0.00  0.00    +0.000 C 
BRANCH  33  34
ATOM     34  C   UNL     1      -1.741  11.200  18.454  0.00  0.00    +0.000 C 
BRANCH  34  35
ATOM     35  N   UNL     1      -1.898  12.075  17.292  0.00  0.00    +0.000 NA
ATOM     36  H   UNL     1      -1.250  11.788  16.559  0.00  0.00    +0.000 HD
ATOM     37  H   UNL     1      -1.628  13.023  17.550  0.00  0.00    +0.000 HD
ENDBRANCH  34  35
ENDBRANCH  33  34
ENDBRANCH  32  33
ENDBRANCH  26  32
ENDBRANCH  22  29
ENDBRANCH  20  23
ENDBRANCH   1  20
TORSDOF 16
ENDMDL
MODEL 2
REMARK VINA RESULT:      -6.8      4.460      7.341
REMARK  Name = 
REMARK  18 active torsions:
REMARK  status: ('A' for Active; 'I' for Inactive)
REMARK    1  A    between atoms: C_1  and  O_2
REMARK    2  A    between atoms: O_2  and  C_3
REMARK    3  A    between atoms: C_5  and  O_6
REMARK    4  A    between atoms: O_6  and  C_7
REMARK    5  A    between atoms: C_7  and  C_8
REMARK    6  A    between atoms: C_8  and  N_9
REMARK    7  A    between atoms: C_12  and  C_13
REMARK    8  A    between atoms: C_14  and  C_15
REMARK    9  A    between atoms: C_15  and  C_17
REMARK   10  A    between atoms: C_17  and  C_18
REMARK   11  A    between atoms: C_18  and  C_20
REMARK   12  A    between atoms: C_21  and  C_22
REMARK   13  A    between atoms: C_25  and  O_26
REMARK   14  A    between atoms: O_26  and  C_27
REMARK   15  A    between atoms: C_27  and  C_28
REMARK   16  A    between atoms: C_28  and  N_29
REMARK   17  A    between atoms: C_31  and  O_32
REMARK   18  A    between atoms: O_32  and  C_33
REMARK                            x       y       z     vdW  Elec       q    Type
REMARK                         _______ _______ _______ _____ _____    ______ ____
ROOT
ATOM      1  C   UNL     1       2.376   3.653  21.403  0.00  0.00    +0.000 C 
ENDROOT
BRANCH   1   2
ATOM      2  C   UNL     1       3.395   2.587  21.082  0.00  0.00    +0.000 C 
ATOM      3  O   UNL     1       3.714   1.729  21.896  0.00  0.00    +0.000 OA
BRANCH   2   4
ATOM      4  C   UNL     1       4.040   2.646  19.738  0.00  0.00    +0.000 C 
ATOM      5  C   UNL     1       4.927   3.615  19.455  0.00  0.00    +0.000 C 
BRANCH   5   6
ATOM      6  C   UNL     1       5.466   3.850  18.106  0.00  0.00    +0.000 A 
ATOM      7  C   UNL     1       4.599   3.608  17.018  0.00  0.00    +0.000 A 
ATOM      8  C   UNL     1       4.962   3.918  15.708  0.00  0.00    +0.000 A 
ATOM      9  C   UNL     1       6.205   4.474  15.440  0.00  0.00    +0.000 A 
ATOM     10  C   UNL     1       7.064   4.755  16.502  0.00  0.00    +0.000 A 
ATOM     11  C   UNL     1       6.709   4.449  17.830  0.00  0.00    +0.000 A 
BRANCH  11  12
ATOM     12  O   UNL     1       7.630   4.900  18.741  0.00  0.00    +0.000 OA
ATOM     13  C   UNL     1       7.844   6.304  18.815  0.00  0.00    +0.000 C 
ENDBRANCH  11  12
BRANCH   9  14
ATOM     14  O   UNL     1       6.444   4.754  14.124  0.00  0.00    +0.000 OA
BRANCH  14  15
ATOM     15  C   UNL     1       5.667   4.011  13.180  0.00  0.00    +0.000 C 
BRANCH  15  16
ATOM     16  C   UNL     1       6.603   3.420  12.118  0.00  0.00    +0.000 C 
BRANCH  16  17
ATOM     17  N   UNL     1       6.179   2.077  11.711  0.00  0.00    +0.000 NA
ATOM     18  H   UNL     1       6.307   1.448  12.507  0.00  0.00    +0.000 HD
ATOM     19  H   UNL     1       6.790   1.736  10.972  0.00  0.00    +0.000 HD
ENDBRANCH  16  17
ENDBRANCH  15  16
ENDBRANCH  14  15
ENDBRANCH   9  14
ENDBRANCH   5   6
ENDBRANCH   2   4
ENDBRANCH   1   2
BRANCH   1  20
ATOM     20  C   UNL     1       1.323   3.843  20.339  0.00  0.00    +0.000 C 
ATOM     21  O   UNL     1       0.595   2.927  19.975  0.00  0.00    +0.000 OA
BRANCH  20  23
ATOM     22  C   UNL     1       1.892   6.242  20.202  0.00  0.00    +0.000 C 
ATOM     23  C   UNL     1       1.295   5.171  19.651  0.00  0.00    +0.000 C 
BRANCH  22  29
ATOM     24  C   UNL     1       2.357   7.982  18.438  0.00  0.00    +0.000 A 
ATOM     25  C   UNL     1       2.260   9.303  17.979  0.00  0.00    +0.000 A 
ATOM     26  C   UNL     1       1.645  10.286  18.753  0.00  0.00    +0.000 A 
ATOM     27  C   UNL     1       1.046   9.937  19.958  0.00  0.00    +0.000 A 
ATOM     28  C   UNL     1       1.099   8.613  20.406  0.00  0.00    +0.000 A 
ATOM     29  C   UNL     1       1.780   7.623  19.678  0.00  0.00    +0.000 A 
BRANCH  24  31
ATOM     30  C   UNL     1       4.280   7.276  17.236  0.00  0.00    +0.000 C 
ATOM     31  O   UNL     1       2.963   6.990  17.703  0.00  0.00    +0.000 OA
ENDBRANCH  24  31
BRANCH  26  32
ATOM     32  O   UNL     1       1.639  11.544  18.213  0.00  0.00    +0.000 OA
BRANCH  32  33
ATOM     33  C   UNL     1       1.816  12.600  19.164  0.00  0.00    +0.000 C 
BRANCH  33  34
ATOM     34  C   UNL     1       2.447  13.800  18.450  0.00  0.00    +0.000 C 
BRANCH  34  35
ATOM     35  N   UNL     1       2.506  14.976  19.317  0.00  0.00    +0.000 NA
ATOM     36  H   UNL     1       1.724  15.595  19.106  0.00  0.00    +0.000 HD
ATOM     37  H   UNL     1       3.349  15.507  19.101  0.00  0.00    +0.000 HD
ENDBRANCH  34  35
ENDBRANCH  33  34
ENDBRANCH  32  33
ENDBRANCH  26  32
ENDBRANCH  22  29
ENDBRANCH  20  23
ENDBRANCH   1  20
TORSDOF 16
ENDMDL
MODEL 3
REMARK VINA RESULT:      -6.7      5.821     10.185
REMARK  Name = 
REMARK  18 active torsions:
REMARK  status: ('A' for Active; 'I' for Inactive)
REMARK    1  A    between atoms: C_1  and  O_2
REMARK    2  A    between atoms: O_2  and  C_3
REMARK    3  A    between atoms: C_5  and  O_6
REMARK    4  A    between atoms: O_6  and  C_7
REMARK    5  A    between atoms: C_7  and  C_8
REMARK    6  A    between atoms: C_8  and  N_9
REMARK    7  A    between atoms: C_12  and  C_13
REMARK    8  A    between atoms: C_14  and  C_15
REMARK    9  A    between atoms: C_15  and  C_17
REMARK   10  A    between atoms: C_17  and  C_18
REMARK   11  A    between atoms: C_18  and  C_20
REMARK   12  A    between atoms: C_21  and  C_22
REMARK   13  A    between atoms: C_25  and  O_26
REMARK   14  A    between atoms: O_26  and  C_27
REMARK   15  A    between atoms: C_27  and  C_28
REMARK   16  A    between atoms: C_28  and  N_29
REMARK   17  A    between atoms: C_31  and  O_32
REMARK   18  A    between atoms: O_32  and  C_33
REMARK                            x       y       z     vdW  Elec       q    Type
REMARK                         _______ _______ _______ _____ _____    ______ ____
ROOT
ATOM      1  C   UNL     1       0.323   9.965  22.041  0.00  0.00    +0.000 C 
ENDROOT
BRANCH   1   2
ATOM      2  C   UNL     1       0.652  10.972  20.967  0.00  0.00    +0.000 C 
ATOM      3  O   UNL     1       1.419  11.906  21.168  0.00  0.00    +0.000 OA
BRANCH   2   4
ATOM      4  C   UNL     1      -0.034  10.814  19.652  0.00  0.00    +0.000 C 
ATOM      5  C   UNL     1      -1.210  11.423  19.424  0.00  0.00    +0.000 C 
BRANCH   5   6
ATOM      6  C   UNL     1      -2.034  11.171  18.231  0.00  0.00    +0.000 A 
ATOM      7  C   UNL     1      -1.546  10.226  17.302  0.00  0.00    +0.000 A 
ATOM      8  C   UNL     1      -2.303   9.818  16.205  0.00  0.00    +0.000 A 
ATOM      9  C   UNL     1      -3.570  10.344  15.994  0.00  0.00    +0.000 A 
ATOM     10  C   UNL     1      -4.087  11.252  16.918  0.00  0.00    +0.000 A 
ATOM     11  C   UNL     1      -3.334  11.671  18.032  0.00  0.00    +0.000 A 
BRANCH  11  12
ATOM     12  O   UNL     1      -4.050  12.475  18.882  0.00  0.00    +0.000 OA
ATOM     13  C   UNL     1      -5.395  12.104  19.156  0.00  0.00    +0.000 C 
ENDBRANCH  11  12
BRANCH   9  14
ATOM     14  O   UNL     1      -4.226   9.857  14.900  0.00  0.00    +0.000 OA
BRANCH  14  15
ATOM     15  C   UNL     1      -3.727  10.293  13.631  0.00  0.00    +0.000 C 
BRANCH  15  16
ATOM     16  C   UNL     1      -4.489   9.562  12.518  0.00  0.00    +0.000 C 
BRANCH  16  17
ATOM     17  N   UNL     1      -3.790   9.657  11.232  0.00  0.00    +0.000 NA
ATOM     18  H   UNL     1      -4.456   9.435  10.489  0.00  0.00    +0.000 HD
ATOM     19  H   UNL     1      -3.060   8.950  11.188  0.00  0.00    +0.000 HD
ENDBRANCH  16  17
ENDBRANCH  15  16
ENDBRANCH  14  15
ENDBRANCH   9  14
ENDBRANCH   5   6
ENDBRANCH   2   4
ENDBRANCH   1   2
BRANCH   1  20
ATOM     20  C   UNL     1       0.140   8.556  21.532  0.00  0.00    +0.000 C 
ATOM     21  O   UNL     1      -0.837   7.880  21.829  0.00  0.00    +0.000 OA
BRANCH  20  23
ATOM     22  C   UNL     1       1.361   6.644  20.555  0.00  0.00    +0.000 C 
ATOM     23  C   UNL     1       1.275   7.972  20.750  0.00  0.00    +0.000 C 
BRANCH  22  29
ATOM     24  C   UNL     1       2.756   4.586  20.141  0.00  0.00    +0.000 A 
ATOM     25  C   UNL     1       3.879   3.976  19.566  0.00  0.00    +0.000 A 
ATOM     26  C   UNL     1       4.803   4.720  18.833  0.00  0.00    +0.000 A 
ATOM     27  C   UNL     1       4.564   6.070  18.598  0.00  0.00    +0.000 A 
ATOM     28  C   UNL     1       3.424   6.681  19.132  0.00  0.00    +0.000 A 
ATOM     29  C   UNL     1       2.522   5.965  19.937  0.00  0.00    +0.000 A 
BRANCH  24  31
ATOM     30  C   UNL     1       2.346   2.817  21.671  0.00  0.00    +0.000 C 
ATOM     31  O   UNL     1       1.831   3.882  20.875  0.00  0.00    +0.000 OA
ENDBRANCH  24  31
BRANCH  26  32
ATOM     32  O   UNL     1       5.873   4.020  18.347  0.00  0.00    +0.000 OA
BRANCH  32  33
ATOM     33  C   UNL     1       6.383   4.503  17.098  0.00  0.00    +0.000 C 
BRANCH  33  34
ATOM     34  C   UNL     1       5.610   3.826  15.961  0.00  0.00    +0.000 C 
BRANCH  34  35
ATOM     35  N   UNL     1       5.999   4.353  14.654  0.00  0.00    +0.000 NA
ATOM     36  H   UNL     1       5.673   3.723  13.921  0.00  0.00    +0.000 HD
ATOM     37  H   UNL     1       7.016   4.358  14.586  0.00  0.00    +0.000 HD
ENDBRANCH  34  35
ENDBRANCH  33  34
ENDBRANCH  32  33
ENDBRANCH  26  32
ENDBRANCH  22  29
ENDBRANCH  20  23
ENDBRANCH   1  20
TORSDOF 16
ENDMDL
MODEL 4
REMARK VINA RESULT:      -6.7      5.098     10.855
REMARK  Name = 
REMARK  18 active torsions:
REMARK  status: ('A' for Active; 'I' for Inactive)
REMARK    1  A    between atoms: C_1  and  O_2
REMARK    2  A    between atoms: O_2  and  C_3
REMARK    3  A    between atoms: C_5  and  O_6
REMARK    4  A    between atoms: O_6  and  C_7
REMARK    5  A    between atoms: C_7  and  C_8
REMARK    6  A    between atoms: C_8  and  N_9
REMARK    7  A    between atoms: C_12  and  C_13
REMARK    8  A    between atoms: C_14  and  C_15
REMARK    9  A    between atoms: C_15  and  C_17
REMARK   10  A    between atoms: C_17  and  C_18
REMARK   11  A    between atoms: C_18  and  C_20
REMARK   12  A    between atoms: C_21  and  C_22
REMARK   13  A    between atoms: C_25  and  O_26
REMARK   14  A    between atoms: O_26  and  C_27
REMARK   15  A    between atoms: C_27  and  C_28
REMARK   16  A    between atoms: C_28  and  N_29
REMARK   17  A    between atoms: C_31  and  O_32
REMARK   18  A    between atoms: O_32  and  C_33
REMARK                            x       y       z     vdW  Elec       q    Type
REMARK                         _______ _______ _______ _____ _____    ______ ____
ROOT
ATOM      1  C   UNL     1      -0.866  12.372  21.820  0.00  0.00    +0.000 C 
ENDROOT
BRANCH   1   2
ATOM      2  C   UNL     1      -2.309  12.404  21.382  0.00  0.00    +0.000 C 
ATOM      3  O   UNL     1      -3.231  12.422  22.189  0.00  0.00    +0.000 OA
BRANCH   2   4
ATOM      4  C   UNL     1      -2.576  12.366  19.915  0.00  0.00    +0.000 C 
ATOM      5  C   UNL     1      -2.931  11.214  19.322  0.00  0.00    +0.000 C 
BRANCH   5   6
ATOM      6  C   UNL     1      -3.032  11.052  17.862  0.00  0.00    +0.000 A 
ATOM      7  C   UNL     1      -2.078  10.216  17.242  0.00  0.00    +0.000 A 
ATOM      8  C   UNL     1      -2.158   9.892  15.889  0.00  0.00    +0.000 A 
ATOM      9  C   UNL     1      -3.187  10.398  15.107  0.00  0.00    +0.000 A 
ATOM     10  C   UNL     1      -4.161  11.197  15.706  0.00  0.00    +0.000 A 
ATOM     11  C   UNL     1      -4.094  11.530  17.073  0.00  0.00    +0.000 A 
BRANCH  11  12
ATOM     12  O   UNL     1      -5.195  12.227  17.501  0.00  0.00    +0.000 OA
ATOM     13  C   UNL     1      -6.277  11.476  18.039  0.00  0.00    +0.000 C 
ENDBRANCH  11  12
BRANCH   9  14
ATOM     14  O   UNL     1      -3.175   9.998  13.801  0.00  0.00    +0.000 OA
BRANCH  14  15
ATOM     15  C   UNL     1      -4.456   9.727  13.222  0.00  0.00    +0.000 C 
BRANCH  15  16
ATOM     16  C   UNL     1      -4.326   9.744  11.693  0.00  0.00    +0.000 C 
BRANCH  16  17
ATOM     17  N   UNL     1      -5.592  10.106  11.048  0.00  0.00    +0.000 NA
ATOM     18  H   UNL     1      -6.357   9.808  11.657  0.00  0.00    +0.000 HD
ATOM     19  H   UNL     1      -5.693   9.586  10.179  0.00  0.00    +0.000 HD
ENDBRANCH  16  17
ENDBRANCH  15  16
ENDBRANCH  14  15
ENDBRANCH   9  14
ENDBRANCH   5   6
ENDBRANCH   2   4
ENDBRANCH   1   2
BRANCH   1  20
ATOM     20  C   UNL     1      -0.411  11.035  22.351  0.00  0.00    +0.000 C 
ATOM     21  O   UNL     1      -0.796  10.599  23.430  0.00  0.00    +0.000 OA
BRANCH  20  23
ATOM     22  C   UNL     1       0.308   9.606  20.469  0.00  0.00    +0.000 C 
ATOM     23  C   UNL     1       0.639  10.319  21.560  0.00  0.00    +0.000 C 
BRANCH  22  29
ATOM     24  C   UNL     1       1.709   9.103  18.435  0.00  0.00    +0.000 A 
ATOM     25  C   UNL     1       2.577   8.251  17.738  0.00  0.00    +0.000 A 
ATOM     26  C   UNL     1       2.955   7.020  18.273  0.00  0.00    +0.000 A 
ATOM     27  C   UNL     1       2.534   6.669  19.551  0.00  0.00    +0.000 A 
ATOM     28  C   UNL     1       1.702   7.531  20.274  0.00  0.00    +0.000 A 
ATOM     29  C   UNL     1       1.248   8.741  19.721  0.00  0.00    +0.000 A 
BRANCH  24  31
ATOM     30  C   UNL     1       2.202  11.410  18.159  0.00  0.00    +0.000 C 
ATOM     31  O   UNL     1       1.311  10.320  17.933  0.00  0.00    +0.000 OA
ENDBRANCH  24  31
BRANCH  26  32
ATOM     32  O   UNL     1       3.781   6.263  17.487  0.00  0.00    +0.000 OA
BRANCH  32  33
ATOM     33  C   UNL     1       5.095   6.065  18.021  0.00  0.00    +0.000 C 
BRANCH  33  34
ATOM     34  C   UNL     1       6.119   6.535  16.983  0.00  0.00    +0.000 C 
BRANCH  34  35
ATOM     35  N   UNL     1       7.470   6.590  17.543  0.00  0.00    +0.000 NA
ATOM     36  H   UNL     1       8.154   6.492  16.793  0.00  0.00    +0.000 HD
ATOM     37  H   UNL     1       7.610   5.787  18.155  0.00  0.00    +0.000 HD
ENDBRANCH  34  35
ENDBRANCH  33  34
ENDBRANCH  32  33
ENDBRANCH  26  32
ENDBRANCH  22  29
ENDBRANCH  20  23
ENDBRANCH   1  20
TORSDOF 16
ENDMDL
MODEL 5
REMARK VINA RESULT:      -6.6      2.886      5.593
REMARK  Name = 
REMARK  18 active torsions:
REMARK  status: ('A' for Active; 'I' for Inactive)
REMARK    1  A    between atoms: C_1  and  O_2
REMARK    2  A    between atoms: O_2  and  C_3
REMARK    3  A    between atoms: C_5  and  O_6
REMARK    4  A    between atoms: O_6  and  C_7
REMARK    5  A    between atoms: C_7  and  C_8
REMARK    6  A    between atoms: C_8  and  N_9
REMARK    7  A    between atoms: C_12  and  C_13
REMARK    8  A    between atoms: C_14  and  C_15
REMARK    9  A    between atoms: C_15  and  C_17
REMARK   10  A    between atoms: C_17  and  C_18
REMARK   11  A    between atoms: C_18  and  C_20
REMARK   12  A    between atoms: C_21  and  C_22
REMARK   13  A    between atoms: C_25  and  O_26
REMARK   14  A    between atoms: O_26  and  C_27
REMARK   15  A    between atoms: C_27  and  C_28
REMARK   16  A    between atoms: C_28  and  N_29
REMARK   17  A    between atoms: C_31  and  O_32
REMARK   18  A    between atoms: O_32  and  C_33
REMARK                            x       y       z     vdW  Elec       q    Type
REMARK                         _______ _______ _______ _____ _____    ______ ____
ROOT
ATOM      1  C   UNL     1       1.890   2.573  19.030  0.00  0.00    +0.000 C 
ENDROOT
BRANCH   1   2
ATOM      2  C   UNL     1       3.291   2.248  18.574  0.00  0.00    +0.000 C 
ATOM      3  O   UNL     1       3.641   1.102  18.321  0.00  0.00    +0.000 OA
BRANCH   2   4
ATOM      4  C   UNL     1       4.258   3.380  18.488  0.00  0.00    +0.000 C 
ATOM      5  C   UNL     1       4.198   4.245  17.460  0.00  0.00    +0.000 C 
BRANCH   5   6
ATOM      6  C   UNL     1       5.222   5.272  17.206  0.00  0.00    +0.000 A 
ATOM      7  C   UNL     1       5.153   6.451  17.980  0.00  0.00    +0.000 A 
ATOM      8  C   UNL     1       6.142   7.431  17.912  0.00  0.00    +0.000 A 
ATOM      9  C   UNL     1       7.229   7.270  17.064  0.00  0.00    +0.000 A 
ATOM     10  C   UNL     1       7.337   6.097  16.317  0.00  0.00    +0.000 A 
ATOM     11  C   UNL     1       6.345   5.098  16.378  0.00  0.00    +0.000 A 
BRANCH  11  12
ATOM     12  O   UNL     1       6.681   3.977  15.663  0.00  0.00    +0.000 OA
ATOM     13  C   UNL     1       6.156   3.858  14.347  0.00  0.00    +0.000 C 
ENDBRANCH  11  12
BRANCH   9  14
ATOM     14  O   UNL     1       8.144   8.284  17.095  0.00  0.00    +0.000 OA
BRANCH  14  15
ATOM     15  C   UNL     1       7.785   9.421  17.887  0.00  0.00    +0.000 C 
BRANCH  15  16
ATOM     16  C   UNL     1       9.013   9.881  18.684  0.00  0.00    +0.000 C 
BRANCH  16  17
ATOM     17  N   UNL     1       9.763  10.919  17.970  0.00  0.00    +0.000 NA
ATOM     18  H   UNL     1       9.407  11.830  18.266  0.00  0.00    +0.000 HD
ATOM     19  H   UNL     1       9.579  10.846  16.971  0.00  0.00    +0.000 HD
ENDBRANCH  16  17
ENDBRANCH  15  16
ENDBRANCH  14  15
ENDBRANCH   9  14
ENDBRANCH   5   6
ENDBRANCH   2   4
ENDBRANCH   1   2
BRANCH   1  20
ATOM     20  C   UNL     1       1.805   3.740  19.983  0.00  0.00    +0.000 C 
ATOM     21  O   UNL     1       1.661   3.584  21.190  0.00  0.00    +0.000 OA
BRANCH  20  23
ATOM     22  C   UNL     1       1.934   6.202  20.133  0.00  0.00    +0.000 C 
ATOM     23  C   UNL     1       1.772   5.106  19.372  0.00  0.00    +0.000 C 
BRANCH  22  29
ATOM     24  C   UNL     1       1.158   8.578  20.459  0.00  0.00    +0.000 A 
ATOM     25  C   UNL     1       0.980   9.877  19.962  0.00  0.00    +0.000 A 
ATOM     26  C   UNL     1       1.342  10.199  18.654  0.00  0.00    +0.000 A 
ATOM     27  C   UNL     1       1.964   9.243  17.859  0.00  0.00    +0.000 A 
ATOM     28  C   UNL     1       2.185   7.955  18.359  0.00  0.00    +0.000 A 
ATOM     29  C   UNL     1       1.759   7.590  19.647  0.00  0.00    +0.000 A 
BRANCH  24  31
ATOM     30  C   UNL     1       1.082   9.193  22.751  0.00  0.00    +0.000 C 
ATOM     31  O   UNL     1       0.806   8.226  21.740  0.00  0.00    +0.000 OA
ENDBRANCH  24  31
BRANCH  26  32
ATOM     32  O   UNL     1       1.092  11.490  18.273  0.00  0.00    +0.000 OA
BRANCH  32  33
ATOM     33  C   UNL     1       0.986  12.420  19.356  0.00  0.00    +0.000 C 
BRANCH  33  34
ATOM     34  C   UNL     1      -0.275  13.266  19.152  0.00  0.00    +0.000 C 
BRANCH  34  35
ATOM     35  N   UNL     1      -0.876  13.033  17.838  0.00  0.00    +0.000 NA
ATOM     36  H   UNL     1      -1.153  13.925  17.427  0.00  0.00    +0.000 HD
ATOM     37  H   UNL     1      -1.737  12.500  17.955  0.00  0.00    +0.000 HD
ENDBRANCH  34  35
ENDBRANCH  33  34
ENDBRANCH  32  33
ENDBRANCH  26  32
ENDBRANCH  22  29
ENDBRANCH  20  23
ENDBRANCH   1  20
TORSDOF 16
ENDMDL
MODEL 6
REMARK VINA RESULT:      -6.5      4.770      6.959
REMARK  Name = 
REMARK  18 active torsions:
REMARK  status: ('A' for Active; 'I' for Inactive)
REMARK    1  A    between atoms: C_1  and  O_2
REMARK    2  A    between atoms: O_2  and  C_3
REMARK    3  A    between atoms: C_5  and  O_6
REMARK    4  A    between atoms: O_6  and  C_7
REMARK    5  A    between atoms: C_7  and  C_8
REMARK    6  A    between atoms: C_8  and  N_9
REMARK    7  A    between atoms: C_12  and  C_13
REMARK    8  A    between atoms: C_14  and  C_15
REMARK    9  A    between atoms: C_15  and  C_17
REMARK   10  A    between atoms: C_17  and  C_18
REMARK   11  A    between atoms: C_18  and  C_20
REMARK   12  A    between atoms: C_21  and  C_22
REMARK   13  A    between atoms: C_25  and  O_26
REMARK   14  A    between atoms: O_26  and  C_27
REMARK   15  A    between atoms: C_27  and  C_28
REMARK   16  A    between atoms: C_28  and  N_29
REMARK   17  A    between atoms: C_31  and  O_32
REMARK   18  A    between atoms: O_32  and  C_33
REMARK                            x       y       z     vdW  Elec       q    Type
REMARK                         _______ _______ _______ _____ _____    ______ ____
ROOT
ATOM      1  C   UNL     1       0.885   4.179  20.026  0.00  0.00    +0.000 C 
ENDROOT
BRANCH   1   2
ATOM      2  C   UNL     1       1.468   3.054  19.207  0.00  0.00    +0.000 C 
ATOM      3  O   UNL     1       1.125   1.889  19.368  0.00  0.00    +0.000 OA
BRANCH   2   4
ATOM      4  C   UNL     1       2.523   3.411  18.215  0.00  0.00    +0.000 C 
ATOM      5  C   UNL     1       3.822   3.329  18.549  0.00  0.00    +0.000 C 
BRANCH   5   6
ATOM      6  C   UNL     1       4.911   3.834  17.696  0.00  0.00    +0.000 A 
ATOM      7  C   UNL     1       4.691   3.822  16.302  0.00  0.00    +0.000 A 
ATOM      8  C   UNL     1       5.599   4.394  15.412  0.00  0.00    +0.000 A 
ATOM      9  C   UNL     1       6.761   4.990  15.883  0.00  0.00    +0.000 A 
ATOM     10  C   UNL     1       6.981   5.045  17.260  0.00  0.00    +0.000 A 
ATOM     11  C   UNL     1       6.071   4.474  18.170  0.00  0.00    +0.000 A 
BRANCH  11  12
ATOM     12  O   UNL     1       6.401   4.727  19.476  0.00  0.00    +0.000 OA
ATOM     13  C   UNL     1       7.486   5.614  19.717  0.00  0.00    +0.000 C 
ENDBRANCH  11  12
BRANCH   9  14
ATOM     14  O   UNL     1       7.566   5.533  14.923  0.00  0.00    +0.000 OA
BRANCH  14  15
ATOM     15  C   UNL     1       7.381   5.026  13.597  0.00  0.00    +0.000 C 
BRANCH  15  16
ATOM     16  C   UNL     1       8.325   5.769  12.643  0.00  0.00    +0.000 C 
BRANCH  16  17
ATOM     17  N   UNL     1       7.705   5.987  11.332  0.00  0.00    +0.000 NA
ATOM     18  H   UNL     1       8.380   5.722  10.612  0.00  0.00    +0.000 HD
ATOM     19  H   UNL     1       7.519   6.980  11.204  0.00  0.00    +0.000 HD
ENDBRANCH  16  17
ENDBRANCH  15  16
ENDBRANCH  14  15
ENDBRANCH   9  14
ENDBRANCH   5   6
ENDBRANCH   2   4
ENDBRANCH   1   2
BRANCH   1  20
ATOM     20  C   UNL     1       1.907   4.979  20.794  0.00  0.00    +0.000 C 
ATOM     21  O   UNL     1       2.502   4.516  21.760  0.00  0.00    +0.000 OA
BRANCH  20  23
ATOM     22  C   UNL     1       1.225   7.351  20.870  0.00  0.00    +0.000 C 
ATOM     23  C   UNL     1       2.070   6.415  20.404  0.00  0.00    +0.000 C 
BRANCH  22  29
ATOM     24  C   UNL     1       0.922   9.814  21.314  0.00  0.00    +0.000 A 
ATOM     25  C   UNL     1       0.887  11.137  20.851  0.00  0.00    +0.000 A 
ATOM     26  C   UNL     1       1.082  11.428  19.501  0.00  0.00    +0.000 A 
ATOM     27  C   UNL     1       1.398  10.403  18.616  0.00  0.00    +0.000 A 
ATOM     28  C   UNL     1       1.478   9.084  19.075  0.00  0.00    +0.000 A 
ATOM     29  C   UNL     1       1.210   8.761  20.416  0.00  0.00    +0.000 A 
BRANCH  24  31
ATOM     30  C   UNL     1      -0.493   9.949  23.216  0.00  0.00    +0.000 C 
ATOM     31  O   UNL     1       0.727   9.492  22.636  0.00  0.00    +0.000 OA
ENDBRANCH  24  31
BRANCH  26  32
ATOM     32  O   UNL     1       0.994  12.752  19.164  0.00  0.00    +0.000 OA
BRANCH  32  33
ATOM     33  C   UNL     1       1.913  13.170  18.148  0.00  0.00    +0.000 C 
BRANCH  33  34
ATOM     34  C   UNL     1       2.386  14.591  18.472  0.00  0.00    +0.000 C 
BRANCH  34  35
ATOM     35  N   UNL     1       2.302  14.876  19.904  0.00  0.00    +0.000 NA
ATOM     36  H   UNL     1       2.579  14.049  20.433  0.00  0.00    +0.000 HD
ATOM     37  H   UNL     1       1.329  15.053  20.152  0.00  0.00    +0.000 HD
ENDBRANCH  34  35
ENDBRANCH  33  34
ENDBRANCH  32  33
ENDBRANCH  26  32
ENDBRANCH  22  29
ENDBRANCH  20  23
ENDBRANCH   1  20
TORSDOF 16
ENDMDL
MODEL 7
REMARK VINA RESULT:      -6.5      4.362      8.113
REMARK  Name = 
REMARK  18 active torsions:
REMARK  status: ('A' for Active; 'I' for Inactive)
REMARK    1  A    between atoms: C_1  and  O_2
REMARK    2  A    between atoms: O_2  and  C_3
REMARK    3  A    between atoms: C_5  and  O_6
REMARK    4  A    between atoms: O_6  and  C_7
REMARK    5  A    between atoms: C_7  and  C_8
REMARK    6  A    between atoms: C_8  and  N_9
REMARK    7  A    between atoms: C_12  and  C_13
REMARK    8  A    between atoms: C_14  and  C_15
REMARK    9  A    between atoms: C_15  and  C_17
REMARK   10  A    between atoms: C_17  and  C_18
REMARK   11  A    between atoms: C_18  and  C_20
REMARK   12  A    between atoms: C_21  and  C_22
REMARK   13  A    between atoms: C_25  and  O_26
REMARK   14  A    between atoms: O_26  and  C_27
REMARK   15  A    between atoms: C_27  and  C_28
REMARK   16  A    between atoms: C_28  and  N_29
REMARK   17  A    between atoms: C_31  and  O_32
REMARK   18  A    between atoms: O_32  and  C_33
REMARK                            x       y       z     vdW  Elec       q    Type
REMARK                         _______ _______ _______ _____ _____    ______ ____
ROOT
ATOM      1  C   UNL     1       2.200   3.201  20.684  0.00  0.00    +0.000 C 
ENDROOT
BRANCH   1   2
ATOM      2  C   UNL     1       1.477   3.569  19.412  0.00  0.00    +0.000 C 
ATOM      3  O   UNL     1       0.885   2.734  18.738  0.00  0.00    +0.000 OA
BRANCH   2   4
ATOM      4  C   UNL     1       1.551   4.993  18.975  0.00  0.00    +0.000 C 
ATOM      5  C   UNL     1       2.041   5.931  19.804  0.00  0.00    +0.000 C 
BRANCH   5   6
ATOM      6  C   UNL     1       1.979   7.374  19.520  0.00  0.00    +0.000 A 
ATOM      7  C   UNL     1       2.449   7.800  18.259  0.00  0.00    +0.000 A 
ATOM      8  C   UNL     1       2.319   9.123  17.837  0.00  0.00    +0.000 A 
ATOM      9  C   UNL     1       1.724  10.066  18.664  0.00  0.00    +0.000 A 
ATOM     10  C   UNL     1       1.220   9.660  19.900  0.00  0.00    +0.000 A 
ATOM     11  C   UNL     1       1.342   8.326  20.337  0.00  0.00    +0.000 A 
BRANCH  11  12
ATOM     12  O   UNL     1       0.691   8.097  21.521  0.00  0.00    +0.000 OA
ATOM     13  C   UNL     1      -0.384   8.967  21.857  0.00  0.00    +0.000 C 
ENDBRANCH  11  12
BRANCH   9  14
ATOM     14  O   UNL     1       1.634  11.324  18.139  0.00  0.00    +0.000 OA
BRANCH  14  15
ATOM     15  C   UNL     1       1.937  12.395  19.039  0.00  0.00    +0.000 C 
BRANCH  15  16
ATOM     16  C   UNL     1       2.223  13.664  18.225  0.00  0.00    +0.000 C 
BRANCH  16  17
ATOM     17  N   UNL     1       3.626  13.731  17.805  0.00  0.00    +0.000 NA
ATOM     18  H   UNL     1       4.036  14.581  18.198  0.00  0.00    +0.000 HD
ATOM     19  H   UNL     1       3.674  13.827  16.793  0.00  0.00    +0.000 HD
ENDBRANCH  16  17
ENDBRANCH  15  16
ENDBRANCH  14  15
ENDBRANCH   9  14
ENDBRANCH   5   6
ENDBRANCH   2   4
ENDBRANCH   1   2
BRANCH   1  20
ATOM     20  C   UNL     1       3.577   2.625  20.468  0.00  0.00    +0.000 C 
ATOM     21  O   UNL     1       4.204   2.084  21.372  0.00  0.00    +0.000 OA
BRANCH  20  23
ATOM     22  C   UNL     1       5.037   3.894  18.933  0.00  0.00    +0.000 C 
ATOM     23  C   UNL     1       4.202   2.859  19.128  0.00  0.00    +0.000 C 
BRANCH  22  29
ATOM     24  C   UNL     1       6.403   5.433  17.476  0.00  0.00    +0.000 A 
ATOM     25  C   UNL     1       6.874   5.806  16.210  0.00  0.00    +0.000 A 
ATOM     26  C   UNL     1       6.494   5.101  15.068  0.00  0.00    +0.000 A 
ATOM     27  C   UNL     1       5.705   3.963  15.196  0.00  0.00    +0.000 A 
ATOM     28  C   UNL     1       5.265   3.556  16.459  0.00  0.00    +0.000 A 
ATOM     29  C   UNL     1       5.574   4.296  17.613  0.00  0.00    +0.000 A 
BRANCH  24  31
ATOM     30  C   UNL     1       8.088   6.608  18.668  0.00  0.00    +0.000 C 
ATOM     31  O   UNL     1       6.752   6.111  18.621  0.00  0.00    +0.000 OA
ENDBRANCH  24  31
BRANCH  26  32
ATOM     32  O   UNL     1       6.992   5.578  13.886  0.00  0.00    +0.000 OA
BRANCH  32  33
ATOM     33  C   UNL     1       7.498   4.570  13.004  0.00  0.00    +0.000 C 
BRANCH  33  34
ATOM     34  C   UNL     1       6.314   3.890  12.308  0.00  0.00    +0.000 C 
BRANCH  34  35
ATOM     35  N   UNL     1       6.597   2.487  12.008  0.00  0.00    +0.000 NA
ATOM     36  H   UNL     1       5.820   1.907  12.325  0.00  0.00    +0.000 HD
ATOM     37  H   UNL     1       7.408   2.188  12.548  0.00  0.00    +0.000 HD
ENDBRANCH  34  35
ENDBRANCH  33  34
ENDBRANCH  32  33
ENDBRANCH  26  32
ENDBRANCH  22  29
ENDBRANCH  20  23
ENDBRANCH   1  20
TORSDOF 16
ENDMDL
MODEL 8
REMARK VINA RESULT:      -6.5      1.568      8.207
REMARK  Name = 
REMARK  18 active torsions:
REMARK  status: ('A' for Active; 'I' for Inactive)
REMARK    1  A    between atoms: C_1  and  O_2
REMARK    2  A    between atoms: O_2  and  C_3
REMARK    3  A    between atoms: C_5  and  O_6
REMARK    4  A    between atoms: O_6  and  C_7
REMARK    5  A    between atoms: C_7  and  C_8
REMARK    6  A    between atoms: C_8  and  N_9
REMARK    7  A    between atoms: C_12  and  C_13
REMARK    8  A    between atoms: C_14  and  C_15
REMARK    9  A    between atoms: C_15  and  C_17
REMARK   10  A    between atoms: C_17  and  C_18
REMARK   11  A    between atoms: C_18  and  C_20
REMARK   12  A    between atoms: C_21  and  C_22
REMARK   13  A    between atoms: C_25  and  O_26
REMARK   14  A    between atoms: O_26  and  C_27
REMARK   15  A    between atoms: C_27  and  C_28
REMARK   16  A    between atoms: C_28  and  N_29
REMARK   17  A    between atoms: C_31  and  O_32
REMARK   18  A    between atoms: O_32  and  C_33
REMARK                            x       y       z     vdW  Elec       q    Type
REMARK                         _______ _______ _______ _____ _____    ______ ____
ROOT
ATOM      1  C   UNL     1       7.265   6.315  16.887  0.00  0.00    +0.000 C 
ENDROOT
BRANCH   1   2
ATOM      2  C   UNL     1       5.842   6.647  16.513  0.00  0.00    +0.000 C 
ATOM      3  O   UNL     1       5.425   6.517  15.368  0.00  0.00    +0.000 OA
BRANCH   2   4
ATOM      4  C   UNL     1       4.964   7.191  17.590  0.00  0.00    +0.000 C 
ATOM      5  C   UNL     1       3.629   7.183  17.443  0.00  0.00    +0.000 C 
BRANCH   5   6
ATOM      6  C   UNL     1       2.708   7.861  18.370  0.00  0.00    +0.000 A 
ATOM      7  C   UNL     1       2.041   9.008  17.887  0.00  0.00    +0.000 A 
ATOM      8  C   UNL     1       1.055   9.651  18.633  0.00  0.00    +0.000 A 
ATOM      9  C   UNL     1       0.707   9.176  19.890  0.00  0.00    +0.000 A 
ATOM     10  C   UNL     1       1.328   8.025  20.373  0.00  0.00    +0.000 A 
ATOM     11  C   UNL     1       2.324   7.363  19.628  0.00  0.00    +0.000 A 
BRANCH  11  12
ATOM     12  O   UNL     1       2.733   6.193  20.216  0.00  0.00    +0.000 OA
ATOM     13  C   UNL     1       1.754   5.181  20.410  0.00  0.00    +0.000 C 
ENDBRANCH  11  12
BRANCH   9  14
ATOM     14  O   UNL     1      -0.284   9.874  20.521  0.00  0.00    +0.000 OA
BRANCH  14  15
ATOM     15  C   UNL     1      -0.357  11.269  20.208  0.00  0.00    +0.000 C 
BRANCH  15  16
ATOM     16  C   UNL     1       0.186  12.076  21.395  0.00  0.00    +0.000 C 
BRANCH  16  17
ATOM     17  N   UNL     1       1.502  12.650  21.100  0.00  0.00    +0.000 NA
ATOM     18  H   UNL     1       2.011  12.750  21.981  0.00  0.00    +0.000 HD
ATOM     19  H   UNL     1       1.388  13.589  20.724  0.00  0.00    +0.000 HD
ENDBRANCH  16  17
ENDBRANCH  15  16
ENDBRANCH  14  15
ENDBRANCH   9  14
ENDBRANCH   5   6
ENDBRANCH   2   4
ENDBRANCH   1   2
BRANCH   1  20
ATOM     20  C   UNL     1       7.763   7.031  18.119  0.00  0.00    +0.000 C 
ATOM     21  O   UNL     1       7.700   6.526  19.233  0.00  0.00    +0.000 OA
BRANCH  20  23
ATOM     22  C   UNL     1       8.906   9.074  18.907  0.00  0.00    +0.000 C 
ATOM     23  C   UNL     1       8.222   8.444  17.936  0.00  0.00    +0.000 C 
BRANCH  22  29
ATOM     24  C   UNL     1       9.216  11.296  20.056  0.00  0.00    +0.000 A 
ATOM     25  C   UNL     1       9.529  12.661  19.997  0.00  0.00    +0.000 A 
ATOM     26  C   UNL     1       9.833  13.274  18.782  0.00  0.00    +0.000 A 
ATOM     27  C   UNL     1       9.910  12.505  17.626  0.00  0.00    +0.000 A 
ATOM     28  C   UNL     1       9.642  11.133  17.680  0.00  0.00    +0.000 A 
ATOM     29  C   UNL     1       9.259  10.512  18.881  0.00  0.00    +0.000 A 
BRANCH  24  31
ATOM     30  C   UNL     1       8.486  11.508  22.306  0.00  0.00    +0.000 C 
ATOM     31  O   UNL     1       8.905  10.662  21.237  0.00  0.00    +0.000 OA
ENDBRANCH  24  31
BRANCH  26  32
ATOM     32  O   UNL     1      10.091  14.616  18.846  0.00  0.00    +0.000 OA
BRANCH  32  33
ATOM     33  C   UNL     1       8.987  15.414  19.288  0.00  0.00    +0.000 C 
BRANCH  33  34
ATOM     34  C   UNL     1       8.097  15.728  18.080  0.00  0.00    +0.000 C 
BRANCH  34  35
ATOM     35  N   UNL     1       6.749  16.120  18.489  0.00  0.00    +0.000 NA
ATOM     36  H   UNL     1       6.610  17.112  18.299  0.00  0.00    +0.000 HD
ATOM     37  H   UNL     1       6.663  16.014  19.499  0.00  0.00    +0.000 HD
ENDBRANCH  34  35
ENDBRANCH  33  34
ENDBRANCH  32  33
ENDBRANCH  26  32
ENDBRANCH  22  29
ENDBRANCH  20  23
ENDBRANCH   1  20
TORSDOF 16
ENDMDL
MODEL 9
REMARK VINA RESULT:      -6.5      5.783     10.726
REMARK  Name = 
REMARK  18 active torsions:
REMARK  status: ('A' for Active; 'I' for Inactive)
REMARK    1  A    between atoms: C_1  and  O_2
REMARK    2  A    between atoms: O_2  and  C_3
REMARK    3  A    between atoms: C_5  and  O_6
REMARK    4  A    between atoms: O_6  and  C_7
REMARK    5  A    between atoms: C_7  and  C_8
REMARK    6  A    between atoms: C_8  and  N_9
REMARK    7  A    between atoms: C_12  and  C_13
REMARK    8  A    between atoms: C_14  and  C_15
REMARK    9  A    between atoms: C_15  and  C_17
REMARK   10  A    between atoms: C_17  and  C_18
REMARK   11  A    between atoms: C_18  and  C_20
REMARK   12  A    between atoms: C_21  and  C_22
REMARK   13  A    between atoms: C_25  and  O_26
REMARK   14  A    between atoms: O_26  and  C_27
REMARK   15  A    between atoms: C_27  and  C_28
REMARK   16  A    between atoms: C_28  and  N_29
REMARK   17  A    between atoms: C_31  and  O_32
REMARK   18  A    between atoms: O_32  and  C_33
REMARK                            x       y       z     vdW  Elec       q    Type
REMARK                         _______ _______ _______ _____ _____    ______ ____
ROOT
ATOM      1  C   UNL     1       1.995   9.724  19.890  0.00  0.00    +0.000 C 
ENDROOT
BRANCH   1   2
ATOM      2  C   UNL     1       1.362  10.505  18.765  0.00  0.00    +0.000 C 
ATOM      3  O   UNL     1       2.032  11.144  17.963  0.00  0.00    +0.000 OA
BRANCH   2   4
ATOM      4  C   UNL     1      -0.127  10.508  18.693  0.00  0.00    +0.000 C 
ATOM      5  C   UNL     1      -0.796  11.668  18.572  0.00  0.00    +0.000 C 
BRANCH   5   6
ATOM      6  C   UNL     1      -2.261  11.772  18.679  0.00  0.00    +0.000 A 
ATOM      7  C   UNL     1      -2.781  12.279  19.889  0.00  0.00    +0.000 A 
ATOM      8  C   UNL     1      -4.141  12.539  20.051  0.00  0.00    +0.000 A 
ATOM      9  C   UNL     1      -5.029  12.294  19.012  0.00  0.00    +0.000 A 
ATOM     10  C   UNL     1      -4.533  11.827  17.795  0.00  0.00    +0.000 A 
ATOM     11  C   UNL     1      -3.160  11.562  17.618  0.00  0.00    +0.000 A 
BRANCH  11  12
ATOM     12  O   UNL     1      -2.851  11.219  16.327  0.00  0.00    +0.000 OA
ATOM     13  C   UNL     1      -2.855   9.835  15.998  0.00  0.00    +0.000 C 
ENDBRANCH  11  12
BRANCH   9  14
ATOM     14  O   UNL     1      -6.333  12.605  19.276  0.00  0.00    +0.000 OA
BRANCH  14  15
ATOM     15  C   UNL     1      -7.293  11.605  18.919  0.00  0.00    +0.000 C 
BRANCH  15  16
ATOM     16  C   UNL     1      -7.246  10.475  19.956  0.00  0.00    +0.000 C 
BRANCH  16  17
ATOM     17  N   UNL     1      -7.350   9.157  19.323  0.00  0.00    +0.000 NA
ATOM     18  H   UNL     1      -7.441   9.294  18.314  0.00  0.00    +0.000 HD
ATOM     19  H   UNL     1      -8.204   8.697  19.631  0.00  0.00    +0.000 HD
ENDBRANCH  16  17
ENDBRANCH  15  16
ENDBRANCH  14  15
ENDBRANCH   9  14
ENDBRANCH   5   6
ENDBRANCH   2   4
ENDBRANCH   1   2
BRANCH   1  20
ATOM     20  C   UNL     1       1.697   8.245  19.860  0.00  0.00    +0.000 C 
ATOM     21  O   UNL     1       1.138   7.676  20.790  0.00  0.00    +0.000 OA
BRANCH  20  23
ATOM     22  C   UNL     1       3.251   6.610  18.854  0.00  0.00    +0.000 C 
ATOM     23  C   UNL     1       2.234   7.475  18.694  0.00  0.00    +0.000 C 
BRANCH  22  29
ATOM     24  C   UNL     1       3.938   4.519  17.626  0.00  0.00    +0.000 A 
ATOM     25  C   UNL     1       4.630   3.898  16.577  0.00  0.00    +0.000 A 
ATOM     26  C   UNL     1       5.377   4.648  15.668  0.00  0.00    +0.000 A 
ATOM     27  C   UNL     1       5.367   6.036  15.753  0.00  0.00    +0.000 A 
ATOM     28  C   UNL     1       4.645   6.669  16.770  0.00  0.00    +0.000 A 
ATOM     29  C   UNL     1       3.949   5.927  17.740  0.00  0.00    +0.000 A 
BRANCH  24  31
ATOM     30  C   UNL     1       1.943   3.314  18.082  0.00  0.00    +0.000 C 
ATOM     31  O   UNL     1       3.199   3.808  18.542  0.00  0.00    +0.000 OA
ENDBRANCH  24  31
BRANCH  26  32
ATOM     32  O   UNL     1       6.034   3.928  14.707  0.00  0.00    +0.000 OA
BRANCH  32  33
ATOM     33  C   UNL     1       5.442   3.996  13.405  0.00  0.00    +0.000 C 
BRANCH  33  34
ATOM     34  C   UNL     1       6.451   3.463  12.382  0.00  0.00    +0.000 C 
BRANCH  34  35
ATOM     35  N   UNL     1       6.059   2.150  11.869  0.00  0.00    +0.000 NA
ATOM     36  H   UNL     1       5.596   1.621  12.607  0.00  0.00    +0.000 HD
ATOM     37  H   UNL     1       6.898   1.622  11.631  0.00  0.00    +0.000 HD
ENDBRANCH  34  35
ENDBRANCH  33  34
ENDBRANCH  32  33
ENDBRANCH  26  32
ENDBRANCH  22  29
ENDBRANCH  20  23
ENDBRANCH   1  20
TORSDOF 16
ENDMDL
