MODEL 1
REMARK VINA RESULT:      -7.2      0.000      0.000
REMARK  Name = 
REMARK  3 active torsions:
REMARK  status: ('A' for Active; 'I' for Inactive)
REMARK    1  A    between atoms: C_7  and  C_8
REMARK    2  A    between atoms: C_11  and  C_12
REMARK    3  A    between atoms: C_12  and  O_13
REMARK                            x       y       z     vdW  Elec       q    Type
REMARK                         _______ _______ _______ _____ _____    ______ ____
ROOT
ATOM      1  N   UNL     1       7.156   7.671  17.105  0.00  0.00    +0.000 N 
ATOM      2  C   UNL     1       6.580   6.456  16.784  0.00  0.00    +0.000 A 
ATOM      3  N   UNL     1       7.295   5.581  16.033  0.00  0.00    +0.000 NA
ATOM      4  C   UNL     1       6.746   4.369  15.713  0.00  0.00    +0.000 A 
ATOM      5  N   UNL     1       5.535   3.839  16.034  0.00  0.00    +0.000 NA
ATOM      6  C   UNL     1       4.807   4.699  16.786  0.00  0.00    +0.000 A 
ATOM      7  C   UNL     1       3.551   4.430  17.288  0.00  0.00    +0.000 A 
ATOM      8  S   UNL     1       2.947   5.839  18.105  0.00  0.00    +0.000 S 
ATOM      9  C   UNL     1       4.400   6.717  17.874  0.00  0.00    +0.000 A 
ATOM     10  C   UNL     1       5.308   5.992  17.144  0.00  0.00    +0.000 A 
ATOM     11  H   UNL     1       7.961   7.866  16.520  0.00  0.00    +0.000 HD
ATOM     12  H   UNL     1       6.528   8.441  17.280  0.00  0.00    +0.000 HD
ENDROOT
BRANCH   7  13
ATOM     13  C   UNL     1       2.674   3.204  17.160  0.00  0.00    +0.000 C 
ATOM     14  C   UNL     1       3.165   1.933  17.840  0.00  0.00    +0.000 C 
ATOM     15  C   UNL     1       2.657   2.087  19.251  0.00  0.00    +0.000 C 
ATOM     16  C   UNL     1       1.303   2.727  19.019  0.00  0.00    +0.000 C 
ATOM     17  O   UNL     1       1.412   3.504  17.806  0.00  0.00    +0.000 OA
BRANCH  16  18
ATOM     18  C   UNL     1       0.863   3.631  20.167  0.00  0.00    +0.000 C 
BRANCH  18  19
ATOM     19  O   UNL     1       1.223   3.043  21.416  0.00  0.00    +0.000 OA
ATOM     20  H   UNL     1       0.885   2.126  21.376  0.00  0.00    +0.000 HD
ENDBRANCH  18  19
ENDBRANCH  16  18
ENDBRANCH   7  13
TORSDOF 3
ENDMDL
MODEL 2
REMARK VINA RESULT:      -6.9      3.095      5.325
REMARK  Name = 
REMARK  3 active torsions:
REMARK  status: ('A' for Active; 'I' for Inactive)
REMARK    1  A    between atoms: C_7  and  C_8
REMARK    2  A    between atoms: C_11  and  C_12
REMARK    3  A    between atoms: C_12  and  O_13
REMARK                            x       y       z     vdW  Elec       q    Type
REMARK                         _______ _______ _______ _____ _____    ______ ____
ROOT
ATOM      1  N   UNL     1       0.540   3.284  20.452  0.00  0.00    +0.000 N 
ATOM      2  C   UNL     1       1.613   3.122  19.594  0.00  0.00    +0.000 A 
ATOM      3  N   UNL     1       2.009   1.861  19.289  0.00  0.00    +0.000 NA
ATOM      4  C   UNL     1       3.063   1.680  18.434  0.00  0.00    +0.000 A 
ATOM      5  N   UNL     1       3.837   2.591  17.786  0.00  0.00    +0.000 NA
ATOM      6  C   UNL     1       3.454   3.857  18.078  0.00  0.00    +0.000 A 
ATOM      7  C   UNL     1       4.031   4.992  17.548  0.00  0.00    +0.000 A 
ATOM      8  S   UNL     1       3.303   6.395  18.268  0.00  0.00    +0.000 S 
ATOM      9  C   UNL     1       2.174   5.470  19.165  0.00  0.00    +0.000 A 
ATOM     10  C   UNL     1       2.373   4.125  18.979  0.00  0.00    +0.000 A 
ATOM     11  H   UNL     1       0.334   2.427  20.953  0.00  0.00    +0.000 HD
ATOM     12  H   UNL     1       0.509   4.140  20.985  0.00  0.00    +0.000 HD
ENDROOT
BRANCH   7  13
ATOM     13  C   UNL     1       5.173   5.158  16.570  0.00  0.00    +0.000 C 
ATOM     14  C   UNL     1       5.502   6.579  16.132  0.00  0.00    +0.000 C 
ATOM     15  C   UNL     1       6.430   7.061  17.218  0.00  0.00    +0.000 C 
ATOM     16  C   UNL     1       7.237   5.812  17.505  0.00  0.00    +0.000 C 
ATOM     17  O   UNL     1       6.377   4.685  17.223  0.00  0.00    +0.000 OA
BRANCH  16  18
ATOM     18  C   UNL     1       7.725   5.733  18.950  0.00  0.00    +0.000 C 
BRANCH  18  19
ATOM     19  O   UNL     1       6.693   5.211  19.785  0.00  0.00    +0.000 OA
ATOM     20  H   UNL     1       5.950   5.009  19.182  0.00  0.00    +0.000 HD
ENDBRANCH  18  19
ENDBRANCH  16  18
ENDBRANCH   7  13
TORSDOF 3
ENDMDL
MODEL 3
REMARK VINA RESULT:      -6.8      3.371      5.391
REMARK  Name = 
REMARK  3 active torsions:
REMARK  status: ('A' for Active; 'I' for Inactive)
REMARK    1  A    between atoms: C_7  and  C_8
REMARK    2  A    between atoms: C_11  and  C_12
REMARK    3  A    between atoms: C_12  and  O_13
REMARK                            x       y       z     vdW  Elec       q    Type
REMARK                         _______ _______ _______ _____ _____    ______ ____
ROOT
ATOM      1  N   UNL     1       1.599   3.066  22.015  0.00  0.00    +0.000 N 
ATOM      2  C   UNL     1       2.664   3.037  21.133  0.00  0.00    +0.000 A 
ATOM      3  N   UNL     1       3.638   2.114  21.329  0.00  0.00    +0.000 NA
ATOM      4  C   UNL     1       4.695   2.062  20.461  0.00  0.00    +0.000 A 
ATOM      5  N   UNL     1       4.968   2.814  19.360  0.00  0.00    +0.000 NA
ATOM      6  C   UNL     1       4.003   3.741  19.148  0.00  0.00    +0.000 A 
ATOM      7  C   UNL     1       3.989   4.627  18.092  0.00  0.00    +0.000 A 
ATOM      8  S   UNL     1       2.632   5.698  18.262  0.00  0.00    +0.000 S 
ATOM      9  C   UNL     1       2.042   4.889  19.652  0.00  0.00    +0.000 A 
ATOM     10  C   UNL     1       2.878   3.867  20.024  0.00  0.00    +0.000 A 
ATOM     11  H   UNL     1       1.805   2.547  22.861  0.00  0.00    +0.000 HD
ATOM     12  H   UNL     1       1.127   3.950  22.129  0.00  0.00    +0.000 HD
ENDROOT
BRANCH   7  13
ATOM     13  C   UNL     1       4.961   4.825  16.950  0.00  0.00    +0.000 C 
ATOM     14  C   UNL     1       5.017   6.213  16.326  0.00  0.00    +0.000 C 
ATOM     15  C   UNL     1       5.991   6.944  17.216  0.00  0.00    +0.000 C 
ATOM     16  C   UNL     1       7.005   5.859  17.513  0.00  0.00    +0.000 C 
ATOM     17  O   UNL     1       6.294   4.601  17.473  0.00  0.00    +0.000 OA
BRANCH  16  18
ATOM     18  C   UNL     1       7.675   6.023  18.875  0.00  0.00    +0.000 C 
BRANCH  18  19
ATOM     19  O   UNL     1       7.010   5.219  19.847  0.00  0.00    +0.000 OA
ATOM     20  H   UNL     1       6.058   5.295  19.636  0.00  0.00    +0.000 HD
ENDBRANCH  18  19
ENDBRANCH  16  18
ENDBRANCH   7  13
TORSDOF 3
ENDMDL
MODEL 4
REMARK VINA RESULT:      -6.7      1.905      2.741
REMARK  Name = 
REMARK  3 active torsions:
REMARK  status: ('A' for Active; 'I' for Inactive)
REMARK    1  A    between atoms: C_7  and  C_8
REMARK    2  A    between atoms: C_11  and  C_12
REMARK    3  A    between atoms: C_12  and  O_13
REMARK                            x       y       z     vdW  Elec       q    Type
REMARK                         _______ _______ _______ _____ _____    ______ ____
ROOT
ATOM      1  N   UNL     1       7.359   5.676  15.510  0.00  0.00    +0.000 N 
ATOM      2  C   UNL     1       6.979   5.451  16.820  0.00  0.00    +0.000 A 
ATOM      3  N   UNL     1       7.702   6.031  17.810  0.00  0.00    +0.000 NA
ATOM      4  C   UNL     1       7.335   5.829  19.113  0.00  0.00    +0.000 A 
ATOM      5  N   UNL     1       6.308   5.106  19.636  0.00  0.00    +0.000 NA
ATOM      6  C   UNL     1       5.574   4.519  18.660  0.00  0.00    +0.000 A 
ATOM      7  C   UNL     1       4.452   3.749  18.881  0.00  0.00    +0.000 A 
ATOM      8  S   UNL     1       3.885   3.114  17.367  0.00  0.00    +0.000 S 
ATOM      9  C   UNL     1       5.062   3.966  16.458  0.00  0.00    +0.000 A 
ATOM     10  C   UNL     1       5.908   4.671  17.276  0.00  0.00    +0.000 A 
ATOM     11  H   UNL     1       8.299   6.054  15.456  0.00  0.00    +0.000 HD
ATOM     12  H   UNL     1       7.119   4.964  14.837  0.00  0.00    +0.000 HD
ENDROOT
BRANCH   7  13
ATOM     13  C   UNL     1       3.760   3.351  20.166  0.00  0.00    +0.000 C 
ATOM     14  C   UNL     1       2.943   4.427  20.869  0.00  0.00    +0.000 C 
ATOM     15  C   UNL     1       1.605   4.339  20.181  0.00  0.00    +0.000 C 
ATOM     16  C   UNL     1       1.464   2.844  19.979  0.00  0.00    +0.000 C 
ATOM     17  O   UNL     1       2.801   2.314  19.840  0.00  0.00    +0.000 OA
BRANCH  16  18
ATOM     18  C   UNL     1       0.640   2.482  18.746  0.00  0.00    +0.000 C 
BRANCH  18  19
ATOM     19  O   UNL     1       0.726   3.526  17.778  0.00  0.00    +0.000 OA
ATOM     20  H   UNL     1       0.700   3.075  16.910  0.00  0.00    +0.000 HD
ENDBRANCH  18  19
ENDBRANCH  16  18
ENDBRANCH   7  13
TORSDOF 3
ENDMDL
MODEL 5
REMARK VINA RESULT:      -6.5      3.686      4.882
REMARK  Name = 
REMARK  3 active torsions:
REMARK  status: ('A' for Active; 'I' for Inactive)
REMARK    1  A    between atoms: C_7  and  C_8
REMARK    2  A    between atoms: C_11  and  C_12
REMARK    3  A    between atoms: C_12  and  O_13
REMARK                            x       y       z     vdW  Elec       q    Type
REMARK                         _______ _______ _______ _____ _____    ______ ____
ROOT
ATOM      1  N   UNL     1       1.812  10.273  17.642  0.00  0.00    +0.000 N 
ATOM      2  C   UNL     1       1.697   9.352  18.667  0.00  0.00    +0.000 A 
ATOM      3  N   UNL     1       1.000   9.706  19.776  0.00  0.00    +0.000 NA
ATOM      4  C   UNL     1       0.866   8.805  20.797  0.00  0.00    +0.000 A 
ATOM      5  N   UNL     1       1.331   7.532  20.915  0.00  0.00    +0.000 NA
ATOM      6  C   UNL     1       2.030   7.161  19.815  0.00  0.00    +0.000 A 
ATOM      7  C   UNL     1       2.596   5.918  19.630  0.00  0.00    +0.000 A 
ATOM      8  S   UNL     1       3.479   5.907  18.134  0.00  0.00    +0.000 S 
ATOM      9  C   UNL     1       2.992   7.497  17.722  0.00  0.00    +0.000 A 
ATOM     10  C   UNL     1       2.227   8.056  18.715  0.00  0.00    +0.000 A 
ATOM     11  H   UNL     1       1.568  11.207  17.952  0.00  0.00    +0.000 HD
ATOM     12  H   UNL     1       2.623  10.192  17.046  0.00  0.00    +0.000 HD
ENDROOT
BRANCH   7  13
ATOM     13  C   UNL     1       2.617   4.696  20.521  0.00  0.00    +0.000 C 
ATOM     14  C   UNL     1       1.282   4.011  20.781  0.00  0.00    +0.000 C 
ATOM     15  C   UNL     1       1.141   3.085  19.600  0.00  0.00    +0.000 C 
ATOM     16  C   UNL     1       2.569   2.616  19.409  0.00  0.00    +0.000 C 
ATOM     17  O   UNL     1       3.424   3.690  19.859  0.00  0.00    +0.000 OA
BRANCH  16  18
ATOM     18  C   UNL     1       2.898   2.275  17.958  0.00  0.00    +0.000 C 
BRANCH  18  19
ATOM     19  O   UNL     1       4.041   1.424  17.904  0.00  0.00    +0.000 OA
ATOM     20  H   UNL     1       3.992   0.983  17.032  0.00  0.00    +0.000 HD
ENDBRANCH  18  19
ENDBRANCH  16  18
ENDBRANCH   7  13
TORSDOF 3
ENDMDL
MODEL 6
REMARK VINA RESULT:      -6.4      3.556      5.527
REMARK  Name = 
REMARK  3 active torsions:
REMARK  status: ('A' for Active; 'I' for Inactive)
REMARK    1  A    between atoms: C_7  and  C_8
REMARK    2  A    between atoms: C_11  and  C_12
REMARK    3  A    between atoms: C_12  and  O_13
REMARK                            x       y       z     vdW  Elec       q    Type
REMARK                         _______ _______ _______ _____ _____    ______ ____
ROOT
ATOM      1  N   UNL     1       0.777   4.067  20.585  0.00  0.00    +0.000 N 
ATOM      2  C   UNL     1       2.064   3.713  20.222  0.00  0.00    +0.000 A 
ATOM      3  N   UNL     1       2.644   2.660  20.850  0.00  0.00    +0.000 NA
ATOM      4  C   UNL     1       3.913   2.287  20.497  0.00  0.00    +0.000 A 
ATOM      5  N   UNL     1       4.757   2.809  19.568  0.00  0.00    +0.000 NA
ATOM      6  C   UNL     1       4.193   3.863  18.929  0.00  0.00    +0.000 A 
ATOM      7  C   UNL     1       4.796   4.577  17.915  0.00  0.00    +0.000 A 
ATOM      8  S   UNL     1       3.766   5.898  17.456  0.00  0.00    +0.000 S 
ATOM      9  C   UNL     1       2.512   5.421  18.521  0.00  0.00    +0.000 A 
ATOM     10  C   UNL     1       2.877   4.322  19.257  0.00  0.00    +0.000 A 
ATOM     11  H   UNL     1       0.512   3.645  21.468  0.00  0.00    +0.000 HD
ATOM     12  H   UNL     1       0.516   5.032  20.449  0.00  0.00    +0.000 HD
ENDROOT
BRANCH   7  13
ATOM     13  C   UNL     1       6.153   4.423  17.266  0.00  0.00    +0.000 C 
ATOM     14  C   UNL     1       6.599   5.540  16.331  0.00  0.00    +0.000 C 
ATOM     15  C   UNL     1       7.219   6.542  17.272  0.00  0.00    +0.000 C 
ATOM     16  C   UNL     1       7.911   5.635  18.268  0.00  0.00    +0.000 C 
ATOM     17  O   UNL     1       7.142   4.413  18.325  0.00  0.00    +0.000 OA
BRANCH  16  18
ATOM     18  C   UNL     1       8.008   6.243  19.665  0.00  0.00    +0.000 C 
BRANCH  18  19
ATOM     19  O   UNL     1       8.156   5.211  20.638  0.00  0.00    +0.000 OA
ATOM     20  H   UNL     1       8.999   5.405  21.093  0.00  0.00    +0.000 HD
ENDBRANCH  18  19
ENDBRANCH  16  18
ENDBRANCH   7  13
TORSDOF 3
ENDMDL
MODEL 7
REMARK VINA RESULT:      -6.4      3.573      6.078
REMARK  Name = 
REMARK  3 active torsions:
REMARK  status: ('A' for Active; 'I' for Inactive)
REMARK    1  A    between atoms: C_7  and  C_8
REMARK    2  A    between atoms: C_11  and  C_12
REMARK    3  A    between atoms: C_12  and  O_13
REMARK                            x       y       z     vdW  Elec       q    Type
REMARK                         _______ _______ _______ _____ _____    ______ ____
ROOT
ATOM      1  N   UNL     1       0.517   1.918  18.958  0.00  0.00    +0.000 N 
ATOM      2  C   UNL     1       1.344   2.980  19.273  0.00  0.00    +0.000 A 
ATOM      3  N   UNL     1       1.101   3.670  20.415  0.00  0.00    +0.000 NA
ATOM      4  C   UNL     1       1.915   4.718  20.749  0.00  0.00    +0.000 A 
ATOM      5  N   UNL     1       2.999   5.230  20.107  0.00  0.00    +0.000 NA
ATOM      6  C   UNL     1       3.258   4.551  18.964  0.00  0.00    +0.000 A 
ATOM      7  C   UNL     1       4.312   4.819  18.116  0.00  0.00    +0.000 A 
ATOM      8  S   UNL     1       4.209   3.781  16.727  0.00  0.00    +0.000 S 
ATOM      9  C   UNL     1       2.851   2.934  17.339  0.00  0.00    +0.000 A 
ATOM     10  C   UNL     1       2.439   3.456  18.540  0.00  0.00    +0.000 A 
ATOM     11  H   UNL     1      -0.339   1.940  19.502  0.00  0.00    +0.000 HD
ATOM     12  H   UNL     1       0.425   1.687  17.980  0.00  0.00    +0.000 HD
ENDROOT
BRANCH   7  13
ATOM     13  C   UNL     1       5.403   5.864  18.191  0.00  0.00    +0.000 C 
ATOM     14  C   UNL     1       6.691   5.465  18.899  0.00  0.00    +0.000 C 
ATOM     15  C   UNL     1       7.482   4.790  17.807  0.00  0.00    +0.000 C 
ATOM     16  C   UNL     1       7.138   5.649  16.607  0.00  0.00    +0.000 C 
ATOM     17  O   UNL     1       5.808   6.167  16.832  0.00  0.00    +0.000 OA
BRANCH  16  18
ATOM     18  C   UNL     1       7.170   4.878  15.290  0.00  0.00    +0.000 C 
BRANCH  18  19
ATOM     19  O   UNL     1       7.901   5.615  14.311  0.00  0.00    +0.000 OA
ATOM     20  H   UNL     1       7.479   5.397  13.457  0.00  0.00    +0.000 HD
ENDBRANCH  18  19
ENDBRANCH  16  18
ENDBRANCH   7  13
TORSDOF 3
ENDMDL
MODEL 8
REMARK VINA RESULT:      -6.3      1.703      2.490
REMARK  Name = 
REMARK  3 active torsions:
REMARK  status: ('A' for Active; 'I' for Inactive)
REMARK    1  A    between atoms: C_7  and  C_8
REMARK    2  A    between atoms: C_11  and  C_12
REMARK    3  A    between atoms: C_12  and  O_13
REMARK                            x       y       z     vdW  Elec       q    Type
REMARK                         _______ _______ _______ _____ _____    ______ ____
ROOT
ATOM      1  N   UNL     1       5.214   7.011  15.133  0.00  0.00    +0.000 N 
ATOM      2  C   UNL     1       5.017   6.022  16.079  0.00  0.00    +0.000 A 
ATOM      3  N   UNL     1       5.623   4.823  15.895  0.00  0.00    +0.000 NA
ATOM      4  C   UNL     1       5.448   3.834  16.826  0.00  0.00    +0.000 A 
ATOM      5  N   UNL     1       4.733   3.832  17.983  0.00  0.00    +0.000 NA
ATOM      6  C   UNL     1       4.122   5.024  18.185  0.00  0.00    +0.000 A 
ATOM      7  C   UNL     1       3.352   5.332  19.287  0.00  0.00    +0.000 A 
ATOM      8  S   UNL     1       2.681   6.922  19.090  0.00  0.00    +0.000 S 
ATOM      9  C   UNL     1       3.516   7.200  17.620  0.00  0.00    +0.000 A 
ATOM     10  C   UNL     1       4.243   6.098  17.245  0.00  0.00    +0.000 A 
ATOM     11  H   UNL     1       5.594   6.631  14.273  0.00  0.00    +0.000 HD
ATOM     12  H   UNL     1       4.486   7.703  15.039  0.00  0.00    +0.000 HD
ENDROOT
BRANCH   7  13
ATOM     13  C   UNL     1       2.981   4.506  20.498  0.00  0.00    +0.000 C 
ATOM     14  C   UNL     1       1.558   4.650  21.020  0.00  0.00    +0.000 C 
ATOM     15  C   UNL     1       0.788   3.666  20.177  0.00  0.00    +0.000 C 
ATOM     16  C   UNL     1       1.778   2.526  20.060  0.00  0.00    +0.000 C 
ATOM     17  O   UNL     1       3.098   3.111  20.125  0.00  0.00    +0.000 OA
BRANCH  16  18
ATOM     18  C   UNL     1       1.632   1.737  18.760  0.00  0.00    +0.000 C 
BRANCH  18  19
ATOM     19  O   UNL     1       2.920   1.406  18.244  0.00  0.00    +0.000 OA
ATOM     20  H   UNL     1       3.160   0.562  18.675  0.00  0.00    +0.000 HD
ENDBRANCH  18  19
ENDBRANCH  16  18
ENDBRANCH   7  13
TORSDOF 3
ENDMDL
MODEL 9
REMARK VINA RESULT:      -6.2      1.854      2.536
REMARK  Name = 
REMARK  3 active torsions:
REMARK  status: ('A' for Active; 'I' for Inactive)
REMARK    1  A    between atoms: C_7  and  C_8
REMARK    2  A    between atoms: C_11  and  C_12
REMARK    3  A    between atoms: C_12  and  O_13
REMARK                            x       y       z     vdW  Elec       q    Type
REMARK                         _______ _______ _______ _____ _____    ______ ____
ROOT
ATOM      1  N   UNL     1       6.767   7.411  16.691  0.00  0.00    +0.000 N 
ATOM      2  C   UNL     1       6.310   6.412  17.531  0.00  0.00    +0.000 A 
ATOM      3  N   UNL     1       7.172   5.429  17.891  0.00  0.00    +0.000 NA
ATOM      4  C   UNL     1       6.743   4.437  18.731  0.00  0.00    +0.000 A 
ATOM      5  N   UNL     1       5.530   4.241  19.314  0.00  0.00    +0.000 NA
ATOM      6  C   UNL     1       4.655   5.216  18.967  0.00  0.00    +0.000 A 
ATOM      7  C   UNL     1       3.358   5.303  19.425  0.00  0.00    +0.000 A 
ATOM      8  S   UNL     1       2.566   6.641  18.651  0.00  0.00    +0.000 S 
ATOM      9  C   UNL     1       3.986   7.133  17.828  0.00  0.00    +0.000 A 
ATOM     10  C   UNL     1       5.027   6.276  18.078  0.00  0.00    +0.000 A 
ATOM     11  H   UNL     1       7.634   7.147  16.238  0.00  0.00    +0.000 HD
ATOM     12  H   UNL     1       6.078   7.871  16.115  0.00  0.00    +0.000 HD
ENDROOT
BRANCH   7  13
ATOM     13  C   UNL     1       2.578   4.414  20.368  0.00  0.00    +0.000 C 
ATOM     14  C   UNL     1       1.110   4.181  20.038  0.00  0.00    +0.000 C 
ATOM     15  C   UNL     1       1.160   3.025  19.071  0.00  0.00    +0.000 C 
ATOM     16  C   UNL     1       2.275   2.185  19.660  0.00  0.00    +0.000 C 
ATOM     17  O   UNL     1       3.181   3.097  20.320  0.00  0.00    +0.000 OA
BRANCH  16  18
ATOM     18  C   UNL     1       3.037   1.381  18.609  0.00  0.00    +0.000 C 
BRANCH  18  19
ATOM     19  O   UNL     1       4.435   1.413  18.889  0.00  0.00    +0.000 OA
ATOM     20  H   UNL     1       4.758   2.245  18.490  0.00  0.00    +0.000 HD
ENDBRANCH  18  19
ENDBRANCH  16  18
ENDBRANCH   7  13
TORSDOF 3
ENDMDL
