MODEL 1
REMARK VINA RESULT:      -8.0      0.000      0.000
REMARK  Name = 
REMARK  2 active torsions:
REMARK  status: ('A' for Active; 'I' for Inactive)
REMARK    1  A    between atoms: C_2  and  C_3
REMARK    2  A    between atoms: N_18  and  C_19
REMARK                            x       y       z     vdW  Elec       q    Type
REMARK                         _______ _______ _______ _____ _____    ______ ____
ROOT
ATOM      1  C   UNL     1       5.111   5.954  17.160  0.00  0.00    +0.000 A 
ATOM      2  C   UNL     1       4.486   7.130  17.164  0.00  0.00    +0.000 A 
ATOM      3  C   UNL     1       3.358   7.290  18.048  0.00  0.00    +0.000 A 
ATOM      4  C   UNL     1       2.658   8.462  18.080  0.00  0.00    +0.000 A 
ATOM      5  N   UNL     1       1.642   8.664  18.917  0.00  0.00    +0.000 NA
ATOM      6  C   UNL     1       1.309   7.694  19.776  0.00  0.00    +0.000 A 
ATOM      7  N   UNL     1       0.340   7.951  20.741  0.00  0.00    +0.000 N 
ATOM      8  C   UNL     1      -0.029   9.188  21.265  0.00  0.00    +0.000 A 
ATOM      9  C   UNL     1       0.065  10.382  20.541  0.00  0.00    +0.000 A 
ATOM     10  C   UNL     1      -0.167  11.599  21.165  0.00  0.00    +0.000 A 
ATOM     11  C   UNL     1      -0.557  11.613  22.488  0.00  0.00    +0.000 A 
ATOM     12  C   UNL     1      -0.713  10.392  23.122  0.00  0.00    +0.000 A 
ATOM     13  N   UNL     1      -0.455   9.194  22.545  0.00  0.00    +0.000 NA
ATOM     14  N   UNL     1       1.912   6.493  19.782  0.00  0.00    +0.000 NA
ATOM     15  C   UNL     1       2.935   6.297  18.921  0.00  0.00    +0.000 A 
ATOM     16  N   UNL     1       3.617   5.040  18.890  0.00  0.00    +0.000 N 
ATOM     17  C   UNL     1       4.662   4.808  17.995  0.00  0.00    +0.000 A 
ATOM     18  O   UNL     1       5.235   3.728  17.865  0.00  0.00    +0.000 OA
ATOM     19  H   UNL     1       0.290   7.223  21.440  0.00  0.00    +0.000 HD
ENDROOT
BRANCH  16  20
ATOM     20  C   UNL     1       3.195   3.985  19.821  0.00  0.00    +0.000 C 
ATOM     21  C   UNL     1       2.664   4.485  21.167  0.00  0.00    +0.000 C 
ATOM     22  C   UNL     1       1.933   3.274  21.734  0.00  0.00    +0.000 C 
ATOM     23  C   UNL     1       1.419   2.484  20.532  0.00  0.00    +0.000 C 
ATOM     24  C   UNL     1       2.055   3.105  19.291  0.00  0.00    +0.000 C 
ENDBRANCH  16  20
BRANCH   1  26
ATOM     25  N   UNL     1       7.274   5.553  15.458  0.00  0.00    +0.000 NA
ATOM     26  C   UNL     1       6.293   5.735  16.230  0.00  0.00    +0.000 C 
ENDBRANCH   1  26
TORSDOF 2
ENDMDL
MODEL 2
REMARK VINA RESULT:      -7.8      1.310      1.669
REMARK  Name = 
REMARK  2 active torsions:
REMARK  status: ('A' for Active; 'I' for Inactive)
REMARK    1  A    between atoms: C_2  and  C_3
REMARK    2  A    between atoms: N_18  and  C_19
REMARK                            x       y       z     vdW  Elec       q    Type
REMARK                         _______ _______ _______ _____ _____    ______ ____
ROOT
ATOM      1  C   UNL     1       4.690   5.590  17.338  0.00  0.00    +0.000 A 
ATOM      2  C   UNL     1       4.444   6.869  17.058  0.00  0.00    +0.000 A 
ATOM      3  C   UNL     1       3.360   7.514  17.757  0.00  0.00    +0.000 A 
ATOM      4  C   UNL     1       3.040   8.816  17.496  0.00  0.00    +0.000 A 
ATOM      5  N   UNL     1       2.079   9.460  18.155  0.00  0.00    +0.000 NA
ATOM      6  C   UNL     1       1.417   8.818  19.125  0.00  0.00    +0.000 A 
ATOM      7  N   UNL     1       0.509   9.527  19.905  0.00  0.00    +0.000 N 
ATOM      8  C   UNL     1       0.491  10.898  20.153  0.00  0.00    +0.000 A 
ATOM      9  C   UNL     1       0.983  11.844  19.248  0.00  0.00    +0.000 A 
ATOM     10  C   UNL     1       1.084  13.178  19.614  0.00  0.00    +0.000 A 
ATOM     11  C   UNL     1       0.632  13.570  20.858  0.00  0.00    +0.000 A 
ATOM     12  C   UNL     1       0.079  12.597  21.673  0.00  0.00    +0.000 A 
ATOM     13  N   UNL     1       0.005  11.283  21.352  0.00  0.00    +0.000 NA
ATOM     14  N   UNL     1       1.633   7.525  19.416  0.00  0.00    +0.000 NA
ATOM     15  C   UNL     1       2.605   6.879  18.733  0.00  0.00    +0.000 A 
ATOM     16  N   UNL     1       2.882   5.503  19.007  0.00  0.00    +0.000 N 
ATOM     17  C   UNL     1       3.866   4.811  18.300  0.00  0.00    +0.000 A 
ATOM     18  O   UNL     1       4.099   3.611  18.433  0.00  0.00    +0.000 OA
ATOM     19  H   UNL     1       0.199   9.001  20.709  0.00  0.00    +0.000 HD
ENDROOT
BRANCH  16  20
ATOM     20  C   UNL     1       2.107   4.820  20.051  0.00  0.00    +0.000 C 
ATOM     21  C   UNL     1       1.187   3.705  19.546  0.00  0.00    +0.000 C 
ATOM     22  C   UNL     1       0.852   2.921  20.809  0.00  0.00    +0.000 C 
ATOM     23  C   UNL     1       2.057   3.069  21.736  0.00  0.00    +0.000 C 
ATOM     24  C   UNL     1       2.967   4.122  21.112  0.00  0.00    +0.000 C 
ENDBRANCH  16  20
BRANCH   1  26
ATOM     25  N   UNL     1       6.740   4.263  16.008  0.00  0.00    +0.000 NA
ATOM     26  C   UNL     1       5.810   4.865  16.611  0.00  0.00    +0.000 C 
ENDBRANCH   1  26
TORSDOF 2
ENDMDL
MODEL 3
REMARK VINA RESULT:      -7.7      1.165      1.491
REMARK  Name = 
REMARK  2 active torsions:
REMARK  status: ('A' for Active; 'I' for Inactive)
REMARK    1  A    between atoms: C_2  and  C_3
REMARK    2  A    between atoms: N_18  and  C_19
REMARK                            x       y       z     vdW  Elec       q    Type
REMARK                         _______ _______ _______ _____ _____    ______ ____
ROOT
ATOM      1  C   UNL     1       4.225   6.540  17.392  0.00  0.00    +0.000 A 
ATOM      2  C   UNL     1       3.738   7.774  17.275  0.00  0.00    +0.000 A 
ATOM      3  C   UNL     1       2.659   8.158  18.151  0.00  0.00    +0.000 A 
ATOM      4  C   UNL     1       2.097   9.400  18.063  0.00  0.00    +0.000 A 
ATOM      5  N   UNL     1       1.133   9.807  18.886  0.00  0.00    +0.000 NA
ATOM      6  C   UNL     1       0.715   8.980  19.852  0.00  0.00    +0.000 A 
ATOM      7  N   UNL     1      -0.193   9.451  20.795  0.00  0.00    +0.000 N 
ATOM      8  C   UNL     1      -0.405  10.772  21.184  0.00  0.00    +0.000 A 
ATOM      9  C   UNL     1      -0.195  11.861  20.332  0.00  0.00    +0.000 A 
ATOM     10  C   UNL     1      -0.271  13.158  20.821  0.00  0.00    +0.000 A 
ATOM     11  C   UNL     1      -0.622  13.359  22.140  0.00  0.00    +0.000 A 
ATOM     12  C   UNL     1      -0.899  12.240  22.906  0.00  0.00    +0.000 A 
ATOM     13  N   UNL     1      -0.794  10.965  22.462  0.00  0.00    +0.000 NA
ATOM     14  N   UNL     1       1.177   7.726  19.982  0.00  0.00    +0.000 NA
ATOM     15  C   UNL     1       2.149   7.321  19.134  0.00  0.00    +0.000 A 
ATOM     16  N   UNL     1       2.682   5.997  19.233  0.00  0.00    +0.000 N 
ATOM     17  C   UNL     1       3.670   5.551  18.354  0.00  0.00    +0.000 A 
ATOM     18  O   UNL     1       4.113   4.404  18.336  0.00  0.00    +0.000 OA
ATOM     19  H   UNL     1      -0.307   8.814  21.570  0.00  0.00    +0.000 HD
ENDROOT
BRANCH  16  20
ATOM     20  C   UNL     1       2.168   5.105  20.279  0.00  0.00    +0.000 C 
ATOM     21  C   UNL     1       1.085   4.125  19.818  0.00  0.00    +0.000 C 
ATOM     22  C   UNL     1       1.047   3.086  20.932  0.00  0.00    +0.000 C 
ATOM     23  C   UNL     1       2.459   3.029  21.512  0.00  0.00    +0.000 C 
ATOM     24  C   UNL     1       3.234   4.193  20.901  0.00  0.00    +0.000 C 
ENDBRANCH  16  20
BRANCH   1  26
ATOM     25  N   UNL     1       6.283   5.710  15.716  0.00  0.00    +0.000 NA
ATOM     26  C   UNL     1       5.350   6.086  16.476  0.00  0.00    +0.000 C 
ENDBRANCH   1  26
TORSDOF 2
ENDMDL
MODEL 4
REMARK VINA RESULT:      -7.4      2.495      7.569
REMARK  Name = 
REMARK  2 active torsions:
REMARK  status: ('A' for Active; 'I' for Inactive)
REMARK    1  A    between atoms: C_2  and  C_3
REMARK    2  A    between atoms: N_18  and  C_19
REMARK                            x       y       z     vdW  Elec       q    Type
REMARK                         _______ _______ _______ _____ _____    ______ ____
ROOT
ATOM      1  C   UNL     1       2.434   7.649  18.970  0.00  0.00    +0.000 A 
ATOM      2  C   UNL     1       3.355   7.962  18.060  0.00  0.00    +0.000 A 
ATOM      3  C   UNL     1       4.068   6.883  17.425  0.00  0.00    +0.000 A 
ATOM      4  C   UNL     1       5.043   7.138  16.503  0.00  0.00    +0.000 A 
ATOM      5  N   UNL     1       5.689   6.168  15.860  0.00  0.00    +0.000 NA
ATOM      6  C   UNL     1       5.355   4.895  16.105  0.00  0.00    +0.000 A 
ATOM      7  N   UNL     1       5.931   3.888  15.338  0.00  0.00    +0.000 N 
ATOM      8  C   UNL     1       6.458   3.995  14.052  0.00  0.00    +0.000 A 
ATOM      9  C   UNL     1       7.022   5.175  13.555  0.00  0.00    +0.000 A 
ATOM     10  C   UNL     1       7.386   5.269  12.219  0.00  0.00    +0.000 A 
ATOM     11  C   UNL     1       7.246   4.163  11.406  0.00  0.00    +0.000 A 
ATOM     12  C   UNL     1       6.760   3.002  11.981  0.00  0.00    +0.000 A 
ATOM     13  N   UNL     1       6.363   2.898  13.272  0.00  0.00    +0.000 NA
ATOM     14  N   UNL     1       4.442   4.551  17.028  0.00  0.00    +0.000 NA
ATOM     15  C   UNL     1       3.801   5.545  17.682  0.00  0.00    +0.000 A 
ATOM     16  N   UNL     1       2.814   5.235  18.670  0.00  0.00    +0.000 N 
ATOM     17  C   UNL     1       2.154   6.244  19.372  0.00  0.00    +0.000 A 
ATOM     18  O   UNL     1       1.356   6.044  20.285  0.00  0.00    +0.000 OA
ATOM     19  H   UNL     1       5.487   2.992  15.482  0.00  0.00    +0.000 HD
ENDROOT
BRANCH  16  20
ATOM     20  C   UNL     1       2.505   3.825  18.941  0.00  0.00    +0.000 C 
ATOM     21  C   UNL     1       2.283   3.485  20.417  0.00  0.00    +0.000 C 
ATOM     22  C   UNL     1       1.588   2.129  20.370  0.00  0.00    +0.000 C 
ATOM     23  C   UNL     1       0.794   2.101  19.065  0.00  0.00    +0.000 C 
ATOM     24  C   UNL     1       1.222   3.326  18.262  0.00  0.00    +0.000 C 
ENDBRANCH  16  20
BRANCH   1  26
ATOM     25  N   UNL     1       1.039   9.674  20.268  0.00  0.00    +0.000 NA
ATOM     26  C   UNL     1       1.671   8.756  19.679  0.00  0.00    +0.000 C 
ENDBRANCH   1  26
TORSDOF 2
ENDMDL
MODEL 5
REMARK VINA RESULT:      -6.9      3.574      8.733
REMARK  Name = 
REMARK  2 active torsions:
REMARK  status: ('A' for Active; 'I' for Inactive)
REMARK    1  A    between atoms: C_2  and  C_3
REMARK    2  A    between atoms: N_18  and  C_19
REMARK                            x       y       z     vdW  Elec       q    Type
REMARK                         _______ _______ _______ _____ _____    ______ ____
ROOT
ATOM      1  C   UNL     1      -0.761  12.686  22.646  0.00  0.00    +0.000 A 
ATOM      2  C   UNL     1      -0.965  11.372  22.729  0.00  0.00    +0.000 A 
ATOM      3  C   UNL     1      -0.256  10.522  21.805  0.00  0.00    +0.000 A 
ATOM      4  C   UNL     1      -0.442   9.169  21.820  0.00  0.00    +0.000 A 
ATOM      5  N   UNL     1       0.231   8.348  21.016  0.00  0.00    +0.000 NA
ATOM      6  C   UNL     1       1.140   8.862  20.179  0.00  0.00    +0.000 A 
ATOM      7  N   UNL     1       1.938   7.997  19.437  0.00  0.00    +0.000 N 
ATOM      8  C   UNL     1       2.273   6.679  19.742  0.00  0.00    +0.000 A 
ATOM      9  C   UNL     1       1.444   5.833  20.485  0.00  0.00    +0.000 A 
ATOM     10  C   UNL     1       1.897   4.586  20.890  0.00  0.00    +0.000 A 
ATOM     11  C   UNL     1       3.150   4.166  20.494  0.00  0.00    +0.000 A 
ATOM     12  C   UNL     1       3.886   5.018  19.689  0.00  0.00    +0.000 A 
ATOM     13  N   UNL     1       3.480   6.254  19.313  0.00  0.00    +0.000 NA
ATOM     14  N   UNL     1       1.353  10.183  20.064  0.00  0.00    +0.000 NA
ATOM     15  C   UNL     1       0.656  11.007  20.878  0.00  0.00    +0.000 A 
ATOM     16  N   UNL     1       0.850  12.422  20.803  0.00  0.00    +0.000 N 
ATOM     17  C   UNL     1       0.127  13.294  21.619  0.00  0.00    +0.000 A 
ATOM     18  O   UNL     1       0.189  14.519  21.549  0.00  0.00    +0.000 OA
ATOM     19  H   UNL     1       2.699   8.476  18.976  0.00  0.00    +0.000 HD
ENDROOT
BRANCH  16  20
ATOM     20  C   UNL     1       1.826  12.952  19.842  0.00  0.00    +0.000 C 
ATOM     21  C   UNL     1       1.248  13.908  18.795  0.00  0.00    +0.000 C 
ATOM     22  C   UNL     1       2.481  14.607  18.232  0.00  0.00    +0.000 C 
ATOM     23  C   UNL     1       3.504  14.646  19.365  0.00  0.00    +0.000 C 
ATOM     24  C   UNL     1       2.956  13.767  20.486  0.00  0.00    +0.000 C 
ENDBRANCH  16  20
BRANCH   1  26
ATOM     25  N   UNL     1      -2.117  14.398  24.368  0.00  0.00    +0.000 NA
ATOM     26  C   UNL     1      -1.502  13.622  23.587  0.00  0.00    +0.000 C 
ENDBRANCH   1  26
TORSDOF 2
ENDMDL
MODEL 6
REMARK VINA RESULT:      -6.8      1.459      1.684
REMARK  Name = 
REMARK  2 active torsions:
REMARK  status: ('A' for Active; 'I' for Inactive)
REMARK    1  A    between atoms: C_2  and  C_3
REMARK    2  A    between atoms: N_18  and  C_19
REMARK                            x       y       z     vdW  Elec       q    Type
REMARK                         _______ _______ _______ _____ _____    ______ ____
ROOT
ATOM      1  C   UNL     1       5.589   5.768  16.159  0.00  0.00    +0.000 A 
ATOM      2  C   UNL     1       5.005   6.957  16.295  0.00  0.00    +0.000 A 
ATOM      3  C   UNL     1       3.913   7.067  17.230  0.00  0.00    +0.000 A 
ATOM      4  C   UNL     1       3.255   8.253  17.396  0.00  0.00    +0.000 A 
ATOM      5  N   UNL     1       2.275   8.406  18.284  0.00  0.00    +0.000 NA
ATOM      6  C   UNL     1       1.938   7.370  19.061  0.00  0.00    +0.000 A 
ATOM      7  N   UNL     1       1.011   7.565  20.080  0.00  0.00    +0.000 N 
ATOM      8  C   UNL     1       0.702   8.758  20.730  0.00  0.00    +0.000 A 
ATOM      9  C   UNL     1       0.813  10.011  20.118  0.00  0.00    +0.000 A 
ATOM     10  C   UNL     1       0.643  11.171  20.860  0.00  0.00    +0.000 A 
ATOM     11  C   UNL     1       0.298  11.072  22.192  0.00  0.00    +0.000 A 
ATOM     12  C   UNL     1       0.122   9.802  22.715  0.00  0.00    +0.000 A 
ATOM     13  N   UNL     1       0.318   8.656  22.020  0.00  0.00    +0.000 NA
ATOM     14  N   UNL     1       2.499   6.156  18.933  0.00  0.00    +0.000 NA
ATOM     15  C   UNL     1       3.485   6.010  18.021  0.00  0.00    +0.000 A 
ATOM     16  N   UNL     1       4.122   4.741  17.849  0.00  0.00    +0.000 N 
ATOM     17  C   UNL     1       5.129   4.562  16.899  0.00  0.00    +0.000 A 
ATOM     18  O   UNL     1       5.659   3.482  16.648  0.00  0.00    +0.000 OA
ATOM     19  H   UNL     1       0.958   6.777  20.709  0.00  0.00    +0.000 HD
ENDROOT
BRANCH  16  20
ATOM     20  C   UNL     1       3.696   3.617  18.692  0.00  0.00    +0.000 C 
ATOM     21  C   UNL     1       3.352   2.333  17.930  0.00  0.00    +0.000 C 
ATOM     22  C   UNL     1       3.363   1.262  19.014  0.00  0.00    +0.000 C 
ATOM     23  C   UNL     1       4.372   1.726  20.063  0.00  0.00    +0.000 C 
ATOM     24  C   UNL     1       4.754   3.160  19.704  0.00  0.00    +0.000 C 
ENDBRANCH  16  20
BRANCH   1  26
ATOM     25  N   UNL     1       7.679   5.462  14.350  0.00  0.00    +0.000 NA
ATOM     26  C   UNL     1       6.732   5.601  15.170  0.00  0.00    +0.000 C 
ENDBRANCH   1  26
TORSDOF 2
ENDMDL
MODEL 7
REMARK VINA RESULT:      -6.8      2.526      7.634
REMARK  Name = 
REMARK  2 active torsions:
REMARK  status: ('A' for Active; 'I' for Inactive)
REMARK    1  A    between atoms: C_2  and  C_3
REMARK    2  A    between atoms: N_18  and  C_19
REMARK                            x       y       z     vdW  Elec       q    Type
REMARK                         _______ _______ _______ _____ _____    ______ ____
ROOT
ATOM      1  C   UNL     1       2.415   7.671  18.962  0.00  0.00    +0.000 A 
ATOM      2  C   UNL     1       3.304   7.990  18.024  0.00  0.00    +0.000 A 
ATOM      3  C   UNL     1       4.045   6.918  17.406  0.00  0.00    +0.000 A 
ATOM      4  C   UNL     1       4.991   7.181  16.457  0.00  0.00    +0.000 A 
ATOM      5  N   UNL     1       5.659   6.216  15.829  0.00  0.00    +0.000 NA
ATOM      6  C   UNL     1       5.379   4.940  16.121  0.00  0.00    +0.000 A 
ATOM      7  N   UNL     1       5.977   3.930  15.373  0.00  0.00    +0.000 N 
ATOM      8  C   UNL     1       6.472   4.017  14.074  0.00  0.00    +0.000 A 
ATOM      9  C   UNL     1       6.981   5.200  13.528  0.00  0.00    +0.000 A 
ATOM     10  C   UNL     1       7.314   5.265  12.182  0.00  0.00    +0.000 A 
ATOM     11  C   UNL     1       7.200   4.130  11.406  0.00  0.00    +0.000 A 
ATOM     12  C   UNL     1       6.770   2.970  12.028  0.00  0.00    +0.000 A 
ATOM     13  N   UNL     1       6.404   2.892  13.330  0.00  0.00    +0.000 NA
ATOM     14  N   UNL     1       4.499   4.591  17.074  0.00  0.00    +0.000 NA
ATOM     15  C   UNL     1       3.834   5.581  17.710  0.00  0.00    +0.000 A 
ATOM     16  N   UNL     1       2.880   5.265  18.729  0.00  0.00    +0.000 N 
ATOM     17  C   UNL     1       2.197   6.271  19.413  0.00  0.00    +0.000 A 
ATOM     18  O   UNL     1       1.426   6.070  20.350  0.00  0.00    +0.000 OA
ATOM     19  H   UNL     1       5.570   3.024  15.554  0.00  0.00    +0.000 HD
ENDROOT
BRANCH  16  20
ATOM     20  C   UNL     1       2.630   3.854  19.049  0.00  0.00    +0.000 C 
ATOM     21  C   UNL     1       1.672   3.135  18.095  0.00  0.00    +0.000 C 
ATOM     22  C   UNL     1       1.919   1.659  18.387  0.00  0.00    +0.000 C 
ATOM     23  C   UNL     1       3.376   1.551  18.831  0.00  0.00    +0.000 C 
ATOM     24  C   UNL     1       3.887   2.976  19.024  0.00  0.00    +0.000 C 
ENDBRANCH  16  20
BRANCH   1  26
ATOM     25  N   UNL     1       0.971   9.684  20.227  0.00  0.00    +0.000 NA
ATOM     26  C   UNL     1       1.625   8.771  19.654  0.00  0.00    +0.000 C 
ENDBRANCH   1  26
TORSDOF 2
ENDMDL
MODEL 8
REMARK VINA RESULT:      -6.7      8.573     10.242
REMARK  Name = 
REMARK  2 active torsions:
REMARK  status: ('A' for Active; 'I' for Inactive)
REMARK    1  A    between atoms: C_2  and  C_3
REMARK    2  A    between atoms: N_18  and  C_19
REMARK                            x       y       z     vdW  Elec       q    Type
REMARK                         _______ _______ _______ _____ _____    ______ ____
ROOT
ATOM      1  C   UNL     1       9.718  16.850  19.762  0.00  0.00    +0.000 A 
ATOM      2  C   UNL     1       8.508  17.390  19.626  0.00  0.00    +0.000 A 
ATOM      3  C   UNL     1       7.462  16.565  19.074  0.00  0.00    +0.000 A 
ATOM      4  C   UNL     1       6.206  17.067  18.883  0.00  0.00    +0.000 A 
ATOM      5  N   UNL     1       5.202  16.323  18.422  0.00  0.00    +0.000 NA
ATOM      6  C   UNL     1       5.424  15.030  18.158  0.00  0.00    +0.000 A 
ATOM      7  N   UNL     1       4.348  14.220  17.807  0.00  0.00    +0.000 N 
ATOM      8  C   UNL     1       3.004  14.412  18.118  0.00  0.00    +0.000 A 
ATOM      9  C   UNL     1       2.437  15.676  18.309  0.00  0.00    +0.000 A 
ATOM     10  C   UNL     1       1.135  15.798  18.771  0.00  0.00    +0.000 A 
ATOM     11  C   UNL     1       0.385  14.658  18.975  0.00  0.00    +0.000 A 
ATOM     12  C   UNL     1       0.979  13.441  18.687  0.00  0.00    +0.000 A 
ATOM     13  N   UNL     1       2.260  13.296  18.272  0.00  0.00    +0.000 NA
ATOM     14  N   UNL     1       6.637  14.465  18.271  0.00  0.00    +0.000 NA
ATOM     15  C   UNL     1       7.650  15.234  18.730  0.00  0.00    +0.000 A 
ATOM     16  N   UNL     1       8.961  14.681  18.876  0.00  0.00    +0.000 N 
ATOM     17  C   UNL     1      10.026  15.461  19.329  0.00  0.00    +0.000 A 
ATOM     18  O   UNL     1      11.189  15.069  19.402  0.00  0.00    +0.000 OA
ATOM     19  H   UNL     1       4.591  13.240  17.800  0.00  0.00    +0.000 HD
ENDROOT
BRANCH  16  20
ATOM     20  C   UNL     1       9.174  13.268  18.537  0.00  0.00    +0.000 C 
ATOM     21  C   UNL     1      10.293  13.009  17.523  0.00  0.00    +0.000 C 
ATOM     22  C   UNL     1      10.574  11.519  17.676  0.00  0.00    +0.000 C 
ATOM     23  C   UNL     1      10.251  11.170  19.127  0.00  0.00    +0.000 C 
ATOM     24  C   UNL     1       9.565  12.391  19.733  0.00  0.00    +0.000 C 
ENDBRANCH  16  20
BRANCH   1  26
ATOM     25  N   UNL     1      11.799  18.385  20.785  0.00  0.00    +0.000 NA
ATOM     26  C   UNL     1      10.856  17.689  20.321  0.00  0.00    +0.000 C 
ENDBRANCH   1  26
TORSDOF 2
ENDMDL
MODEL 9
REMARK VINA RESULT:      -6.6      6.235      8.999
REMARK  Name = 
REMARK  2 active torsions:
REMARK  status: ('A' for Active; 'I' for Inactive)
REMARK    1  A    between atoms: C_2  and  C_3
REMARK    2  A    between atoms: N_18  and  C_19
REMARK                            x       y       z     vdW  Elec       q    Type
REMARK                         _______ _______ _______ _____ _____    ______ ____
ROOT
ATOM      1  C   UNL     1      -3.763  10.940  16.436  0.00  0.00    +0.000 A 
ATOM      2  C   UNL     1      -4.901  11.424  16.932  0.00  0.00    +0.000 A 
ATOM      3  C   UNL     1      -4.898  11.879  18.300  0.00  0.00    +0.000 A 
ATOM      4  C   UNL     1      -6.039  12.361  18.877  0.00  0.00    +0.000 A 
ATOM      5  N   UNL     1      -6.064  12.836  20.120  0.00  0.00    +0.000 NA
ATOM      6  C   UNL     1      -4.927  12.867  20.824  0.00  0.00    +0.000 A 
ATOM      7  N   UNL     1      -4.922  13.486  22.071  0.00  0.00    +0.000 N 
ATOM      8  C   UNL     1      -5.783  14.481  22.528  0.00  0.00    +0.000 A 
ATOM      9  C   UNL     1      -7.102  14.614  22.080  0.00  0.00    +0.000 A 
ATOM     10  C   UNL     1      -7.860  15.715  22.451  0.00  0.00    +0.000 A 
ATOM     11  C   UNL     1      -7.320  16.641  23.319  0.00  0.00    +0.000 A 
ATOM     12  C   UNL     1      -6.040  16.406  23.791  0.00  0.00    +0.000 A 
ATOM     13  N   UNL     1      -5.268  15.359  23.413  0.00  0.00    +0.000 NA
ATOM     14  N   UNL     1      -3.770  12.371  20.354  0.00  0.00    +0.000 NA
ATOM     15  C   UNL     1      -3.760  11.882  19.094  0.00  0.00    +0.000 A 
ATOM     16  N   UNL     1      -2.553  11.348  18.541  0.00  0.00    +0.000 N 
ATOM     17  C   UNL     1      -2.524  10.819  17.250  0.00  0.00    +0.000 A 
ATOM     18  O   UNL     1      -1.543  10.276  16.747  0.00  0.00    +0.000 OA
ATOM     19  H   UNL     1      -3.988  13.607  22.436  0.00  0.00    +0.000 HD
ENDROOT
BRANCH  16  20
ATOM     20  C   UNL     1      -1.335  11.361  19.360  0.00  0.00    +0.000 C 
ATOM     21  C   UNL     1      -0.633  10.006  19.496  0.00  0.00    +0.000 C 
ATOM     22  C   UNL     1       0.756  10.373  20.002  0.00  0.00    +0.000 C 
ATOM     23  C   UNL     1       1.062  11.761  19.442  0.00  0.00    +0.000 C 
ATOM     24  C   UNL     1      -0.232  12.282  18.823  0.00  0.00    +0.000 C 
ENDBRANCH  16  20
BRANCH   1  26
ATOM     25  N   UNL     1      -3.694  10.007  13.817  0.00  0.00    +0.000 NA
ATOM     26  C   UNL     1      -3.725  10.430  15.005  0.00  0.00    +0.000 C 
ENDBRANCH   1  26
TORSDOF 2
ENDMDL
