MODEL 1
REMARK VINA RESULT:      -9.2      0.000      0.000
REMARK  Name = 
REMARK  3 active torsions:
REMARK  status: ('A' for Active; 'I' for Inactive)
REMARK    1  A    between atoms: C_2  and  C_21
REMARK    2  A    between atoms: N_3  and  C_4
REMARK    3  A    between atoms: C_4  and  C_5
REMARK                            x       y       z     vdW  Elec       q    Type
REMARK                         _______ _______ _______ _____ _____    ______ ____
ROOT
ATOM      1  C   UNL     1       2.033   6.015  20.316  0.00  0.00    +0.000 C 
ATOM      2  O   UNL     1       1.119   5.363  20.814  0.00  0.00    +0.000 OA
ATOM      3  N   UNL     1       3.074   5.453  19.572  0.00  0.00    +0.000 N 
ATOM      4  C   UNL     1       3.921   6.415  18.910  0.00  0.00    +0.000 C 
ATOM      5  C   UNL     1       4.928   5.695  18.122  0.00  0.00    +0.000 C 
ATOM      6  C   UNL     1       5.768   4.428  18.121  0.00  0.00    +0.000 C 
ATOM      7  C   UNL     1       4.750   3.377  18.714  0.00  0.00    +0.000 C 
ATOM      8  C   UNL     1       3.288   3.958  19.279  0.00  0.00    +0.000 C 
ATOM      9  N   UNL     1       7.031   4.735  18.930  0.00  0.00    +0.000 NA
ATOM     10  C   UNL     1       7.493   6.144  18.647  0.00  0.00    +0.000 C 
ATOM     11  C   UNL     1       7.517   6.597  17.142  0.00  0.00    +0.000 C 
ATOM     12  C   UNL     1       7.012   5.493  16.258  0.00  0.00    +0.000 A 
ATOM     13  N   UNL     1       6.944   5.457  14.900  0.00  0.00    +0.000 N 
ATOM     14  C   UNL     1       6.289   4.295  14.576  0.00  0.00    +0.000 A 
ATOM     15  N   UNL     1       5.853   3.646  15.641  0.00  0.00    +0.000 NA
ATOM     16  C   UNL     1       6.266   4.404  16.694  0.00  0.00    +0.000 A 
ATOM     17  H   UNL     1       7.762   4.092  18.620  0.00  0.00    +0.000 HD
ATOM     18  H   UNL     1       7.228   6.184  14.257  0.00  0.00    +0.000 HD
ENDROOT
BRANCH   1  19
ATOM     19  C   UNL     1       2.079   7.590  20.434  0.00  0.00    +0.000 C 
BRANCH  19  22
ATOM     20  O   UNL     1       2.070   9.678  18.505  0.00  0.00    +0.000 OA
ATOM     21  C   UNL     1       1.001   9.304  19.029  0.00  0.00    +0.000 C 
ATOM     22  N   UNL     1       0.913   8.237  19.912  0.00  0.00    +0.000 N 
ATOM     23  H   UNL     1       0.038   7.874  20.245  0.00  0.00    +0.000 HD
BRANCH  21  24
ATOM     24  C   UNL     1      -0.294   9.993  18.752  0.00  0.00    +0.000 A 
ATOM     25  C   UNL     1      -0.809  10.885  19.696  0.00  0.00    +0.000 A 
ATOM     26  C   UNL     1      -2.024  11.536  19.456  0.00  0.00    +0.000 A 
ATOM     27  C   UNL     1      -2.743  11.309  18.272  0.00  0.00    +0.000 A 
ATOM     28  C   UNL     1      -3.961  11.956  18.003  0.00  0.00    +0.000 A 
ATOM     29  C   UNL     1      -4.658  11.716  16.819  0.00  0.00    +0.000 A 
ATOM     30  C   UNL     1      -4.154  10.822  15.883  0.00  0.00    +0.000 A 
ATOM     31  C   UNL     1      -2.948  10.163  16.132  0.00  0.00    +0.000 A 
ATOM     32  C   UNL     1      -2.238  10.396  17.318  0.00  0.00    +0.000 A 
ATOM     33  C   UNL     1      -1.028   9.741  17.574  0.00  0.00    +0.000 A 
ENDBRANCH  21  24
ENDBRANCH  19  22
ENDBRANCH   1  19
TORSDOF 3
ENDMDL
MODEL 2
REMARK VINA RESULT:      -8.8      3.786     10.561
REMARK  Name = 
REMARK  3 active torsions:
REMARK  status: ('A' for Active; 'I' for Inactive)
REMARK    1  A    between atoms: C_2  and  C_21
REMARK    2  A    between atoms: N_3  and  C_4
REMARK    3  A    between atoms: C_4  and  C_5
REMARK                            x       y       z     vdW  Elec       q    Type
REMARK                         _______ _______ _______ _____ _____    ______ ____
ROOT
ATOM      1  C   UNL     1      -0.553  10.655  18.984  0.00  0.00    +0.000 C 
ATOM      2  O   UNL     1      -0.803  10.148  17.894  0.00  0.00    +0.000 OA
ATOM      3  N   UNL     1      -1.477  11.398  19.725  0.00  0.00    +0.000 N 
ATOM      4  C   UNL     1      -1.043  11.724  21.062  0.00  0.00    +0.000 C 
ATOM      5  C   UNL     1      -2.122  12.448  21.745  0.00  0.00    +0.000 C 
ATOM      6  C   UNL     1      -3.253  13.433  21.492  0.00  0.00    +0.000 C 
ATOM      7  C   UNL     1      -3.788  12.940  20.090  0.00  0.00    +0.000 C 
ATOM      8  C   UNL     1      -2.918  11.744  19.312  0.00  0.00    +0.000 C 
ATOM      9  N   UNL     1      -2.644  14.834  21.573  0.00  0.00    +0.000 NA
ATOM     10  C   UNL     1      -1.611  14.884  22.674  0.00  0.00    +0.000 C 
ATOM     11  C   UNL     1      -2.002  14.226  24.047  0.00  0.00    +0.000 C 
ATOM     12  C   UNL     1      -3.374  13.620  23.963  0.00  0.00    +0.000 A 
ATOM     13  N   UNL     1      -4.102  13.027  24.947  0.00  0.00    +0.000 N 
ATOM     14  C   UNL     1      -5.225  12.518  24.344  0.00  0.00    +0.000 A 
ATOM     15  N   UNL     1      -5.205  12.666  23.031  0.00  0.00    +0.000 NA
ATOM     16  C   UNL     1      -4.037  13.318  22.779  0.00  0.00    +0.000 A 
ATOM     17  H   UNL     1      -3.394  15.485  21.812  0.00  0.00    +0.000 HD
ATOM     18  H   UNL     1      -3.828  12.895  25.912  0.00  0.00    +0.000 HD
ENDROOT
BRANCH   1  19
ATOM     19  C   UNL     1       0.851  10.459  19.681  0.00  0.00    +0.000 C 
BRANCH  19  22
ATOM     20  O   UNL     1       2.462   8.904  17.931  0.00  0.00    +0.000 OA
ATOM     21  C   UNL     1       1.933   8.377  18.931  0.00  0.00    +0.000 C 
ATOM     22  N   UNL     1       1.206   9.086  19.875  0.00  0.00    +0.000 N 
ATOM     23  H   UNL     1       0.875   8.676  20.731  0.00  0.00    +0.000 HD
BRANCH  21  24
ATOM     24  C   UNL     1       2.032   6.910  19.191  0.00  0.00    +0.000 A 
ATOM     25  C   UNL     1       1.847   6.433  20.491  0.00  0.00    +0.000 A 
ATOM     26  C   UNL     1       1.942   5.063  20.756  0.00  0.00    +0.000 A 
ATOM     27  C   UNL     1       2.220   4.147  19.729  0.00  0.00    +0.000 A 
ATOM     28  C   UNL     1       2.312   2.765  19.967  0.00  0.00    +0.000 A 
ATOM     29  C   UNL     1       2.587   1.873  18.929  0.00  0.00    +0.000 A 
ATOM     30  C   UNL     1       2.781   2.345  17.638  0.00  0.00    +0.000 A 
ATOM     31  C   UNL     1       2.700   3.715  17.380  0.00  0.00    +0.000 A 
ATOM     32  C   UNL     1       2.423   4.621  18.413  0.00  0.00    +0.000 A 
ATOM     33  C   UNL     1       2.339   5.995  18.162  0.00  0.00    +0.000 A 
ENDBRANCH  21  24
ENDBRANCH  19  22
ENDBRANCH   1  19
TORSDOF 3
ENDMDL
MODEL 3
REMARK VINA RESULT:      -8.7      3.663     10.481
REMARK  Name = 
REMARK  3 active torsions:
REMARK  status: ('A' for Active; 'I' for Inactive)
REMARK    1  A    between atoms: C_2  and  C_21
REMARK    2  A    between atoms: N_3  and  C_4
REMARK    3  A    between atoms: C_4  and  C_5
REMARK                            x       y       z     vdW  Elec       q    Type
REMARK                         _______ _______ _______ _____ _____    ______ ____
ROOT
ATOM      1  C   UNL     1      -0.555  10.446  18.913  0.00  0.00    +0.000 C 
ATOM      2  O   UNL     1      -0.819   9.878  17.857  0.00  0.00    +0.000 OA
ATOM      3  N   UNL     1      -1.477  11.208  19.637  0.00  0.00    +0.000 N 
ATOM      4  C   UNL     1      -1.020  11.612  20.945  0.00  0.00    +0.000 C 
ATOM      5  C   UNL     1      -2.098  12.348  21.615  0.00  0.00    +0.000 C 
ATOM      6  C   UNL     1      -3.256  13.294  21.340  0.00  0.00    +0.000 C 
ATOM      7  C   UNL     1      -3.812  12.719  19.978  0.00  0.00    +0.000 C 
ATOM      8  C   UNL     1      -2.935  11.502  19.242  0.00  0.00    +0.000 C 
ATOM      9  N   UNL     1      -2.676  14.711  21.333  0.00  0.00    +0.000 NA
ATOM     10  C   UNL     1      -1.619  14.839  22.405  0.00  0.00    +0.000 C 
ATOM     11  C   UNL     1      -1.964  14.245  23.819  0.00  0.00    +0.000 C 
ATOM     12  C   UNL     1      -3.324  13.607  23.799  0.00  0.00    +0.000 A 
ATOM     13  N   UNL     1      -4.015  13.052  24.830  0.00  0.00    +0.000 N 
ATOM     14  C   UNL     1      -5.141  12.489  24.282  0.00  0.00    +0.000 A 
ATOM     15  N   UNL     1      -5.155  12.568  22.963  0.00  0.00    +0.000 NA
ATOM     16  C   UNL     1      -4.007  13.231  22.650  0.00  0.00    +0.000 A 
ATOM     17  H   UNL     1      -3.435  15.357  21.557  0.00  0.00    +0.000 HD
ATOM     18  H   UNL     1      -3.716  12.976  25.794  0.00  0.00    +0.000 HD
ENDROOT
BRANCH   1  19
ATOM     19  C   UNL     1       0.869  10.316  19.585  0.00  0.00    +0.000 C 
BRANCH  19  22
ATOM     20  O   UNL     1       2.525   9.722  17.353  0.00  0.00    +0.000 OA
ATOM     21  C   UNL     1       2.237   8.829  18.176  0.00  0.00    +0.000 C 
ATOM     22  N   UNL     1       1.508   9.060  19.332  0.00  0.00    +0.000 N 
ATOM     23  H   UNL     1       1.371   8.361  20.042  0.00  0.00    +0.000 HD
BRANCH  21  24
ATOM     24  C   UNL     1       2.653   7.409  17.973  0.00  0.00    +0.000 A 
ATOM     25  C   UNL     1       3.906   7.137  17.419  0.00  0.00    +0.000 A 
ATOM     26  C   UNL     1       4.311   5.813  17.216  0.00  0.00    +0.000 A 
ATOM     27  C   UNL     1       3.474   4.741  17.564  0.00  0.00    +0.000 A 
ATOM     28  C   UNL     1       3.860   3.403  17.379  0.00  0.00    +0.000 A 
ATOM     29  C   UNL     1       3.012   2.353  17.733  0.00  0.00    +0.000 A 
ATOM     30  C   UNL     1       1.762   2.621  18.275  0.00  0.00    +0.000 A 
ATOM     31  C   UNL     1       1.355   3.943  18.462  0.00  0.00    +0.000 A 
ATOM     32  C   UNL     1       2.198   5.007  18.111  0.00  0.00    +0.000 A 
ATOM     33  C   UNL     1       1.798   6.335  18.297  0.00  0.00    +0.000 A 
ENDBRANCH  21  24
ENDBRANCH  19  22
ENDBRANCH   1  19
TORSDOF 3
ENDMDL
MODEL 4
REMARK VINA RESULT:      -8.7      0.742      1.463
REMARK  Name = 
REMARK  3 active torsions:
REMARK  status: ('A' for Active; 'I' for Inactive)
REMARK    1  A    between atoms: C_2  and  C_21
REMARK    2  A    between atoms: N_3  and  C_4
REMARK    3  A    between atoms: C_4  and  C_5
REMARK                            x       y       z     vdW  Elec       q    Type
REMARK                         _______ _______ _______ _____ _____    ______ ____
ROOT
ATOM      1  C   UNL     1       2.047   6.514  20.166  0.00  0.00    +0.000 C 
ATOM      2  O   UNL     1       1.143   5.949  20.776  0.00  0.00    +0.000 OA
ATOM      3  N   UNL     1       3.078   5.840  19.505  0.00  0.00    +0.000 N 
ATOM      4  C   UNL     1       3.912   6.685  18.685  0.00  0.00    +0.000 C 
ATOM      5  C   UNL     1       4.909   5.849  18.006  0.00  0.00    +0.000 C 
ATOM      6  C   UNL     1       5.753   4.597  18.194  0.00  0.00    +0.000 C 
ATOM      7  C   UNL     1       4.746   3.655  18.963  0.00  0.00    +0.000 C 
ATOM      8  C   UNL     1       3.292   4.317  19.451  0.00  0.00    +0.000 C 
ATOM      9  N   UNL     1       7.027   5.030  18.924  0.00  0.00    +0.000 NA
ATOM     10  C   UNL     1       7.481   6.377  18.412  0.00  0.00    +0.000 C 
ATOM     11  C   UNL     1       7.479   6.584  16.853  0.00  0.00    +0.000 C 
ATOM     12  C   UNL     1       6.964   5.352  16.165  0.00  0.00    +0.000 A 
ATOM     13  N   UNL     1       6.876   5.100  14.832  0.00  0.00    +0.000 N 
ATOM     14  C   UNL     1       6.218   3.901  14.708  0.00  0.00    +0.000 A 
ATOM     15  N   UNL     1       5.801   3.430  15.869  0.00  0.00    +0.000 NA
ATOM     16  C   UNL     1       6.228   4.347  16.781  0.00  0.00    +0.000 A 
ATOM     17  H   UNL     1       7.755   4.347  18.708  0.00  0.00    +0.000 HD
ATOM     18  H   UNL     1       7.147   5.715  14.076  0.00  0.00    +0.000 HD
ENDROOT
BRANCH   1  19
ATOM     19  C   UNL     1       2.090   8.087  20.030  0.00  0.00    +0.000 C 
BRANCH  19  22
ATOM     20  O   UNL     1       0.994  10.690  20.348  0.00  0.00    +0.000 OA
ATOM     21  C   UNL     1       0.470   9.881  19.557  0.00  0.00    +0.000 C 
ATOM     22  N   UNL     1       0.995   8.627  19.283  0.00  0.00    +0.000 N 
ATOM     23  H   UNL     1       0.629   8.025  18.567  0.00  0.00    +0.000 HD
BRANCH  21  24
ATOM     24  C   UNL     1      -0.797  10.199  18.832  0.00  0.00    +0.000 A 
ATOM     25  C   UNL     1      -1.010   9.660  17.561  0.00  0.00    +0.000 A 
ATOM     26  C   UNL     1      -2.188   9.951  16.864  0.00  0.00    +0.000 A 
ATOM     27  C   UNL     1      -3.171  10.782  17.424  0.00  0.00    +0.000 A 
ATOM     28  C   UNL     1      -4.366  11.084  16.749  0.00  0.00    +0.000 A 
ATOM     29  C   UNL     1      -5.330  11.911  17.326  0.00  0.00    +0.000 A 
ATOM     30  C   UNL     1      -5.116  12.456  18.586  0.00  0.00    +0.000 A 
ATOM     31  C   UNL     1      -3.933  12.175  19.272  0.00  0.00    +0.000 A 
ATOM     32  C   UNL     1      -2.957  11.344  18.703  0.00  0.00    +0.000 A 
ATOM     33  C   UNL     1      -1.770  11.057  19.386  0.00  0.00    +0.000 A 
ENDBRANCH  21  24
ENDBRANCH  19  22
ENDBRANCH   1  19
TORSDOF 3
ENDMDL
MODEL 5
REMARK VINA RESULT:      -8.7      4.635      8.540
REMARK  Name = 
REMARK  3 active torsions:
REMARK  status: ('A' for Active; 'I' for Inactive)
REMARK    1  A    between atoms: C_2  and  C_21
REMARK    2  A    between atoms: N_3  and  C_4
REMARK    3  A    between atoms: C_4  and  C_5
REMARK                            x       y       z     vdW  Elec       q    Type
REMARK                         _______ _______ _______ _____ _____    ______ ____
ROOT
ATOM      1  C   UNL     1       7.470   4.896  17.914  0.00  0.00    +0.000 C 
ATOM      2  O   UNL     1       8.182   4.554  16.973  0.00  0.00    +0.000 OA
ATOM      3  N   UNL     1       6.080   4.752  17.929  0.00  0.00    +0.000 N 
ATOM      4  C   UNL     1       5.466   5.026  19.206  0.00  0.00    +0.000 C 
ATOM      5  C   UNL     1       4.023   4.780  19.099  0.00  0.00    +0.000 C 
ATOM      6  C   UNL     1       2.860   4.872  18.123  0.00  0.00    +0.000 C 
ATOM      7  C   UNL     1       3.547   4.421  16.775  0.00  0.00    +0.000 C 
ATOM      8  C   UNL     1       5.203   4.194  16.794  0.00  0.00    +0.000 C 
ATOM      9  N   UNL     1       2.324   6.303  18.208  0.00  0.00    +0.000 NA
ATOM     10  C   UNL     1       2.363   6.783  19.640  0.00  0.00    +0.000 C 
ATOM     11  C   UNL     1       1.838   5.787  20.738  0.00  0.00    +0.000 C 
ATOM     12  C   UNL     1       1.424   4.488  20.109  0.00  0.00    +0.000 A 
ATOM     13  N   UNL     1       0.852   3.404  20.699  0.00  0.00    +0.000 N 
ATOM     14  C   UNL     1       0.791   2.428  19.735  0.00  0.00    +0.000 A 
ATOM     15  N   UNL     1       1.374   2.792  18.608  0.00  0.00    +0.000 NA
ATOM     16  C   UNL     1       1.806   4.062  18.843  0.00  0.00    +0.000 A 
ATOM     17  H   UNL     1       1.349   6.288  17.905  0.00  0.00    +0.000 HD
ATOM     18  H   UNL     1       0.612   3.298  21.675  0.00  0.00    +0.000 HD
ENDROOT
BRANCH   1  19
ATOM     19  C   UNL     1       8.088   5.494  19.240  0.00  0.00    +0.000 C 
BRANCH  19  22
ATOM     20  O   UNL     1       7.799   7.164  16.958  0.00  0.00    +0.000 OA
ATOM     21  C   UNL     1       8.098   7.659  18.065  0.00  0.00    +0.000 C 
ATOM     22  N   UNL     1       8.172   6.923  19.237  0.00  0.00    +0.000 N 
ATOM     23  H   UNL     1       8.308   7.344  20.140  0.00  0.00    +0.000 HD
BRANCH  21  24
ATOM     24  C   UNL     1       8.416   9.110  18.217  0.00  0.00    +0.000 A 
ATOM     25  C   UNL     1       7.819  10.034  17.356  0.00  0.00    +0.000 A 
ATOM     26  C   UNL     1       8.109  11.397  17.479  0.00  0.00    +0.000 A 
ATOM     27  C   UNL     1       8.996  11.859  18.464  0.00  0.00    +0.000 A 
ATOM     28  C   UNL     1       9.298  13.224  18.615  0.00  0.00    +0.000 A 
ATOM     29  C   UNL     1      10.182  13.660  19.602  0.00  0.00    +0.000 A 
ATOM     30  C   UNL     1      10.784  12.743  20.453  0.00  0.00    +0.000 A 
ATOM     31  C   UNL     1      10.504  11.382  20.317  0.00  0.00    +0.000 A 
ATOM     32  C   UNL     1       9.617  10.931  19.330  0.00  0.00    +0.000 A 
ATOM     33  C   UNL     1       9.330   9.568  19.189  0.00  0.00    +0.000 A 
ENDBRANCH  21  24
ENDBRANCH  19  22
ENDBRANCH   1  19
TORSDOF 3
ENDMDL
MODEL 6
REMARK VINA RESULT:      -8.7      2.107      2.855
REMARK  Name = 
REMARK  3 active torsions:
REMARK  status: ('A' for Active; 'I' for Inactive)
REMARK    1  A    between atoms: C_2  and  C_21
REMARK    2  A    between atoms: N_3  and  C_4
REMARK    3  A    between atoms: C_4  and  C_5
REMARK                            x       y       z     vdW  Elec       q    Type
REMARK                         _______ _______ _______ _____ _____    ______ ____
ROOT
ATOM      1  C   UNL     1       1.996   6.565  20.063  0.00  0.00    +0.000 C 
ATOM      2  O   UNL     1       1.063   6.016  20.642  0.00  0.00    +0.000 OA
ATOM      3  N   UNL     1       3.019   5.874  19.407  0.00  0.00    +0.000 N 
ATOM      4  C   UNL     1       3.895   6.710  18.623  0.00  0.00    +0.000 C 
ATOM      5  C   UNL     1       4.879   5.858  17.945  0.00  0.00    +0.000 C 
ATOM      6  C   UNL     1       5.681   4.578  18.121  0.00  0.00    +0.000 C 
ATOM      7  C   UNL     1       4.630   3.650  18.849  0.00  0.00    +0.000 C 
ATOM      8  C   UNL     1       3.187   4.347  19.323  0.00  0.00    +0.000 C 
ATOM      9  N   UNL     1       6.952   4.955  18.885  0.00  0.00    +0.000 NA
ATOM     10  C   UNL     1       7.458   6.297  18.413  0.00  0.00    +0.000 C 
ATOM     11  C   UNL     1       7.494   6.538  16.859  0.00  0.00    +0.000 C 
ATOM     12  C   UNL     1       6.955   5.338  16.134  0.00  0.00    +0.000 A 
ATOM     13  N   UNL     1       6.886   5.118  14.794  0.00  0.00    +0.000 N 
ATOM     14  C   UNL     1       6.195   3.943  14.630  0.00  0.00    +0.000 A 
ATOM     15  N   UNL     1       5.740   3.461  15.773  0.00  0.00    +0.000 NA
ATOM     16  C   UNL     1       6.177   4.344  16.713  0.00  0.00    +0.000 A 
ATOM     17  H   UNL     1       7.663   4.254  18.669  0.00  0.00    +0.000 HD
ATOM     18  H   UNL     1       7.191   5.741  14.057  0.00  0.00    +0.000 HD
ENDROOT
BRANCH   1  19
ATOM     19  C   UNL     1       2.091   8.139  19.963  0.00  0.00    +0.000 C 
BRANCH  19  22
ATOM     20  O   UNL     1       1.056  10.671  19.189  0.00  0.00    +0.000 OA
ATOM     21  C   UNL     1       0.604  10.090  20.197  0.00  0.00    +0.000 C 
ATOM     22  N   UNL     1       0.996   8.819  20.588  0.00  0.00    +0.000 N 
ATOM     23  H   UNL     1       0.552   8.315  21.336  0.00  0.00    +0.000 HD
BRANCH  21  24
ATOM     24  C   UNL     1      -0.407  10.733  21.087  0.00  0.00    +0.000 A 
ATOM     25  C   UNL     1      -0.463  10.368  22.434  0.00  0.00    +0.000 A 
ATOM     26  C   UNL     1      -1.407  10.955  23.283  0.00  0.00    +0.000 A 
ATOM     27  C   UNL     1      -2.310  11.917  22.801  0.00  0.00    +0.000 A 
ATOM     28  C   UNL     1      -3.263  12.528  23.634  0.00  0.00    +0.000 A 
ATOM     29  C   UNL     1      -4.148  13.483  23.134  0.00  0.00    +0.000 A 
ATOM     30  C   UNL     1      -4.102  13.842  21.793  0.00  0.00    +0.000 A 
ATOM     31  C   UNL     1      -3.167  13.243  20.946  0.00  0.00    +0.000 A 
ATOM     32  C   UNL     1      -2.271  12.283  21.436  0.00  0.00    +0.000 A 
ATOM     33  C   UNL     1      -1.331  11.679  20.594  0.00  0.00    +0.000 A 
ENDBRANCH  21  24
ENDBRANCH  19  22
ENDBRANCH   1  19
TORSDOF 3
ENDMDL
MODEL 7
REMARK VINA RESULT:      -8.6      3.681     10.629
REMARK  Name = 
REMARK  3 active torsions:
REMARK  status: ('A' for Active; 'I' for Inactive)
REMARK    1  A    between atoms: C_2  and  C_21
REMARK    2  A    between atoms: N_3  and  C_4
REMARK    3  A    between atoms: C_4  and  C_5
REMARK                            x       y       z     vdW  Elec       q    Type
REMARK                         _______ _______ _______ _____ _____    ______ ____
ROOT
ATOM      1  C   UNL     1      -0.912  10.706  18.599  0.00  0.00    +0.000 C 
ATOM      2  O   UNL     1      -1.258  10.217  17.527  0.00  0.00    +0.000 OA
ATOM      3  N   UNL     1      -1.766  11.433  19.433  0.00  0.00    +0.000 N 
ATOM      4  C   UNL     1      -1.213  11.738  20.731  0.00  0.00    +0.000 C 
ATOM      5  C   UNL     1      -2.227  12.446  21.521  0.00  0.00    +0.000 C 
ATOM      6  C   UNL     1      -3.379  13.431  21.389  0.00  0.00    +0.000 C 
ATOM      7  C   UNL     1      -4.037  12.961  20.033  0.00  0.00    +0.000 C 
ATOM      8  C   UNL     1      -3.239  11.781  19.159  0.00  0.00    +0.000 C 
ATOM      9  N   UNL     1      -2.768  14.833  21.439  0.00  0.00    +0.000 NA
ATOM     10  C   UNL     1      -1.640  14.868  22.443  0.00  0.00    +0.000 C 
ATOM     11  C   UNL     1      -1.903  14.185  23.834  0.00  0.00    +0.000 C 
ATOM     12  C   UNL     1      -3.276  13.575  23.863  0.00  0.00    +0.000 A 
ATOM     13  N   UNL     1      -3.910  12.963  24.899  0.00  0.00    +0.000 N 
ATOM     14  C   UNL     1      -5.082  12.460  24.391  0.00  0.00    +0.000 A 
ATOM     15  N   UNL     1      -5.182  12.630  23.085  0.00  0.00    +0.000 NA
ATOM     16  C   UNL     1      -4.043  13.292  22.740  0.00  0.00    +0.000 A 
ATOM     17  H   UNL     1      -3.495  15.476  21.757  0.00  0.00    +0.000 HD
ATOM     18  H   UNL     1      -3.550  12.816  25.833  0.00  0.00    +0.000 HD
ENDROOT
BRANCH   1  19
ATOM     19  C   UNL     1       0.550  10.504  19.162  0.00  0.00    +0.000 C 
BRANCH  19  22
ATOM     20  O   UNL     1       1.449   8.396  20.844  0.00  0.00    +0.000 OA
ATOM     21  C   UNL     1       1.652   8.347  19.614  0.00  0.00    +0.000 C 
ATOM     22  N   UNL     1       1.171   9.292  18.720  0.00  0.00    +0.000 N 
ATOM     23  H   UNL     1       1.246   9.189  17.724  0.00  0.00    +0.000 HD
BRANCH  21  24
ATOM     24  C   UNL     1       2.455   7.251  18.993  0.00  0.00    +0.000 A 
ATOM     25  C   UNL     1       2.396   5.968  19.540  0.00  0.00    +0.000 A 
ATOM     26  C   UNL     1       3.145   4.929  18.976  0.00  0.00    +0.000 A 
ATOM     27  C   UNL     1       3.962   5.155  17.857  0.00  0.00    +0.000 A 
ATOM     28  C   UNL     1       4.718   4.128  17.265  0.00  0.00    +0.000 A 
ATOM     29  C   UNL     1       5.522   4.376  16.153  0.00  0.00    +0.000 A 
ATOM     30  C   UNL     1       5.590   5.654  15.613  0.00  0.00    +0.000 A 
ATOM     31  C   UNL     1       4.852   6.691  16.188  0.00  0.00    +0.000 A 
ATOM     32  C   UNL     1       4.040   6.455  17.305  0.00  0.00    +0.000 A 
ATOM     33  C   UNL     1       3.297   7.488  17.886  0.00  0.00    +0.000 A 
ENDBRANCH  21  24
ENDBRANCH  19  22
ENDBRANCH   1  19
TORSDOF 3
ENDMDL
MODEL 8
REMARK VINA RESULT:      -8.6      1.322      2.395
REMARK  Name = 
REMARK  3 active torsions:
REMARK  status: ('A' for Active; 'I' for Inactive)
REMARK    1  A    between atoms: C_2  and  C_21
REMARK    2  A    between atoms: N_3  and  C_4
REMARK    3  A    between atoms: C_4  and  C_5
REMARK                            x       y       z     vdW  Elec       q    Type
REMARK                         _______ _______ _______ _____ _____    ______ ____
ROOT
ATOM      1  C   UNL     1       1.862   5.921  20.238  0.00  0.00    +0.000 C 
ATOM      2  O   UNL     1       0.838   5.347  20.598  0.00  0.00    +0.000 OA
ATOM      3  N   UNL     1       2.813   5.352  19.386  0.00  0.00    +0.000 N 
ATOM      4  C   UNL     1       3.829   6.269  18.929  0.00  0.00    +0.000 C 
ATOM      5  C   UNL     1       4.721   5.563  18.003  0.00  0.00    +0.000 C 
ATOM      6  C   UNL     1       5.334   4.197  17.735  0.00  0.00    +0.000 C 
ATOM      7  C   UNL     1       4.136   3.238  18.107  0.00  0.00    +0.000 C 
ATOM      8  C   UNL     1       2.779   3.934  18.791  0.00  0.00    +0.000 C 
ATOM      9  N   UNL     1       6.608   4.112  18.580  0.00  0.00    +0.000 NA
ATOM     10  C   UNL     1       7.310   5.449  18.589  0.00  0.00    +0.000 C 
ATOM     11  C   UNL     1       7.451   6.188  17.208  0.00  0.00    +0.000 C 
ATOM     12  C   UNL     1       6.791   5.390  16.120  0.00  0.00    +0.000 A 
ATOM     13  N   UNL     1       6.757   5.644  14.784  0.00  0.00    +0.000 N 
ATOM     14  C   UNL     1       5.923   4.702  14.234  0.00  0.00    +0.000 A 
ATOM     15  N   UNL     1       5.354   3.934  15.147  0.00  0.00    +0.000 NA
ATOM     16  C   UNL     1       5.860   4.380  16.330  0.00  0.00    +0.000 A 
ATOM     17  H   UNL     1       7.228   3.431  18.138  0.00  0.00    +0.000 HD
ATOM     18  H   UNL     1       7.177   6.427  14.302  0.00  0.00    +0.000 HD
ENDROOT
BRANCH   1  19
ATOM     19  C   UNL     1       2.171   7.407  20.676  0.00  0.00    +0.000 C 
BRANCH  19  22
ATOM     20  O   UNL     1       1.788   9.390  18.676  0.00  0.00    +0.000 OA
ATOM     21  C   UNL     1       0.969   9.276  19.612  0.00  0.00    +0.000 C 
ATOM     22  N   UNL     1       1.041   8.280  20.574  0.00  0.00    +0.000 N 
ATOM     23  H   UNL     1       0.321   8.128  21.259  0.00  0.00    +0.000 HD
BRANCH  21  24
ATOM     24  C   UNL     1      -0.171  10.226  19.779  0.00  0.00    +0.000 A 
ATOM     25  C   UNL     1      -0.977  10.526  18.679  0.00  0.00    +0.000 A 
ATOM     26  C   UNL     1      -2.046  11.418  18.815  0.00  0.00    +0.000 A 
ATOM     27  C   UNL     1      -2.329  12.022  20.050  0.00  0.00    +0.000 A 
ATOM     28  C   UNL     1      -3.402  12.915  20.216  0.00  0.00    +0.000 A 
ATOM     29  C   UNL     1      -3.665  13.502  21.454  0.00  0.00    +0.000 A 
ATOM     30  C   UNL     1      -2.859  13.213  22.547  0.00  0.00    +0.000 A 
ATOM     31  C   UNL     1      -1.784  12.333  22.404  0.00  0.00    +0.000 A 
ATOM     32  C   UNL     1      -1.510  11.736  21.166  0.00  0.00    +0.000 A 
ATOM     33  C   UNL     1      -0.435  10.852  21.015  0.00  0.00    +0.000 A 
ENDBRANCH  21  24
ENDBRANCH  19  22
ENDBRANCH   1  19
TORSDOF 3
ENDMDL
MODEL 9
REMARK VINA RESULT:      -8.6      6.068      9.106
REMARK  Name = 
REMARK  3 active torsions:
REMARK  status: ('A' for Active; 'I' for Inactive)
REMARK    1  A    between atoms: C_2  and  C_21
REMARK    2  A    between atoms: N_3  and  C_4
REMARK    3  A    between atoms: C_4  and  C_5
REMARK                            x       y       z     vdW  Elec       q    Type
REMARK                         _______ _______ _______ _____ _____    ______ ____
ROOT
ATOM      1  C   UNL     1       8.498   9.019  18.491  0.00  0.00    +0.000 C 
ATOM      2  O   UNL     1       8.990   8.030  19.029  0.00  0.00    +0.000 OA
ATOM      3  N   UNL     1       8.930  10.327  18.728  0.00  0.00    +0.000 N 
ATOM      4  C   UNL     1       8.358  11.313  17.842  0.00  0.00    +0.000 C 
ATOM      5  C   UNL     1       8.937  12.624  18.158  0.00  0.00    +0.000 C 
ATOM      6  C   UNL     1       9.460  13.456  19.319  0.00  0.00    +0.000 C 
ATOM      7  C   UNL     1      10.202  12.359  20.179  0.00  0.00    +0.000 C 
ATOM      8  C   UNL     1      10.036  10.766  19.703  0.00  0.00    +0.000 C 
ATOM      9  N   UNL     1       8.249  14.155  19.941  0.00  0.00    +0.000 NA
ATOM     10  C   UNL     1       7.292  14.589  18.857  0.00  0.00    +0.000 C 
ATOM     11  C   UNL     1       7.916  15.292  17.596  0.00  0.00    +0.000 C 
ATOM     12  C   UNL     1       9.412  15.352  17.720  0.00  0.00    +0.000 A 
ATOM     13  N   UNL     1      10.309  15.941  16.885  0.00  0.00    +0.000 N 
ATOM     14  C   UNL     1      11.554  15.607  17.358  0.00  0.00    +0.000 A 
ATOM     15  N   UNL     1      11.500  14.767  18.376  0.00  0.00    +0.000 NA
ATOM     16  C   UNL     1      10.168  14.572  18.586  0.00  0.00    +0.000 A 
ATOM     17  H   UNL     1       8.587  14.991  20.420  0.00  0.00    +0.000 HD
ATOM     18  H   UNL     1      10.108  16.441  16.029  0.00  0.00    +0.000 HD
ENDROOT
BRANCH   1  19
ATOM     19  C   UNL     1       7.345   8.886  17.420  0.00  0.00    +0.000 C 
BRANCH  19  22
ATOM     20  O   UNL     1       7.421   6.271  16.308  0.00  0.00    +0.000 OA
ATOM     21  C   UNL     1       6.482   6.607  17.057  0.00  0.00    +0.000 C 
ATOM     22  N   UNL     1       6.419   7.832  17.705  0.00  0.00    +0.000 N 
ATOM     23  H   UNL     1       5.717   8.053  18.389  0.00  0.00    +0.000 HD
BRANCH  21  24
ATOM     24  C   UNL     1       5.321   5.704  17.315  0.00  0.00    +0.000 A 
ATOM     25  C   UNL     1       5.080   4.637  16.447  0.00  0.00    +0.000 A 
ATOM     26  C   UNL     1       3.994   3.783  16.669  0.00  0.00    +0.000 A 
ATOM     27  C   UNL     1       3.133   3.979  17.761  0.00  0.00    +0.000 A 
ATOM     28  C   UNL     1       2.040   3.132  18.011  0.00  0.00    +0.000 A 
ATOM     29  C   UNL     1       1.199   3.346  19.103  0.00  0.00    +0.000 A 
ATOM     30  C   UNL     1       1.431   4.412  19.963  0.00  0.00    +0.000 A 
ATOM     31  C   UNL     1       2.507   5.270  19.730  0.00  0.00    +0.000 A 
ATOM     32  C   UNL     1       3.360   5.066  18.636  0.00  0.00    +0.000 A 
ATOM     33  C   UNL     1       4.442   5.921  18.397  0.00  0.00    +0.000 A 
ENDBRANCH  21  24
ENDBRANCH  19  22
ENDBRANCH   1  19
TORSDOF 3
ENDMDL
