MODEL 1
REMARK VINA RESULT:      -8.4      0.000      0.000
REMARK  Name = 
REMARK  5 active torsions:
REMARK  status: ('A' for Active; 'I' for Inactive)
REMARK    1  A    between atoms: C_1  and  C_2
REMARK    2  A    between atoms: C_2  and  S_3
REMARK    3  A    between atoms: C_2  and  C_15
REMARK    4  A    between atoms: S_3  and  C_4
REMARK    5  A    between atoms: C_6  and  O_7
REMARK                            x       y       z     vdW  Elec       q    Type
REMARK                         _______ _______ _______ _____ _____    ______ ____
ROOT
ATOM      1  C   UNL     1       1.887   2.409  21.691  0.00  0.00    +0.000 C 
ATOM      2  C   UNL     1       2.606   3.262  20.649  0.00  0.00    +0.000 C 
ENDROOT
BRANCH   2   3
ATOM      3  C   UNL     1       1.900   4.601  20.438  0.00  0.00    +0.000 C 
ATOM      4  O   UNL     1       0.694   4.735  20.648  0.00  0.00    +0.000 OA
ATOM      5  N   UNL     1       2.734   5.643  20.076  0.00  0.00    +0.000 N 
ATOM      6  C   UNL     1       2.225   6.920  19.834  0.00  0.00    +0.000 A 
ATOM      7  C   UNL     1       1.396   7.551  20.758  0.00  0.00    +0.000 A 
ATOM      8  C   UNL     1       0.929   8.834  20.480  0.00  0.00    +0.000 A 
ATOM      9  C   UNL     1       1.274   9.423  19.272  0.00  0.00    +0.000 A 
ATOM     10 BR   UNL     1       0.662  11.152  18.838  0.00  0.00    +0.000 Br
ATOM     11  C   UNL     1       2.094   8.718  18.405  0.00  0.00    +0.000 A 
ATOM     12  N   UNL     1       2.616   7.496  18.680  0.00  0.00    +0.000 NA
ATOM     13  H   UNL     1       3.520   5.397  19.486  0.00  0.00    +0.000 HD
ENDBRANCH   2   3
BRANCH   2  14
ATOM     14  S   UNL     1       2.935   2.362  19.088  0.00  0.00    +0.000 S 
BRANCH  14  15
ATOM     15  C   UNL     1       4.158   3.375  18.296  0.00  0.00    +0.000 A 
ATOM     16  N   UNL     1       4.160   3.467  16.959  0.00  0.00    +0.000 NA
ATOM     17  C   UNL     1       5.065   4.306  16.450  0.00  0.00    +0.000 A 
ATOM     18  C   UNL     1       5.960   5.071  17.167  0.00  0.00    +0.000 A 
ATOM     19  C   UNL     1       5.879   4.884  18.537  0.00  0.00    +0.000 A 
ATOM     20  N   UNL     1       4.978   4.059  19.107  0.00  0.00    +0.000 NA
ATOM     21  C   UNL     1       6.765   5.664  19.477  0.00  0.00    +0.000 C 
ATOM     22  C   UNL     1       8.020   6.207  18.796  0.00  0.00    +0.000 C 
ATOM     23  C   UNL     1       7.645   6.923  17.502  0.00  0.00    +0.000 C 
ATOM     24  C   UNL     1       6.980   5.955  16.522  0.00  0.00    +0.000 C 
BRANCH  17  25
ATOM     25  O   UNL     1       5.044   4.359  15.092  0.00  0.00    +0.000 OA
ATOM     26  H   UNL     1       4.306   4.981  14.945  0.00  0.00    +0.000 HD
ENDBRANCH  17  25
ENDBRANCH  14  15
ENDBRANCH   2  14
TORSDOF 4
ENDMDL
MODEL 2
REMARK VINA RESULT:      -8.1      1.232      2.092
REMARK  Name = 
REMARK  5 active torsions:
REMARK  status: ('A' for Active; 'I' for Inactive)
REMARK    1  A    between atoms: C_1  and  C_2
REMARK    2  A    between atoms: C_2  and  S_3
REMARK    3  A    between atoms: C_2  and  C_15
REMARK    4  A    between atoms: S_3  and  C_4
REMARK    5  A    between atoms: C_6  and  O_7
REMARK                            x       y       z     vdW  Elec       q    Type
REMARK                         _______ _______ _______ _____ _____    ______ ____
ROOT
ATOM      1  C   UNL     1       1.786   2.514  21.853  0.00  0.00    +0.000 C 
ATOM      2  C   UNL     1       2.544   3.324  20.806  0.00  0.00    +0.000 C 
ENDROOT
BRANCH   2   3
ATOM      3  C   UNL     1       1.859   4.663  20.530  0.00  0.00    +0.000 C 
ATOM      4  O   UNL     1       0.648   4.815  20.698  0.00  0.00    +0.000 OA
ATOM      5  N   UNL     1       2.715   5.685  20.163  0.00  0.00    +0.000 N 
ATOM      6  C   UNL     1       2.227   6.959  19.866  0.00  0.00    +0.000 A 
ATOM      7  C   UNL     1       1.376   7.626  20.742  0.00  0.00    +0.000 A 
ATOM      8  C   UNL     1       0.932   8.904  20.409  0.00  0.00    +0.000 A 
ATOM      9  C   UNL     1       1.321   9.452  19.195  0.00  0.00    +0.000 A 
ATOM     10 BR   UNL     1       0.742  11.172  18.689  0.00  0.00    +0.000 Br
ATOM     11  C   UNL     1       2.160   8.712  18.378  0.00  0.00    +0.000 A 
ATOM     12  N   UNL     1       2.661   7.495  18.707  0.00  0.00    +0.000 NA
ATOM     13  H   UNL     1       3.516   5.413  19.606  0.00  0.00    +0.000 HD
ENDBRANCH   2   3
BRANCH   2  14
ATOM     14  S   UNL     1       2.908   2.370  19.285  0.00  0.00    +0.000 S 
BRANCH  14  15
ATOM     15  C   UNL     1       4.193   3.324  18.516  0.00  0.00    +0.000 A 
ATOM     16  N   UNL     1       5.107   3.925  19.288  0.00  0.00    +0.000 NA
ATOM     17  C   UNL     1       6.078   4.560  18.627  0.00  0.00    +0.000 A 
ATOM     18  C   UNL     1       6.218   4.632  17.257  0.00  0.00    +0.000 A 
ATOM     19  C   UNL     1       5.209   3.988  16.561  0.00  0.00    +0.000 A 
ATOM     20  N   UNL     1       4.209   3.322  17.175  0.00  0.00    +0.000 NA
ATOM     21  C   UNL     1       5.219   3.940  15.052  0.00  0.00    +0.000 C 
ATOM     22  C   UNL     1       6.068   5.048  14.430  0.00  0.00    +0.000 C 
ATOM     23  C   UNL     1       7.440   5.090  15.096  0.00  0.00    +0.000 C 
ATOM     24  C   UNL     1       7.310   5.404  16.587  0.00  0.00    +0.000 C 
BRANCH  17  25
ATOM     25  O   UNL     1       6.976   5.168  19.445  0.00  0.00    +0.000 OA
ATOM     26  H   UNL     1       7.720   4.538  19.401  0.00  0.00    +0.000 HD
ENDBRANCH  17  25
ENDBRANCH  14  15
ENDBRANCH   2  14
TORSDOF 4
ENDMDL
MODEL 3
REMARK VINA RESULT:      -7.5      1.040      1.080
REMARK  Name = 
REMARK  5 active torsions:
REMARK  status: ('A' for Active; 'I' for Inactive)
REMARK    1  A    between atoms: C_1  and  C_2
REMARK    2  A    between atoms: C_2  and  S_3
REMARK    3  A    between atoms: C_2  and  C_15
REMARK    4  A    between atoms: S_3  and  C_4
REMARK    5  A    between atoms: C_6  and  O_7
REMARK                            x       y       z     vdW  Elec       q    Type
REMARK                         _______ _______ _______ _____ _____    ______ ____
ROOT
ATOM      1  C   UNL     1       1.677   2.036  19.849  0.00  0.00    +0.000 C 
ATOM      2  C   UNL     1       2.481   3.217  19.314  0.00  0.00    +0.000 C 
ENDROOT
BRANCH   2   3
ATOM      3  C   UNL     1       1.825   4.551  19.673  0.00  0.00    +0.000 C 
ATOM      4  O   UNL     1       0.763   4.600  20.296  0.00  0.00    +0.000 OA
ATOM      5  N   UNL     1       2.556   5.669  19.316  0.00  0.00    +0.000 N 
ATOM      6  C   UNL     1       2.072   6.954  19.568  0.00  0.00    +0.000 A 
ATOM      7  C   UNL     1       1.627   7.320  20.835  0.00  0.00    +0.000 A 
ATOM      8  C   UNL     1       1.171   8.621  21.041  0.00  0.00    +0.000 A 
ATOM      9  C   UNL     1       1.138   9.495  19.964  0.00  0.00    +0.000 A 
ATOM     10 BR   UNL     1       0.522  11.262  20.183  0.00  0.00    +0.000 Br
ATOM     11  C   UNL     1       1.588   9.042  18.734  0.00  0.00    +0.000 A 
ATOM     12  N   UNL     1       2.099   7.804  18.522  0.00  0.00    +0.000 NA
ATOM     13  H   UNL     1       3.090   5.593  18.459  0.00  0.00    +0.000 HD
ENDBRANCH   2   3
BRANCH   2  14
ATOM     14  S   UNL     1       2.884   3.065  17.534  0.00  0.00    +0.000 S 
BRANCH  14  15
ATOM     15  C   UNL     1       4.269   4.159  17.345  0.00  0.00    +0.000 A 
ATOM     16  N   UNL     1       4.446   4.789  16.175  0.00  0.00    +0.000 NA
ATOM     17  C   UNL     1       5.467   5.647  16.143  0.00  0.00    +0.000 A 
ATOM     18  C   UNL     1       6.319   5.939  17.186  0.00  0.00    +0.000 A 
ATOM     19  C   UNL     1       6.053   5.220  18.339  0.00  0.00    +0.000 A 
ATOM     20  N   UNL     1       5.028   4.348  18.433  0.00  0.00    +0.000 NA
ATOM     21  C   UNL     1       6.869   5.435  19.590  0.00  0.00    +0.000 C 
ATOM     22  C   UNL     1       8.237   6.054  19.307  0.00  0.00    +0.000 C 
ATOM     23  C   UNL     1       8.080   7.276  18.407  0.00  0.00    +0.000 C 
ATOM     24  C   UNL     1       7.475   6.881  17.059  0.00  0.00    +0.000 C 
BRANCH  17  25
ATOM     25  O   UNL     1       5.621   6.254  14.936  0.00  0.00    +0.000 OA
ATOM     26  H   UNL     1       6.398   5.776  14.589  0.00  0.00    +0.000 HD
ENDBRANCH  17  25
ENDBRANCH  14  15
ENDBRANCH   2  14
TORSDOF 4
ENDMDL
MODEL 4
REMARK VINA RESULT:      -7.2      4.009      7.444
REMARK  Name = 
REMARK  5 active torsions:
REMARK  status: ('A' for Active; 'I' for Inactive)
REMARK    1  A    between atoms: C_1  and  C_2
REMARK    2  A    between atoms: C_2  and  S_3
REMARK    3  A    between atoms: C_2  and  C_15
REMARK    4  A    between atoms: S_3  and  C_4
REMARK    5  A    between atoms: C_6  and  O_7
REMARK                            x       y       z     vdW  Elec       q    Type
REMARK                         _______ _______ _______ _____ _____    ______ ____
ROOT
ATOM      1  C   UNL     1       7.557   7.641  17.457  0.00  0.00    +0.000 C 
ATOM      2  C   UNL     1       6.379   6.673  17.526  0.00  0.00    +0.000 C 
ENDROOT
BRANCH   2   3
ATOM      3  C   UNL     1       6.533   5.531  16.521  0.00  0.00    +0.000 C 
ATOM      4  O   UNL     1       6.674   4.364  16.887  0.00  0.00    +0.000 OA
ATOM      5  N   UNL     1       6.419   5.910  15.196  0.00  0.00    +0.000 N 
ATOM      6  C   UNL     1       6.553   4.975  14.168  0.00  0.00    +0.000 A 
ATOM      7  C   UNL     1       5.820   3.792  14.171  0.00  0.00    +0.000 A 
ATOM      8  C   UNL     1       5.974   2.899  13.112  0.00  0.00    +0.000 A 
ATOM      9  C   UNL     1       6.886   3.202  12.111  0.00  0.00    +0.000 A 
ATOM     10 BR   UNL     1       7.143   2.027  10.660  0.00  0.00    +0.000 Br
ATOM     11  C   UNL     1       7.584   4.397  12.194  0.00  0.00    +0.000 A 
ATOM     12  N   UNL     1       7.403   5.313  13.178  0.00  0.00    +0.000 NA
ATOM     13  H   UNL     1       6.781   6.827  14.965  0.00  0.00    +0.000 HD
ENDBRANCH   2   3
BRANCH   2  14
ATOM     14  S   UNL     1       4.754   7.512  17.427  0.00  0.00    +0.000 S 
BRANCH  14  15
ATOM     15  C   UNL     1       3.674   6.387  18.277  0.00  0.00    +0.000 A 
ATOM     16  N   UNL     1       3.074   6.789  19.406  0.00  0.00    +0.000 NA
ATOM     17  C   UNL     1       2.224   5.910  19.940  0.00  0.00    +0.000 A 
ATOM     18  C   UNL     1       1.914   4.666  19.432  0.00  0.00    +0.000 A 
ATOM     19  C   UNL     1       2.603   4.350  18.274  0.00  0.00    +0.000 A 
ATOM     20  N   UNL     1       3.465   5.204  17.684  0.00  0.00    +0.000 NA
ATOM     21  C   UNL     1       2.364   3.040  17.564  0.00  0.00    +0.000 C 
ATOM     22  C   UNL     1       1.762   1.973  18.477  0.00  0.00    +0.000 C 
ATOM     23  C   UNL     1       0.561   2.543  19.226  0.00  0.00    +0.000 C 
ATOM     24  C   UNL     1       0.984   3.713  20.115  0.00  0.00    +0.000 C 
BRANCH  17  25
ATOM     25  O   UNL     1       1.648   6.349  21.090  0.00  0.00    +0.000 OA
ATOM     26  H   UNL     1       1.010   6.999  20.738  0.00  0.00    +0.000 HD
ENDBRANCH  17  25
ENDBRANCH  14  15
ENDBRANCH   2  14
TORSDOF 4
ENDMDL
MODEL 5
REMARK VINA RESULT:      -7.2      3.865      6.507
REMARK  Name = 
REMARK  5 active torsions:
REMARK  status: ('A' for Active; 'I' for Inactive)
REMARK    1  A    between atoms: C_1  and  C_2
REMARK    2  A    between atoms: C_2  and  S_3
REMARK    3  A    between atoms: C_2  and  C_15
REMARK    4  A    between atoms: S_3  and  C_4
REMARK    5  A    between atoms: C_6  and  O_7
REMARK                            x       y       z     vdW  Elec       q    Type
REMARK                         _______ _______ _______ _____ _____    ______ ____
ROOT
ATOM      1  C   UNL     1       7.448   5.798  19.796  0.00  0.00    +0.000 C 
ATOM      2  C   UNL     1       7.786   5.882  18.310  0.00  0.00    +0.000 C 
ENDROOT
BRANCH   2   3
ATOM      3  C   UNL     1       8.058   7.324  17.878  0.00  0.00    +0.000 C 
ATOM      4  O   UNL     1       7.871   7.696  16.719  0.00  0.00    +0.000 OA
ATOM      5  N   UNL     1       8.443   8.170  18.901  0.00  0.00    +0.000 N 
ATOM      6  C   UNL     1       8.739   9.511  18.650  0.00  0.00    +0.000 A 
ATOM      7  C   UNL     1       7.853  10.325  17.951  0.00  0.00    +0.000 A 
ATOM      8  C   UNL     1       8.185  11.663  17.743  0.00  0.00    +0.000 A 
ATOM      9  C   UNL     1       9.408  12.127  18.206  0.00  0.00    +0.000 A 
ATOM     10 BR   UNL     1       9.913  13.923  17.943  0.00  0.00    +0.000 Br
ATOM     11  C   UNL     1      10.235  11.244  18.881  0.00  0.00    +0.000 A 
ATOM     12  N   UNL     1       9.907   9.956  19.155  0.00  0.00    +0.000 NA
ATOM     13  H   UNL     1       9.012   7.754  19.629  0.00  0.00    +0.000 HD
ENDBRANCH   2   3
BRANCH   2  14
ATOM     14  S   UNL     1       6.567   5.024  17.246  0.00  0.00    +0.000 S 
BRANCH  14  15
ATOM     15  C   UNL     1       5.098   5.027  18.244  0.00  0.00    +0.000 A 
ATOM     16  N   UNL     1       4.293   6.098  18.212  0.00  0.00    +0.000 NA
ATOM     17  C   UNL     1       3.176   5.987  18.934  0.00  0.00    +0.000 A 
ATOM     18  C   UNL     1       2.790   4.890  19.674  0.00  0.00    +0.000 A 
ATOM     19  C   UNL     1       3.704   3.851  19.646  0.00  0.00    +0.000 A 
ATOM     20  N   UNL     1       4.843   3.902  18.926  0.00  0.00    +0.000 NA
ATOM     21  C   UNL     1       3.429   2.559  20.377  0.00  0.00    +0.000 C 
ATOM     22  C   UNL     1       2.402   2.719  21.497  0.00  0.00    +0.000 C 
ATOM     23  C   UNL     1       1.171   3.454  20.976  0.00  0.00    +0.000 C 
ATOM     24  C   UNL     1       1.541   4.859  20.499  0.00  0.00    +0.000 C 
BRANCH  17  25
ATOM     25  O   UNL     1       2.394   7.099  18.887  0.00  0.00    +0.000 OA
ATOM     26  H   UNL     1       2.904   7.654  18.268  0.00  0.00    +0.000 HD
ENDBRANCH  17  25
ENDBRANCH  14  15
ENDBRANCH   2  14
TORSDOF 4
ENDMDL
MODEL 6
REMARK VINA RESULT:      -7.1      3.886      6.982
REMARK  Name = 
REMARK  5 active torsions:
REMARK  status: ('A' for Active; 'I' for Inactive)
REMARK    1  A    between atoms: C_1  and  C_2
REMARK    2  A    between atoms: C_2  and  S_3
REMARK    3  A    between atoms: C_2  and  C_15
REMARK    4  A    between atoms: S_3  and  C_4
REMARK    5  A    between atoms: C_6  and  O_7
REMARK                            x       y       z     vdW  Elec       q    Type
REMARK                         _______ _______ _______ _____ _____    ______ ____
ROOT
ATOM      1  C   UNL     1       7.470   7.691  17.575  0.00  0.00    +0.000 C 
ATOM      2  C   UNL     1       7.874   6.281  17.998  0.00  0.00    +0.000 C 
ENDROOT
BRANCH   2   3
ATOM      3  C   UNL     1       7.563   5.258  16.905  0.00  0.00    +0.000 C 
ATOM      4  O   UNL     1       7.559   4.048  17.136  0.00  0.00    +0.000 OA
ATOM      5  N   UNL     1       7.216   5.805  15.684  0.00  0.00    +0.000 N 
ATOM      6  C   UNL     1       6.922   4.990  14.589  0.00  0.00    +0.000 A 
ATOM      7  C   UNL     1       5.996   3.955  14.691  0.00  0.00    +0.000 A 
ATOM      8  C   UNL     1       5.722   3.182  13.564  0.00  0.00    +0.000 A 
ATOM      9  C   UNL     1       6.413   3.445  12.390  0.00  0.00    +0.000 A 
ATOM     10 BR   UNL     1       6.090   2.424  10.839  0.00  0.00    +0.000 Br
ATOM     11  C   UNL     1       7.327   4.486  12.382  0.00  0.00    +0.000 A 
ATOM     12  N   UNL     1       7.563   5.297  13.444  0.00  0.00    +0.000 NA
ATOM     13  H   UNL     1       7.683   6.670  15.437  0.00  0.00    +0.000 HD
ENDBRANCH   2   3
BRANCH   2  14
ATOM     14  S   UNL     1       7.216   5.808  19.641  0.00  0.00    +0.000 S 
BRANCH  14  15
ATOM     15  C   UNL     1       5.539   5.349  19.281  0.00  0.00    +0.000 A 
ATOM     16  N   UNL     1       4.704   6.272  18.786  0.00  0.00    +0.000 NA
ATOM     17  C   UNL     1       3.485   5.825  18.475  0.00  0.00    +0.000 A 
ATOM     18  C   UNL     1       3.036   4.529  18.606  0.00  0.00    +0.000 A 
ATOM     19  C   UNL     1       3.977   3.665  19.140  0.00  0.00    +0.000 A 
ATOM     20  N   UNL     1       5.226   4.058  19.463  0.00  0.00    +0.000 NA
ATOM     21  C   UNL     1       3.666   2.200  19.325  0.00  0.00    +0.000 C 
ATOM     22  C   UNL     1       2.165   1.916  19.381  0.00  0.00    +0.000 C 
ATOM     23  C   UNL     1       1.461   2.595  18.211  0.00  0.00    +0.000 C 
ATOM     24  C   UNL     1       1.636   4.112  18.280  0.00  0.00    +0.000 C 
BRANCH  17  25
ATOM     25  O   UNL     1       2.665   6.795  17.990  0.00  0.00    +0.000 OA
ATOM     26  H   UNL     1       3.206   7.591  18.154  0.00  0.00    +0.000 HD
ENDBRANCH  17  25
ENDBRANCH  14  15
ENDBRANCH   2  14
TORSDOF 4
ENDMDL
MODEL 7
REMARK VINA RESULT:      -7.1      1.474      2.323
REMARK  Name = 
REMARK  5 active torsions:
REMARK  status: ('A' for Active; 'I' for Inactive)
REMARK    1  A    between atoms: C_1  and  C_2
REMARK    2  A    between atoms: C_2  and  S_3
REMARK    3  A    between atoms: C_2  and  C_15
REMARK    4  A    between atoms: S_3  and  C_4
REMARK    5  A    between atoms: C_6  and  O_7
REMARK                            x       y       z     vdW  Elec       q    Type
REMARK                         _______ _______ _______ _____ _____    ______ ____
ROOT
ATOM      1  C   UNL     1       2.022   2.210  18.209  0.00  0.00    +0.000 C 
ATOM      2  C   UNL     1       2.238   2.767  19.613  0.00  0.00    +0.000 C 
ENDROOT
BRANCH   2   3
ATOM      3  C   UNL     1       1.715   4.200  19.733  0.00  0.00    +0.000 C 
ATOM      4  O   UNL     1       0.654   4.454  20.304  0.00  0.00    +0.000 OA
ATOM      5  N   UNL     1       2.563   5.167  19.226  0.00  0.00    +0.000 N 
ATOM      6  C   UNL     1       2.209   6.518  19.253  0.00  0.00    +0.000 A 
ATOM      7  C   UNL     1       1.783   7.126  20.430  0.00  0.00    +0.000 A 
ATOM      8  C   UNL     1       1.460   8.482  20.411  0.00  0.00    +0.000 A 
ATOM      9  C   UNL     1       1.535   9.169  19.207  0.00  0.00    +0.000 A 
ATOM     10 BR   UNL     1       1.100  11.000  19.120  0.00  0.00    +0.000 Br
ATOM     11  C   UNL     1       1.957   8.481  18.081  0.00  0.00    +0.000 A 
ATOM     12  N   UNL     1       2.341   7.180  18.086  0.00  0.00    +0.000 NA
ATOM     13  H   UNL     1       3.101   4.901  18.410  0.00  0.00    +0.000 HD
ENDBRANCH   2   3
BRANCH   2  14
ATOM     14  S   UNL     1       3.959   2.572  20.207  0.00  0.00    +0.000 S 
BRANCH  14  15
ATOM     15  C   UNL     1       4.888   3.564  19.064  0.00  0.00    +0.000 A 
ATOM     16  N   UNL     1       5.788   4.435  19.541  0.00  0.00    +0.000 NA
ATOM     17  C   UNL     1       6.492   5.086  18.613  0.00  0.00    +0.000 A 
ATOM     18  C   UNL     1       6.382   4.929  17.248  0.00  0.00    +0.000 A 
ATOM     19  C   UNL     1       5.413   4.016  16.870  0.00  0.00    +0.000 A 
ATOM     20  N   UNL     1       4.679   3.321  17.763  0.00  0.00    +0.000 NA
ATOM     21  C   UNL     1       5.178   3.697  15.414  0.00  0.00    +0.000 C 
ATOM     22  C   UNL     1       5.681   4.795  14.477  0.00  0.00    +0.000 C 
ATOM     23  C   UNL     1       7.111   5.177  14.843  0.00  0.00    +0.000 C 
ATOM     24  C   UNL     1       7.177   5.732  16.266  0.00  0.00    +0.000 C 
BRANCH  17  25
ATOM     25  O   UNL     1       7.382   5.970  19.137  0.00  0.00    +0.000 OA
ATOM     26  H   UNL     1       8.081   5.952  18.455  0.00  0.00    +0.000 HD
ENDBRANCH  17  25
ENDBRANCH  14  15
ENDBRANCH   2  14
TORSDOF 4
ENDMDL
MODEL 8
REMARK VINA RESULT:      -7.0      4.042      7.106
REMARK  Name = 
REMARK  5 active torsions:
REMARK  status: ('A' for Active; 'I' for Inactive)
REMARK    1  A    between atoms: C_1  and  C_2
REMARK    2  A    between atoms: C_2  and  S_3
REMARK    3  A    between atoms: C_2  and  C_15
REMARK    4  A    between atoms: S_3  and  C_4
REMARK    5  A    between atoms: C_6  and  O_7
REMARK                            x       y       z     vdW  Elec       q    Type
REMARK                         _______ _______ _______ _____ _____    ______ ____
ROOT
ATOM      1  C   UNL     1       6.824   7.802  17.404  0.00  0.00    +0.000 C 
ATOM      2  C   UNL     1       7.604   6.552  17.800  0.00  0.00    +0.000 C 
ENDROOT
BRANCH   2   3
ATOM      3  C   UNL     1       7.481   5.455  16.741  0.00  0.00    +0.000 C 
ATOM      4  O   UNL     1       7.680   4.271  17.012  0.00  0.00    +0.000 OA
ATOM      5  N   UNL     1       7.056   5.896  15.501  0.00  0.00    +0.000 N 
ATOM      6  C   UNL     1       6.913   5.008  14.433  0.00  0.00    +0.000 A 
ATOM      7  C   UNL     1       6.176   3.835  14.567  0.00  0.00    +0.000 A 
ATOM      8  C   UNL     1       6.046   2.990  13.466  0.00  0.00    +0.000 A 
ATOM      9  C   UNL     1       6.691   3.328  12.285  0.00  0.00    +0.000 A 
ATOM     10 BR   UNL     1       6.560   2.218  10.769  0.00  0.00    +0.000 Br
ATOM     11  C   UNL     1       7.416   4.509  12.245  0.00  0.00    +0.000 A 
ATOM     12  N   UNL     1       7.502   5.382  13.280  0.00  0.00    +0.000 NA
ATOM     13  H   UNL     1       7.371   6.819  15.227  0.00  0.00    +0.000 HD
ENDBRANCH   2   3
BRANCH   2  14
ATOM     14  S   UNL     1       7.217   5.970  19.493  0.00  0.00    +0.000 S 
BRANCH  14  15
ATOM     15  C   UNL     1       5.795   4.936  19.242  0.00  0.00    +0.000 A 
ATOM     16  N   UNL     1       5.859   3.645  19.595  0.00  0.00    +0.000 NA
ATOM     17  C   UNL     1       4.725   2.959  19.440  0.00  0.00    +0.000 A 
ATOM     18  C   UNL     1       3.528   3.458  18.974  0.00  0.00    +0.000 A 
ATOM     19  C   UNL     1       3.582   4.797  18.626  0.00  0.00    +0.000 A 
ATOM     20  N   UNL     1       4.697   5.543  18.771  0.00  0.00    +0.000 NA
ATOM     21  C   UNL     1       2.354   5.516  18.124  0.00  0.00    +0.000 C 
ATOM     22  C   UNL     1       1.297   4.565  17.564  0.00  0.00    +0.000 C 
ATOM     23  C   UNL     1       1.038   3.432  18.553  0.00  0.00    +0.000 C 
ATOM     24  C   UNL     1       2.308   2.613  18.782  0.00  0.00    +0.000 C 
BRANCH  17  25
ATOM     25  O   UNL     1       4.836   1.651  19.795  0.00  0.00    +0.000 OA
ATOM     26  H   UNL     1       5.590   1.374  19.240  0.00  0.00    +0.000 HD
ENDBRANCH  17  25
ENDBRANCH  14  15
ENDBRANCH   2  14
TORSDOF 4
ENDMDL
MODEL 9
REMARK VINA RESULT:      -7.0      0.931      1.055
REMARK  Name = 
REMARK  5 active torsions:
REMARK  status: ('A' for Active; 'I' for Inactive)
REMARK    1  A    between atoms: C_1  and  C_2
REMARK    2  A    between atoms: C_2  and  S_3
REMARK    3  A    between atoms: C_2  and  C_15
REMARK    4  A    between atoms: S_3  and  C_4
REMARK    5  A    between atoms: C_6  and  O_7
REMARK                            x       y       z     vdW  Elec       q    Type
REMARK                         _______ _______ _______ _____ _____    ______ ____
ROOT
ATOM      1  C   UNL     1       1.860   2.090  18.128  0.00  0.00    +0.000 C 
ATOM      2  C   UNL     1       2.132   2.591  19.543  0.00  0.00    +0.000 C 
ENDROOT
BRANCH   2   3
ATOM      3  C   UNL     1       1.644   4.028  19.732  0.00  0.00    +0.000 C 
ATOM      4  O   UNL     1       0.594   4.280  20.323  0.00  0.00    +0.000 OA
ATOM      5  N   UNL     1       2.510   4.998  19.262  0.00  0.00    +0.000 N 
ATOM      6  C   UNL     1       2.188   6.354  19.353  0.00  0.00    +0.000 A 
ATOM      7  C   UNL     1       1.785   6.918  20.560  0.00  0.00    +0.000 A 
ATOM      8  C   UNL     1       1.493   8.280  20.605  0.00  0.00    +0.000 A 
ATOM      9  C   UNL     1       1.575   9.019  19.433  0.00  0.00    +0.000 A 
ATOM     10 BR   UNL     1       1.181  10.861  19.432  0.00  0.00    +0.000 Br
ATOM     11  C   UNL     1       1.971   8.373  18.273  0.00  0.00    +0.000 A 
ATOM     12  N   UNL     1       2.326   7.065  18.216  0.00  0.00    +0.000 NA
ATOM     13  H   UNL     1       3.036   4.758  18.430  0.00  0.00    +0.000 HD
ENDBRANCH   2   3
BRANCH   2  14
ATOM     14  S   UNL     1       3.868   2.340  20.073  0.00  0.00    +0.000 S 
BRANCH  14  15
ATOM     15  C   UNL     1       4.771   3.435  19.006  0.00  0.00    +0.000 A 
ATOM     16  N   UNL     1       4.511   3.423  17.692  0.00  0.00    +0.000 NA
ATOM     17  C   UNL     1       5.182   4.327  16.974  0.00  0.00    +0.000 A 
ATOM     18  C   UNL     1       6.081   5.250  17.462  0.00  0.00    +0.000 A 
ATOM     19  C   UNL     1       6.283   5.161  18.829  0.00  0.00    +0.000 A 
ATOM     20  N   UNL     1       5.625   4.275  19.606  0.00  0.00    +0.000 NA
ATOM     21  C   UNL     1       7.212   6.115  19.538  0.00  0.00    +0.000 C 
ATOM     22  C   UNL     1       8.233   6.756  18.598  0.00  0.00    +0.000 C 
ATOM     23  C   UNL     1       7.528   7.318  17.367  0.00  0.00    +0.000 C 
ATOM     24  C   UNL     1       6.832   6.203  16.586  0.00  0.00    +0.000 C 
BRANCH  17  25
ATOM     25  O   UNL     1       4.901   4.273  15.645  0.00  0.00    +0.000 OA
ATOM     26  H   UNL     1       5.782   4.454  15.265  0.00  0.00    +0.000 HD
ENDBRANCH  17  25
ENDBRANCH  14  15
ENDBRANCH   2  14
TORSDOF 4
ENDMDL
