MODEL 1
REMARK VINA RESULT:      -8.8      0.000      0.000
REMARK  Name = 
REMARK  6 active torsions:
REMARK  status: ('A' for Active; 'I' for Inactive)
REMARK    1  A    between atoms: C_1  and  C_2
REMARK    2  A    between atoms: C_4  and  N_5
REMARK    3  A    between atoms: C_8  and  C_9
REMARK    4  A    between atoms: C_19  and  S_20
REMARK    5  A    between atoms: S_20  and  C_21
REMARK    6  A    between atoms: C_21  and  C_22
REMARK                            x       y       z     vdW  Elec       q    Type
REMARK                         _______ _______ _______ _____ _____    ______ ____
ROOT
ATOM      1  C   UNL     1       4.159   4.111  19.380  0.00  0.00    +0.000 C 
ATOM      2  C   UNL     1       4.847   4.497  18.094  0.00  0.00    +0.000 A 
ATOM      3  C   UNL     1       5.532   5.828  18.069  0.00  0.00    +0.000 A 
ATOM      4  C   UNL     1       6.171   6.161  16.936  0.00  0.00    +0.000 A 
ATOM      5  N   UNL     1       6.146   5.240  15.874  0.00  0.00    +0.000 N 
ATOM      6  N   UNL     1       6.714   5.361  14.649  0.00  0.00    +0.000 NA
ATOM      7  C   UNL     1       6.278   4.262  14.033  0.00  0.00    +0.000 A 
ATOM      8  N   UNL     1       5.511   3.426  14.787  0.00  0.00    +0.000 NA
ATOM      9  C   UNL     1       5.444   4.034  15.955  0.00  0.00    +0.000 A 
ATOM     10  N   UNL     1       4.804   3.659  17.102  0.00  0.00    +0.000 NA
ENDROOT
BRANCH   4  11
ATOM     11  N   UNL     1       6.843   7.362  16.694  0.00  0.00    +0.000 N 
ATOM     12  C   UNL     1       7.674   7.982  17.565  0.00  0.00    +0.000 A 
ATOM     13  C   UNL     1       7.937   9.372  17.486  0.00  0.00    +0.000 A 
ATOM     14  C   UNL     1       8.762   9.672  18.552  0.00  0.00    +0.000 A 
ATOM     15  N   UNL     1       8.927   8.474  19.195  0.00  0.00    +0.000 N 
ATOM     16  N   UNL     1       8.297   7.440  18.615  0.00  0.00    +0.000 NA
ATOM     17  H   UNL     1       6.276   7.975  16.100  0.00  0.00    +0.000 HD
ATOM     18  H   UNL     1       9.446   8.299  20.048  0.00  0.00    +0.000 HD
BRANCH  14  19
ATOM     19  C   UNL     1       9.357  10.928  19.002  0.00  0.00    +0.000 A 
ATOM     20  C   UNL     1       9.477  12.015  18.125  0.00  0.00    +0.000 A 
ATOM     21  C   UNL     1      10.061  13.212  18.548  0.00  0.00    +0.000 A 
ATOM     22  C   UNL     1      10.535  13.336  19.852  0.00  0.00    +0.000 A 
ATOM     23  C   UNL     1      10.423  12.264  20.734  0.00  0.00    +0.000 A 
ATOM     24  C   UNL     1       9.837  11.068  20.312  0.00  0.00    +0.000 A 
ENDBRANCH  14  19
ENDBRANCH   4  11
BRANCH   7  25
ATOM     25  S   UNL     1       6.724   3.972  12.375  0.00  0.00    +0.000 S 
BRANCH  25  26
ATOM     26  C   UNL     1       5.470   2.772  11.861  0.00  0.00    +0.000 C 
BRANCH  26  27
ATOM     27  C   UNL     1       4.194   3.515  11.568  0.00  0.00    +0.000 C 
ATOM     28  C   UNL     1       3.821   3.922  10.160  0.00  0.00    +0.000 C 
ATOM     29  C   UNL     1       3.056   2.830  10.848  0.00  0.00    +0.000 C 
ENDBRANCH  26  27
ENDBRANCH  25  26
ENDBRANCH   7  25
TORSDOF 5
ENDMDL
MODEL 2
REMARK VINA RESULT:      -8.5      2.445      4.647
REMARK  Name = 
REMARK  6 active torsions:
REMARK  status: ('A' for Active; 'I' for Inactive)
REMARK    1  A    between atoms: C_1  and  C_2
REMARK    2  A    between atoms: C_4  and  N_5
REMARK    3  A    between atoms: C_8  and  C_9
REMARK    4  A    between atoms: C_19  and  S_20
REMARK    5  A    between atoms: S_20  and  C_21
REMARK    6  A    between atoms: C_21  and  C_22
REMARK                            x       y       z     vdW  Elec       q    Type
REMARK                         _______ _______ _______ _____ _____    ______ ____
ROOT
ATOM      1  C   UNL     1       6.629   4.089  13.459  0.00  0.00    +0.000 C 
ATOM      2  C   UNL     1       6.221   4.260  14.901  0.00  0.00    +0.000 A 
ATOM      3  C   UNL     1       7.111   5.105  15.758  0.00  0.00    +0.000 A 
ATOM      4  C   UNL     1       6.733   5.285  17.034  0.00  0.00    +0.000 A 
ATOM      5  N   UNL     1       5.541   4.670  17.458  0.00  0.00    +0.000 N 
ATOM      6  N   UNL     1       4.972   4.711  18.688  0.00  0.00    +0.000 NA
ATOM      7  C   UNL     1       3.944   3.874  18.543  0.00  0.00    +0.000 A 
ATOM      8  N   UNL     1       3.788   3.338  17.301  0.00  0.00    +0.000 NA
ATOM      9  C   UNL     1       4.786   3.855  16.611  0.00  0.00    +0.000 A 
ATOM     10  N   UNL     1       5.133   3.673  15.302  0.00  0.00    +0.000 NA
ENDROOT
BRANCH   4  11
ATOM     11  N   UNL     1       7.433   6.008  18.005  0.00  0.00    +0.000 N 
ATOM     12  C   UNL     1       7.619   7.349  17.997  0.00  0.00    +0.000 A 
ATOM     13  C   UNL     1       8.692   7.958  18.692  0.00  0.00    +0.000 A 
ATOM     14  C   UNL     1       8.615   9.309  18.418  0.00  0.00    +0.000 A 
ATOM     15  N   UNL     1       7.532   9.421  17.585  0.00  0.00    +0.000 N 
ATOM     16  N   UNL     1       6.907   8.261  17.329  0.00  0.00    +0.000 NA
ATOM     17  H   UNL     1       8.206   5.449  18.377  0.00  0.00    +0.000 HD
ATOM     18  H   UNL     1       7.179  10.262  17.143  0.00  0.00    +0.000 HD
BRANCH  14  19
ATOM     19  C   UNL     1       9.442  10.439  18.834  0.00  0.00    +0.000 A 
ATOM     20  C   UNL     1      10.159  11.184  17.888  0.00  0.00    +0.000 A 
ATOM     21  C   UNL     1      10.965  12.256  18.285  0.00  0.00    +0.000 A 
ATOM     22  C   UNL     1      11.065  12.593  19.634  0.00  0.00    +0.000 A 
ATOM     23  C   UNL     1      10.358  11.860  20.584  0.00  0.00    +0.000 A 
ATOM     24  C   UNL     1       9.552  10.791  20.187  0.00  0.00    +0.000 A 
ENDBRANCH  14  19
ENDBRANCH   4  11
BRANCH   7  25
ATOM     25  S   UNL     1       2.897   3.557  19.898  0.00  0.00    +0.000 S 
BRANCH  25  26
ATOM     26  C   UNL     1       1.734   4.940  19.795  0.00  0.00    +0.000 C 
BRANCH  26  27
ATOM     27  C   UNL     1       2.513   6.223  19.901  0.00  0.00    +0.000 C 
ATOM     28  C   UNL     1       2.352   7.334  18.888  0.00  0.00    +0.000 C 
ATOM     29  C   UNL     1       1.820   7.512  20.280  0.00  0.00    +0.000 C 
ENDBRANCH  26  27
ENDBRANCH  25  26
ENDBRANCH   7  25
TORSDOF 5
ENDMDL
MODEL 3
REMARK VINA RESULT:      -8.3      2.459      4.820
REMARK  Name = 
REMARK  6 active torsions:
REMARK  status: ('A' for Active; 'I' for Inactive)
REMARK    1  A    between atoms: C_1  and  C_2
REMARK    2  A    between atoms: C_4  and  N_5
REMARK    3  A    between atoms: C_8  and  C_9
REMARK    4  A    between atoms: C_19  and  S_20
REMARK    5  A    between atoms: S_20  and  C_21
REMARK    6  A    between atoms: C_21  and  C_22
REMARK                            x       y       z     vdW  Elec       q    Type
REMARK                         _______ _______ _______ _____ _____    ______ ____
ROOT
ATOM      1  C   UNL     1       6.795   3.968  13.453  0.00  0.00    +0.000 C 
ATOM      2  C   UNL     1       6.247   4.399  14.791  0.00  0.00    +0.000 A 
ATOM      3  C   UNL     1       7.183   5.136  15.697  0.00  0.00    +0.000 A 
ATOM      4  C   UNL     1       6.689   5.549  16.876  0.00  0.00    +0.000 A 
ATOM      5  N   UNL     1       5.343   5.256  17.161  0.00  0.00    +0.000 N 
ATOM      6  N   UNL     1       4.638   5.568  18.277  0.00  0.00    +0.000 NA
ATOM      7  C   UNL     1       3.476   4.956  18.049  0.00  0.00    +0.000 A 
ATOM      8  N   UNL     1       3.370   4.314  16.851  0.00  0.00    +0.000 NA
ATOM      9  C   UNL     1       4.543   4.521  16.284  0.00  0.00    +0.000 A 
ATOM     10  N   UNL     1       5.011   4.108  15.068  0.00  0.00    +0.000 NA
ENDROOT
BRANCH   4  11
ATOM     11  N   UNL     1       7.398   6.222  17.875  0.00  0.00    +0.000 N 
ATOM     12  C   UNL     1       7.612   7.559  17.914  0.00  0.00    +0.000 A 
ATOM     13  C   UNL     1       8.695   8.120  18.636  0.00  0.00    +0.000 A 
ATOM     14  C   UNL     1       8.648   9.481  18.408  0.00  0.00    +0.000 A 
ATOM     15  N   UNL     1       7.573   9.645  17.574  0.00  0.00    +0.000 N 
ATOM     16  N   UNL     1       6.924   8.508  17.274  0.00  0.00    +0.000 NA
ATOM     17  H   UNL     1       8.156   5.635  18.232  0.00  0.00    +0.000 HD
ATOM     18  H   UNL     1       7.240  10.508  17.160  0.00  0.00    +0.000 HD
BRANCH  14  19
ATOM     19  C   UNL     1       9.497  10.578  18.868  0.00  0.00    +0.000 A 
ATOM     20  C   UNL     1      10.227  11.347  17.951  0.00  0.00    +0.000 A 
ATOM     21  C   UNL     1      11.053  12.386  18.389  0.00  0.00    +0.000 A 
ATOM     22  C   UNL     1      11.160  12.667  19.749  0.00  0.00    +0.000 A 
ATOM     23  C   UNL     1      10.440  11.911  20.671  0.00  0.00    +0.000 A 
ATOM     24  C   UNL     1       9.614  10.874  20.234  0.00  0.00    +0.000 A 
ENDBRANCH  14  19
ENDBRANCH   4  11
BRANCH   7  25
ATOM     25  S   UNL     1       2.213   5.037  19.244  0.00  0.00    +0.000 S 
BRANCH  25  26
ATOM     26  C   UNL     1       3.051   4.384  20.709  0.00  0.00    +0.000 C 
BRANCH  26  27
ATOM     27  C   UNL     1       2.645   2.945  20.887  0.00  0.00    +0.000 C 
ATOM     28  C   UNL     1       1.535   2.546  21.833  0.00  0.00    +0.000 C 
ATOM     29  C   UNL     1       1.322   2.450  20.351  0.00  0.00    +0.000 C 
ENDBRANCH  26  27
ENDBRANCH  25  26
ENDBRANCH   7  25
TORSDOF 5
ENDMDL
MODEL 4
REMARK VINA RESULT:      -8.3      2.500      4.651
REMARK  Name = 
REMARK  6 active torsions:
REMARK  status: ('A' for Active; 'I' for Inactive)
REMARK    1  A    between atoms: C_1  and  C_2
REMARK    2  A    between atoms: C_4  and  N_5
REMARK    3  A    between atoms: C_8  and  C_9
REMARK    4  A    between atoms: C_19  and  S_20
REMARK    5  A    between atoms: S_20  and  C_21
REMARK    6  A    between atoms: C_21  and  C_22
REMARK                            x       y       z     vdW  Elec       q    Type
REMARK                         _______ _______ _______ _____ _____    ______ ____
ROOT
ATOM      1  C   UNL     1       6.894   4.633  13.529  0.00  0.00    +0.000 C 
ATOM      2  C   UNL     1       6.567   4.558  15.000  0.00  0.00    +0.000 A 
ATOM      3  C   UNL     1       7.308   5.494  15.904  0.00  0.00    +0.000 A 
ATOM      4  C   UNL     1       6.997   5.452  17.209  0.00  0.00    +0.000 A 
ATOM      5  N   UNL     1       6.008   4.539  17.618  0.00  0.00    +0.000 N 
ATOM      6  N   UNL     1       5.538   4.322  18.871  0.00  0.00    +0.000 NA
ATOM      7  C   UNL     1       4.716   3.290  18.683  0.00  0.00    +0.000 A 
ATOM      8  N   UNL     1       4.591   2.861  17.396  0.00  0.00    +0.000 NA
ATOM      9  C   UNL     1       5.393   3.662  16.722  0.00  0.00    +0.000 A 
ATOM     10  N   UNL     1       5.672   3.698  15.384  0.00  0.00    +0.000 NA
ENDROOT
BRANCH   4  11
ATOM     11  N   UNL     1       7.588   6.214  18.221  0.00  0.00    +0.000 N 
ATOM     12  C   UNL     1       7.820   7.546  18.160  0.00  0.00    +0.000 A 
ATOM     13  C   UNL     1       8.814   8.168  18.955  0.00  0.00    +0.000 A 
ATOM     14  C   UNL     1       8.821   9.501  18.596  0.00  0.00    +0.000 A 
ATOM     15  N   UNL     1       7.860   9.591  17.623  0.00  0.00    +0.000 N 
ATOM     16  N   UNL     1       7.234   8.435  17.352  0.00  0.00    +0.000 NA
ATOM     17  H   UNL     1       8.287   5.659  18.724  0.00  0.00    +0.000 HD
ATOM     18  H   UNL     1       7.597  10.412  17.090  0.00  0.00    +0.000 HD
BRANCH  14  19
ATOM     19  C   UNL     1       9.625  10.632  19.053  0.00  0.00    +0.000 A 
ATOM     20  C   UNL     1       9.626  11.007  20.404  0.00  0.00    +0.000 A 
ATOM     21  C   UNL     1      10.381  12.098  20.842  0.00  0.00    +0.000 A 
ATOM     22  C   UNL     1      11.144  12.829  19.934  0.00  0.00    +0.000 A 
ATOM     23  C   UNL     1      11.153  12.468  18.589  0.00  0.00    +0.000 A 
ATOM     24  C   UNL     1      10.399  11.377  18.152  0.00  0.00    +0.000 A 
ENDBRANCH  14  19
ENDBRANCH   4  11
BRANCH   7  25
ATOM     25  S   UNL     1       3.871   2.605  20.042  0.00  0.00    +0.000 S 
BRANCH  25  26
ATOM     26  C   UNL     1       2.171   2.538  19.423  0.00  0.00    +0.000 C 
BRANCH  26  27
ATOM     27  C   UNL     1       1.625   3.939  19.385  0.00  0.00    +0.000 C 
ATOM     28  C   UNL     1       0.687   4.453  20.456  0.00  0.00    +0.000 C 
ATOM     29  C   UNL     1       2.094   4.972  20.384  0.00  0.00    +0.000 C 
ENDBRANCH  26  27
ENDBRANCH  25  26
ENDBRANCH   7  25
TORSDOF 5
ENDMDL
MODEL 5
REMARK VINA RESULT:      -8.2      5.785      7.253
REMARK  Name = 
REMARK  6 active torsions:
REMARK  status: ('A' for Active; 'I' for Inactive)
REMARK    1  A    between atoms: C_1  and  C_2
REMARK    2  A    between atoms: C_4  and  N_5
REMARK    3  A    between atoms: C_8  and  C_9
REMARK    4  A    between atoms: C_19  and  S_20
REMARK    5  A    between atoms: S_20  and  C_21
REMARK    6  A    between atoms: C_21  and  C_22
REMARK                            x       y       z     vdW  Elec       q    Type
REMARK                         _______ _______ _______ _____ _____    ______ ____
ROOT
ATOM      1  C   UNL     1       1.300   2.599  21.411  0.00  0.00    +0.000 C 
ATOM      2  C   UNL     1       2.273   3.516  20.712  0.00  0.00    +0.000 A 
ATOM      3  C   UNL     1       1.802   4.908  20.429  0.00  0.00    +0.000 A 
ATOM      4  C   UNL     1       2.676   5.736  19.834  0.00  0.00    +0.000 A 
ATOM      5  N   UNL     1       3.953   5.232  19.528  0.00  0.00    +0.000 N 
ATOM      6  N   UNL     1       4.985   5.878  18.932  0.00  0.00    +0.000 NA
ATOM      7  C   UNL     1       5.881   4.899  18.797  0.00  0.00    +0.000 A 
ATOM      8  N   UNL     1       5.515   3.688  19.302  0.00  0.00    +0.000 NA
ATOM      9  C   UNL     1       4.305   3.904  19.781  0.00  0.00    +0.000 A 
ATOM     10  N   UNL     1       3.444   3.045  20.405  0.00  0.00    +0.000 NA
ENDROOT
BRANCH   4  11
ATOM     11  N   UNL     1       2.429   7.059  19.456  0.00  0.00    +0.000 N 
ATOM     12  C   UNL     1       1.753   7.970  20.196  0.00  0.00    +0.000 A 
ATOM     13  C   UNL     1       1.126   9.094  19.605  0.00  0.00    +0.000 A 
ATOM     14  C   UNL     1       0.486   9.764  20.629  0.00  0.00    +0.000 A 
ATOM     15  N   UNL     1       0.754   9.009  21.741  0.00  0.00    +0.000 N 
ATOM     16  N   UNL     1       1.525   7.935  21.512  0.00  0.00    +0.000 NA
ATOM     17  H   UNL     1       2.305   7.123  18.442  0.00  0.00    +0.000 HD
ATOM     18  H   UNL     1       0.422   9.166  22.687  0.00  0.00    +0.000 HD
BRANCH  14  19
ATOM     19  C   UNL     1      -0.328  10.977  20.643  0.00  0.00    +0.000 A 
ATOM     20  C   UNL     1      -0.525  11.689  21.835  0.00  0.00    +0.000 A 
ATOM     21  C   UNL     1      -1.317  12.840  21.855  0.00  0.00    +0.000 A 
ATOM     22  C   UNL     1      -1.924  13.292  20.685  0.00  0.00    +0.000 A 
ATOM     23  C   UNL     1      -1.737  12.594  19.495  0.00  0.00    +0.000 A 
ATOM     24  C   UNL     1      -0.945  11.445  19.474  0.00  0.00    +0.000 A 
ENDBRANCH  14  19
ENDBRANCH   4  11
BRANCH   7  25
ATOM     25  S   UNL     1       7.409   5.233  18.033  0.00  0.00    +0.000 S 
BRANCH  25  26
ATOM     26  C   UNL     1       6.889   5.732  16.373  0.00  0.00    +0.000 C 
BRANCH  26  27
ATOM     27  C   UNL     1       7.013   4.543  15.459  0.00  0.00    +0.000 C 
ATOM     28  C   UNL     1       5.833   3.642  15.168  0.00  0.00    +0.000 C 
ATOM     29  C   UNL     1       6.359   4.552  14.096  0.00  0.00    +0.000 C 
ENDBRANCH  26  27
ENDBRANCH  25  26
ENDBRANCH   7  25
TORSDOF 5
ENDMDL
MODEL 6
REMARK VINA RESULT:      -8.2      2.545      4.576
REMARK  Name = 
REMARK  6 active torsions:
REMARK  status: ('A' for Active; 'I' for Inactive)
REMARK    1  A    between atoms: C_1  and  C_2
REMARK    2  A    between atoms: C_4  and  N_5
REMARK    3  A    between atoms: C_8  and  C_9
REMARK    4  A    between atoms: C_19  and  S_20
REMARK    5  A    between atoms: S_20  and  C_21
REMARK    6  A    between atoms: C_21  and  C_22
REMARK                            x       y       z     vdW  Elec       q    Type
REMARK                         _______ _______ _______ _____ _____    ______ ____
ROOT
ATOM      1  C   UNL     1       6.552   4.224  13.774  0.00  0.00    +0.000 C 
ATOM      2  C   UNL     1       6.162   4.614  15.179  0.00  0.00    +0.000 A 
ATOM      3  C   UNL     1       7.169   5.393  15.965  0.00  0.00    +0.000 A 
ATOM      4  C   UNL     1       6.814   5.769  17.205  0.00  0.00    +0.000 A 
ATOM      5  N   UNL     1       5.534   5.403  17.659  0.00  0.00    +0.000 N 
ATOM      6  N   UNL     1       4.967   5.668  18.861  0.00  0.00    +0.000 NA
ATOM      7  C   UNL     1       3.818   4.996  18.778  0.00  0.00    +0.000 A 
ATOM      8  N   UNL     1       3.589   4.359  17.596  0.00  0.00    +0.000 NA
ATOM      9  C   UNL     1       4.665   4.633  16.883  0.00  0.00    +0.000 A 
ATOM     10  N   UNL     1       4.990   4.255  15.610  0.00  0.00    +0.000 NA
ENDROOT
BRANCH   4  11
ATOM     11  N   UNL     1       7.612   6.471  18.112  0.00  0.00    +0.000 N 
ATOM     12  C   UNL     1       7.825   7.808  18.092  0.00  0.00    +0.000 A 
ATOM     13  C   UNL     1       8.970   8.390  18.692  0.00  0.00    +0.000 A 
ATOM     14  C   UNL     1       8.898   9.744  18.430  0.00  0.00    +0.000 A 
ATOM     15  N   UNL     1       7.748   9.884  17.697  0.00  0.00    +0.000 N 
ATOM     16  N   UNL     1       7.078   8.739  17.493  0.00  0.00    +0.000 NA
ATOM     17  H   UNL     1       8.402   5.894  18.413  0.00  0.00    +0.000 HD
ATOM     18  H   UNL     1       7.376  10.735  17.291  0.00  0.00    +0.000 HD
BRANCH  14  19
ATOM     19  C   UNL     1       9.783  10.854  18.776  0.00  0.00    +0.000 A 
ATOM     20  C   UNL     1       9.866  11.314  20.097  0.00  0.00    +0.000 A 
ATOM     21  C   UNL     1      10.700  12.386  20.429  0.00  0.00    +0.000 A 
ATOM     22  C   UNL     1      11.459  13.012  19.442  0.00  0.00    +0.000 A 
ATOM     23  C   UNL     1      11.386  12.565  18.126  0.00  0.00    +0.000 A 
ATOM     24  C   UNL     1      10.555  11.493  17.794  0.00  0.00    +0.000 A 
ENDBRANCH  14  19
ENDBRANCH   4  11
BRANCH   7  25
ATOM     25  S   UNL     1       2.720   4.999  20.130  0.00  0.00    +0.000 S 
BRANCH  25  26
ATOM     26  C   UNL     1       1.168   4.502  19.344  0.00  0.00    +0.000 C 
BRANCH  26  27
ATOM     27  C   UNL     1       0.875   3.078  19.732  0.00  0.00    +0.000 C 
ATOM     28  C   UNL     1       0.714   1.991  18.692  0.00  0.00    +0.000 C 
ATOM     29  C   UNL     1       1.929   2.007  19.572  0.00  0.00    +0.000 C 
ENDBRANCH  26  27
ENDBRANCH  25  26
ENDBRANCH   7  25
TORSDOF 5
ENDMDL
MODEL 7
REMARK VINA RESULT:      -8.1      5.804      7.168
REMARK  Name = 
REMARK  6 active torsions:
REMARK  status: ('A' for Active; 'I' for Inactive)
REMARK    1  A    between atoms: C_1  and  C_2
REMARK    2  A    between atoms: C_4  and  N_5
REMARK    3  A    between atoms: C_8  and  C_9
REMARK    4  A    between atoms: C_19  and  S_20
REMARK    5  A    between atoms: S_20  and  C_21
REMARK    6  A    between atoms: C_21  and  C_22
REMARK                            x       y       z     vdW  Elec       q    Type
REMARK                         _______ _______ _______ _____ _____    ______ ____
ROOT
ATOM      1  C   UNL     1       1.177   2.720  21.349  0.00  0.00    +0.000 C 
ATOM      2  C   UNL     1       2.169   3.615  20.649  0.00  0.00    +0.000 A 
ATOM      3  C   UNL     1       1.731   5.020  20.373  0.00  0.00    +0.000 A 
ATOM      4  C   UNL     1       2.622   5.829  19.777  0.00  0.00    +0.000 A 
ATOM      5  N   UNL     1       3.885   5.294  19.465  0.00  0.00    +0.000 N 
ATOM      6  N   UNL     1       4.931   5.917  18.867  0.00  0.00    +0.000 NA
ATOM      7  C   UNL     1       5.801   4.918  18.724  0.00  0.00    +0.000 A 
ATOM      8  N   UNL     1       5.408   3.714  19.227  0.00  0.00    +0.000 NA
ATOM      9  C   UNL     1       4.206   3.957  19.711  0.00  0.00    +0.000 A 
ATOM     10  N   UNL     1       3.328   3.117  20.336  0.00  0.00    +0.000 NA
ENDROOT
BRANCH   4  11
ATOM     11  N   UNL     1       2.406   7.158  19.405  0.00  0.00    +0.000 N 
ATOM     12  C   UNL     1       1.722   8.072  20.133  0.00  0.00    +0.000 A 
ATOM     13  C   UNL     1       1.129   9.211  19.535  0.00  0.00    +0.000 A 
ATOM     14  C   UNL     1       0.468   9.881  20.546  0.00  0.00    +0.000 A 
ATOM     15  N   UNL     1       0.691   9.112  21.658  0.00  0.00    +0.000 N 
ATOM     16  N   UNL     1       1.453   8.028  21.441  0.00  0.00    +0.000 NA
ATOM     17  H   UNL     1       2.313   7.233  18.388  0.00  0.00    +0.000 HD
ATOM     18  H   UNL     1       0.334   9.265  22.595  0.00  0.00    +0.000 HD
BRANCH  14  19
ATOM     19  C   UNL     1      -0.329  11.105  20.548  0.00  0.00    +0.000 A 
ATOM     20  C   UNL     1      -0.484  11.856  19.374  0.00  0.00    +0.000 A 
ATOM     21  C   UNL     1      -1.232  13.037  19.376  0.00  0.00    +0.000 A 
ATOM     22  C   UNL     1      -1.833  13.482  20.552  0.00  0.00    +0.000 A 
ATOM     23  C   UNL     1      -1.687  12.745  21.725  0.00  0.00    +0.000 A 
ATOM     24  C   UNL     1      -0.940  11.565  21.723  0.00  0.00    +0.000 A 
ENDBRANCH  14  19
ENDBRANCH   4  11
BRANCH   7  25
ATOM     25  S   UNL     1       7.335   5.217  17.955  0.00  0.00    +0.000 S 
BRANCH  25  26
ATOM     26  C   UNL     1       6.819   5.920  16.369  0.00  0.00    +0.000 C 
BRANCH  26  27
ATOM     27  C   UNL     1       5.785   5.012  15.761  0.00  0.00    +0.000 C 
ATOM     28  C   UNL     1       5.826   4.631  14.298  0.00  0.00    +0.000 C 
ATOM     29  C   UNL     1       6.148   3.606  15.345  0.00  0.00    +0.000 C 
ENDBRANCH  26  27
ENDBRANCH  25  26
ENDBRANCH   7  25
TORSDOF 5
ENDMDL
MODEL 8
REMARK VINA RESULT:      -8.1      0.798      1.275
REMARK  Name = 
REMARK  6 active torsions:
REMARK  status: ('A' for Active; 'I' for Inactive)
REMARK    1  A    between atoms: C_1  and  C_2
REMARK    2  A    between atoms: C_4  and  N_5
REMARK    3  A    between atoms: C_8  and  C_9
REMARK    4  A    between atoms: C_19  and  S_20
REMARK    5  A    between atoms: S_20  and  C_21
REMARK    6  A    between atoms: C_21  and  C_22
REMARK                            x       y       z     vdW  Elec       q    Type
REMARK                         _______ _______ _______ _____ _____    ______ ____
ROOT
ATOM      1  C   UNL     1       4.156   4.204  19.391  0.00  0.00    +0.000 C 
ATOM      2  C   UNL     1       4.849   4.632  18.121  0.00  0.00    +0.000 A 
ATOM      3  C   UNL     1       5.493   5.983  18.127  0.00  0.00    +0.000 A 
ATOM      4  C   UNL     1       6.138   6.354  17.010  0.00  0.00    +0.000 A 
ATOM      5  N   UNL     1       6.156   5.450  15.933  0.00  0.00    +0.000 N 
ATOM      6  N   UNL     1       6.738   5.608  14.718  0.00  0.00    +0.000 NA
ATOM      7  C   UNL     1       6.344   4.507  14.078  0.00  0.00    +0.000 A 
ATOM      8  N   UNL     1       5.593   3.635  14.808  0.00  0.00    +0.000 NA
ATOM      9  C   UNL     1       5.491   4.222  15.984  0.00  0.00    +0.000 A 
ATOM     10  N   UNL     1       4.846   3.808  17.116  0.00  0.00    +0.000 NA
ENDROOT
BRANCH   4  11
ATOM     11  N   UNL     1       6.776   7.579  16.796  0.00  0.00    +0.000 N 
ATOM     12  C   UNL     1       7.655   8.160  17.647  0.00  0.00    +0.000 A 
ATOM     13  C   UNL     1       7.894   9.557  17.634  0.00  0.00    +0.000 A 
ATOM     14  C   UNL     1       8.785   9.807  18.659  0.00  0.00    +0.000 A 
ATOM     15  N   UNL     1       9.010   8.575  19.216  0.00  0.00    +0.000 N 
ATOM     16  N   UNL     1       8.355   7.567  18.618  0.00  0.00    +0.000 NA
ATOM     17  H   UNL     1       6.163   8.216  16.280  0.00  0.00    +0.000 HD
ATOM     18  H   UNL     1       9.587   8.359  20.021  0.00  0.00    +0.000 HD
BRANCH  14  19
ATOM     19  C   UNL     1       9.393  11.044  19.144  0.00  0.00    +0.000 A 
ATOM     20  C   UNL     1       9.493  12.164  18.308  0.00  0.00    +0.000 A 
ATOM     21  C   UNL     1      10.089  13.344  18.763  0.00  0.00    +0.000 A 
ATOM     22  C   UNL     1      10.594  13.416  20.060  0.00  0.00    +0.000 A 
ATOM     23  C   UNL     1      10.501  12.311  20.901  0.00  0.00    +0.000 A 
ATOM     24  C   UNL     1       9.904  11.132  20.447  0.00  0.00    +0.000 A 
ENDBRANCH  14  19
ENDBRANCH   4  11
BRANCH   7  25
ATOM     25  S   UNL     1       6.822   4.258  12.422  0.00  0.00    +0.000 S 
BRANCH  25  26
ATOM     26  C   UNL     1       5.566   3.088  11.849  0.00  0.00    +0.000 C 
BRANCH  26  27
ATOM     27  C   UNL     1       6.144   1.701  11.915  0.00  0.00    +0.000 C 
ATOM     28  C   UNL     1       5.935   0.701  10.798  0.00  0.00    +0.000 C 
ATOM     29  C   UNL     1       7.292   1.305  11.015  0.00  0.00    +0.000 C 
ENDBRANCH  26  27
ENDBRANCH  25  26
ENDBRANCH   7  25
TORSDOF 5
ENDMDL
MODEL 9
REMARK VINA RESULT:      -8.1      5.925      7.112
REMARK  Name = 
REMARK  6 active torsions:
REMARK  status: ('A' for Active; 'I' for Inactive)
REMARK    1  A    between atoms: C_1  and  C_2
REMARK    2  A    between atoms: C_4  and  N_5
REMARK    3  A    between atoms: C_8  and  C_9
REMARK    4  A    between atoms: C_19  and  S_20
REMARK    5  A    between atoms: S_20  and  C_21
REMARK    6  A    between atoms: C_21  and  C_22
REMARK                            x       y       z     vdW  Elec       q    Type
REMARK                         _______ _______ _______ _____ _____    ______ ____
ROOT
ATOM      1  C   UNL     1       1.504   2.842  21.417  0.00  0.00    +0.000 C 
ATOM      2  C   UNL     1       2.272   3.770  20.508  0.00  0.00    +0.000 A 
ATOM      3  C   UNL     1       1.812   5.194  20.456  0.00  0.00    +0.000 A 
ATOM      4  C   UNL     1       2.512   6.030  19.672  0.00  0.00    +0.000 A 
ATOM      5  N   UNL     1       3.611   5.504  18.970  0.00  0.00    +0.000 N 
ATOM      6  N   UNL     1       4.453   6.153  18.127  0.00  0.00    +0.000 NA
ATOM      7  C   UNL     1       5.213   5.156  17.676  0.00  0.00    +0.000 A 
ATOM      8  N   UNL     1       4.951   3.926  18.201  0.00  0.00    +0.000 NA
ATOM      9  C   UNL     1       3.952   4.151  19.032  0.00  0.00    +0.000 A 
ATOM     10  N   UNL     1       3.272   3.281  19.839  0.00  0.00    +0.000 NA
ENDROOT
BRANCH   4  11
ATOM     11  N   UNL     1       2.235   7.383  19.458  0.00  0.00    +0.000 N 
ATOM     12  C   UNL     1       1.565   8.188  20.316  0.00  0.00    +0.000 A 
ATOM     13  C   UNL     1       0.905   9.362  19.877  0.00  0.00    +0.000 A 
ATOM     14  C   UNL     1       0.281   9.895  20.989  0.00  0.00    +0.000 A 
ATOM     15  N   UNL     1       0.590   9.021  21.998  0.00  0.00    +0.000 N 
ATOM     16  N   UNL     1       1.372   7.995  21.624  0.00  0.00    +0.000 NA
ATOM     17  H   UNL     1       2.082   7.563  18.462  0.00  0.00    +0.000 HD
ATOM     18  H   UNL     1       0.282   9.060  22.963  0.00  0.00    +0.000 HD
BRANCH  14  19
ATOM     19  C   UNL     1      -0.551  11.082  21.165  0.00  0.00    +0.000 A 
ATOM     20  C   UNL     1      -1.206  11.663  20.071  0.00  0.00    +0.000 A 
ATOM     21  C   UNL     1      -1.990  12.809  20.233  0.00  0.00    +0.000 A 
ATOM     22  C   UNL     1      -2.128  13.388  21.493  0.00  0.00    +0.000 A 
ATOM     23  C   UNL     1      -1.483  12.822  22.589  0.00  0.00    +0.000 A 
ATOM     24  C   UNL     1      -0.700  11.676  22.427  0.00  0.00    +0.000 A 
ENDBRANCH  14  19
ENDBRANCH   4  11
BRANCH   7  25
ATOM     25  S   UNL     1       6.461   5.488  16.507  0.00  0.00    +0.000 S 
BRANCH  25  26
ATOM     26  C   UNL     1       5.592   5.189  14.947  0.00  0.00    +0.000 C 
BRANCH  26  27
ATOM     27  C   UNL     1       6.295   4.076  14.218  0.00  0.00    +0.000 C 
ATOM     28  C   UNL     1       5.770   3.532  12.908  0.00  0.00    +0.000 C 
ATOM     29  C   UNL     1       7.027   4.350  12.925  0.00  0.00    +0.000 C 
ENDBRANCH  26  27
ENDBRANCH  25  26
ENDBRANCH   7  25
TORSDOF 5
ENDMDL
