MODEL 1
REMARK VINA RESULT:      -7.3      0.000      0.000
REMARK  Name = 
REMARK  6 active torsions:
REMARK  status: ('A' for Active; 'I' for Inactive)
REMARK    1  A    between atoms: C_2  and  S_4
REMARK    2  A    between atoms: S_4  and  C_5
REMARK    3  A    between atoms: C_5  and  C_6
REMARK    4  A    between atoms: C_14  and  C_15
REMARK    5  A    between atoms: C_15  and  S_16
REMARK    6  A    between atoms: S_16  and  C_17
REMARK                            x       y       z     vdW  Elec       q    Type
REMARK                         _______ _______ _______ _____ _____    ______ ____
ROOT
ATOM      1  C   UNL     1       0.988  10.157  19.469  0.00  0.00    +0.000 A 
ATOM      2  C   UNL     1       0.173  10.526  20.559  0.00  0.00    +0.000 A 
ATOM      3  C   UNL     1      -0.121   9.639  21.583  0.00  0.00    +0.000 A 
ATOM      4  C   UNL     1       0.390   8.343  21.547  0.00  0.00    +0.000 A 
ATOM      5  C   UNL     1       1.211   7.911  20.475  0.00  0.00    +0.000 A 
ATOM      6  C   UNL     1       1.505   8.828  19.466  0.00  0.00    +0.000 A 
ATOM      7  S   UNL     1       2.546   8.119  18.301  0.00  0.00    +0.000 S 
ATOM      8  C   UNL     1       2.575   6.573  19.057  0.00  0.00    +0.000 A 
ATOM      9  C   UNL     1       3.266   5.405  18.604  0.00  0.00    +0.000 A 
ATOM     10  C   UNL     1       3.183   4.271  19.448  0.00  0.00    +0.000 A 
ATOM     11 BR   UNL     1       4.115   2.647  19.082  0.00  0.00    +0.000 Br
ATOM     12  C   UNL     1       2.440   4.284  20.626  0.00  0.00    +0.000 A 
ATOM     13  C   UNL     1       1.766   5.435  21.021  0.00  0.00    +0.000 A 
ATOM     14  C   UNL     1       1.828   6.612  20.238  0.00  0.00    +0.000 A 
ENDROOT
BRANCH   1  15
ATOM     15  C   UNL     1       1.313  11.195  18.412  0.00  0.00    +0.000 C 
BRANCH  15  16
ATOM     16  S   UNL     1       1.238  12.898  19.038  0.00  0.00    +0.000 S 
BRANCH  16  18
ATOM     17  N   UNL     1      -0.931  12.694  17.543  0.00  0.00    +0.000 NA
ATOM     18  C   UNL     1      -0.297  13.405  18.395  0.00  0.00    +0.000 C 
ATOM     19  N   UNL     1      -0.750  14.582  18.879  0.00  0.00    +0.000 N 
ATOM     20  H   UNL     1      -1.788  13.184  17.274  0.00  0.00    +0.000 HD
ATOM     21  H   UNL     1      -1.747  14.739  18.849  0.00  0.00    +0.000 HD
ATOM     22  H   UNL     1      -0.322  14.860  19.753  0.00  0.00    +0.000 HD
ENDBRANCH  16  18
ENDBRANCH  15  16
ENDBRANCH   1  15
BRANCH   9  23
ATOM     23  C   UNL     1       4.086   5.404  17.324  0.00  0.00    +0.000 C 
BRANCH  23  24
ATOM     24  S   UNL     1       5.632   6.352  17.451  0.00  0.00    +0.000 S 
BRANCH  24  25
ATOM     25  C   UNL     1       6.586   5.261  18.399  0.00  0.00    +0.000 C 
ATOM     26  N   UNL     1       6.681   5.363  19.672  0.00  0.00    +0.000 NA
ATOM     27  N   UNL     1       7.168   4.251  17.719  0.00  0.00    +0.000 N 
ATOM     28  H   UNL     1       6.114   6.155  19.988  0.00  0.00    +0.000 HD
ATOM     29  H   UNL     1       6.677   3.990  16.873  0.00  0.00    +0.000 HD
ATOM     30  H   UNL     1       7.388   3.468  18.323  0.00  0.00    +0.000 HD
ENDBRANCH  24  25
ENDBRANCH  23  24
ENDBRANCH   9  23
TORSDOF 6
ENDMDL
MODEL 2
REMARK VINA RESULT:      -7.3      0.992      1.246
REMARK  Name = 
REMARK  6 active torsions:
REMARK  status: ('A' for Active; 'I' for Inactive)
REMARK    1  A    between atoms: C_2  and  S_4
REMARK    2  A    between atoms: S_4  and  C_5
REMARK    3  A    between atoms: C_5  and  C_6
REMARK    4  A    between atoms: C_14  and  C_15
REMARK    5  A    between atoms: C_15  and  S_16
REMARK    6  A    between atoms: S_16  and  C_17
REMARK                            x       y       z     vdW  Elec       q    Type
REMARK                         _______ _______ _______ _____ _____    ______ ____
ROOT
ATOM      1  C   UNL     1       0.844  10.220  19.594  0.00  0.00    +0.000 A 
ATOM      2  C   UNL     1       0.047  10.549  20.711  0.00  0.00    +0.000 A 
ATOM      3  C   UNL     1      -0.200   9.637  21.725  0.00  0.00    +0.000 A 
ATOM      4  C   UNL     1       0.340   8.354  21.651  0.00  0.00    +0.000 A 
ATOM      5  C   UNL     1       1.145   7.962  20.552  0.00  0.00    +0.000 A 
ATOM      6  C   UNL     1       1.391   8.904  19.553  0.00  0.00    +0.000 A 
ATOM      7  S   UNL     1       2.420   8.241  18.350  0.00  0.00    +0.000 S 
ATOM      8  C   UNL     1       2.504   6.683  19.076  0.00  0.00    +0.000 A 
ATOM      9  C   UNL     1       3.211   5.541  18.583  0.00  0.00    +0.000 A 
ATOM     10  C   UNL     1       3.176   4.390  19.408  0.00  0.00    +0.000 A 
ATOM     11 BR   UNL     1       4.136   2.796  18.988  0.00  0.00    +0.000 Br
ATOM     12  C   UNL     1       2.463   4.363  20.604  0.00  0.00    +0.000 A 
ATOM     13  C   UNL     1       1.771   5.490  21.037  0.00  0.00    +0.000 A 
ATOM     14  C   UNL     1       1.786   6.682  20.275  0.00  0.00    +0.000 A 
ENDROOT
BRANCH   1  15
ATOM     15  C   UNL     1       1.118  11.285  18.549  0.00  0.00    +0.000 C 
BRANCH  15  16
ATOM     16  S   UNL     1       1.160  12.965  19.237  0.00  0.00    +0.000 S 
BRANCH  16  18
ATOM     17  N   UNL     1      -0.591  14.866  18.689  0.00  0.00    +0.000 NA
ATOM     18  C   UNL     1      -0.251  13.651  18.485  0.00  0.00    +0.000 C 
ATOM     19  N   UNL     1      -0.927  12.806  17.677  0.00  0.00    +0.000 N 
ATOM     20  H   UNL     1      -1.458  15.058  18.183  0.00  0.00    +0.000 HD
ATOM     21  H   UNL     1      -1.494  13.219  16.951  0.00  0.00    +0.000 HD
ATOM     22  H   UNL     1      -0.383  12.011  17.365  0.00  0.00    +0.000 HD
ENDBRANCH  16  18
ENDBRANCH  15  16
ENDBRANCH   1  15
BRANCH   9  23
ATOM     23  C   UNL     1       3.999   5.583  17.284  0.00  0.00    +0.000 C 
BRANCH  23  24
ATOM     24  S   UNL     1       5.743   6.045  17.507  0.00  0.00    +0.000 S 
BRANCH  24  25
ATOM     25  C   UNL     1       6.489   5.009  16.336  0.00  0.00    +0.000 C 
ATOM     26  N   UNL     1       6.150   3.783  16.193  0.00  0.00    +0.000 NA
ATOM     27  N   UNL     1       7.402   5.596  15.534  0.00  0.00    +0.000 N 
ATOM     28  H   UNL     1       5.401   3.562  16.855  0.00  0.00    +0.000 HD
ATOM     29  H   UNL     1       7.256   6.590  15.404  0.00  0.00    +0.000 HD
ATOM     30  H   UNL     1       7.528   5.084  14.669  0.00  0.00    +0.000 HD
ENDBRANCH  24  25
ENDBRANCH  23  24
ENDBRANCH   9  23
TORSDOF 6
ENDMDL
MODEL 3
REMARK VINA RESULT:      -7.0      2.713      7.269
REMARK  Name = 
REMARK  6 active torsions:
REMARK  status: ('A' for Active; 'I' for Inactive)
REMARK    1  A    between atoms: C_2  and  S_4
REMARK    2  A    between atoms: S_4  and  C_5
REMARK    3  A    between atoms: C_5  and  C_6
REMARK    4  A    between atoms: C_14  and  C_15
REMARK    5  A    between atoms: C_15  and  S_16
REMARK    6  A    between atoms: S_16  and  C_17
REMARK                            x       y       z     vdW  Elec       q    Type
REMARK                         _______ _______ _______ _____ _____    ______ ____
ROOT
ATOM      1  C   UNL     1       3.734   6.289  18.019  0.00  0.00    +0.000 A 
ATOM      2  C   UNL     1       3.938   5.005  18.565  0.00  0.00    +0.000 A 
ATOM      3  C   UNL     1       3.303   4.597  19.729  0.00  0.00    +0.000 A 
ATOM      4  C   UNL     1       2.442   5.470  20.392  0.00  0.00    +0.000 A 
ATOM      5  C   UNL     1       2.200   6.776  19.895  0.00  0.00    +0.000 A 
ATOM      6  C   UNL     1       2.839   7.154  18.714  0.00  0.00    +0.000 A 
ATOM      7  S   UNL     1       2.372   8.744  18.268  0.00  0.00    +0.000 S 
ATOM      8  C   UNL     1       1.379   8.995  19.651  0.00  0.00    +0.000 A 
ATOM      9  C   UNL     1       0.643  10.177  19.981  0.00  0.00    +0.000 A 
ATOM     10  C   UNL     1      -0.155  10.103  21.149  0.00  0.00    +0.000 A 
ATOM     11 BR   UNL     1      -1.292  11.529  21.707  0.00  0.00    +0.000 Br
ATOM     12  C   UNL     1      -0.185   8.963  21.948  0.00  0.00    +0.000 A 
ATOM     13  C   UNL     1       0.563   7.841  21.603  0.00  0.00    +0.000 A 
ATOM     14  C   UNL     1       1.360   7.837  20.435  0.00  0.00    +0.000 A 
ENDROOT
BRANCH   1  15
ATOM     15  C   UNL     1       4.418   6.648  16.714  0.00  0.00    +0.000 C 
BRANCH  15  16
ATOM     16  S   UNL     1       5.316   5.255  15.973  0.00  0.00    +0.000 S 
BRANCH  16  18
ATOM     17  N   UNL     1       7.430   6.710  16.599  0.00  0.00    +0.000 NA
ATOM     18  C   UNL     1       6.916   5.541  16.596  0.00  0.00    +0.000 C 
ATOM     19  N   UNL     1       7.539   4.442  17.074  0.00  0.00    +0.000 N 
ATOM     20  H   UNL     1       8.380   6.654  16.975  0.00  0.00    +0.000 HD
ATOM     21  H   UNL     1       8.265   4.588  17.761  0.00  0.00    +0.000 HD
ATOM     22  H   UNL     1       6.913   3.679  17.300  0.00  0.00    +0.000 HD
ENDBRANCH  16  18
ENDBRANCH  15  16
ENDBRANCH   1  15
BRANCH   9  23
ATOM     23  C   UNL     1       0.670  11.413  19.095  0.00  0.00    +0.000 C 
BRANCH  23  24
ATOM     24  S   UNL     1       1.678  12.767  19.770  0.00  0.00    +0.000 S 
BRANCH  24  25
ATOM     25  C   UNL     1       2.694  13.104  18.407  0.00  0.00    +0.000 C 
ATOM     26  N   UNL     1       2.641  12.418  17.328  0.00  0.00    +0.000 NA
ATOM     27  N   UNL     1       3.496  14.182  18.530  0.00  0.00    +0.000 N 
ATOM     28  H   UNL     1       1.925  11.693  17.427  0.00  0.00    +0.000 HD
ATOM     29  H   UNL     1       3.142  14.888  19.164  0.00  0.00    +0.000 HD
ATOM     30  H   UNL     1       3.776  14.547  17.626  0.00  0.00    +0.000 HD
ENDBRANCH  24  25
ENDBRANCH  23  24
ENDBRANCH   9  23
TORSDOF 6
ENDMDL
MODEL 4
REMARK VINA RESULT:      -7.0      2.679      7.309
REMARK  Name = 
REMARK  6 active torsions:
REMARK  status: ('A' for Active; 'I' for Inactive)
REMARK    1  A    between atoms: C_2  and  S_4
REMARK    2  A    between atoms: S_4  and  C_5
REMARK    3  A    between atoms: C_5  and  C_6
REMARK    4  A    between atoms: C_14  and  C_15
REMARK    5  A    between atoms: C_15  and  S_16
REMARK    6  A    between atoms: S_16  and  C_17
REMARK                            x       y       z     vdW  Elec       q    Type
REMARK                         _______ _______ _______ _____ _____    ______ ____
ROOT
ATOM      1  C   UNL     1       3.491   6.049  18.442  0.00  0.00    +0.000 A 
ATOM      2  C   UNL     1       3.581   4.785  19.060  0.00  0.00    +0.000 A 
ATOM      3  C   UNL     1       2.869   4.483  20.211  0.00  0.00    +0.000 A 
ATOM      4  C   UNL     1       2.043   5.445  20.789  0.00  0.00    +0.000 A 
ATOM      5  C   UNL     1       1.914   6.736  20.217  0.00  0.00    +0.000 A 
ATOM      6  C   UNL     1       2.629   7.008  19.050  0.00  0.00    +0.000 A 
ATOM      7  S   UNL     1       2.294   8.601  18.505  0.00  0.00    +0.000 S 
ATOM      8  C   UNL     1       1.261   8.990  19.826  0.00  0.00    +0.000 A 
ATOM      9  C   UNL     1       0.596  10.235  20.061  0.00  0.00    +0.000 A 
ATOM     10  C   UNL     1      -0.255  10.276  21.192  0.00  0.00    +0.000 A 
ATOM     11 BR   UNL     1      -1.314  11.802  21.625  0.00  0.00    +0.000 Br
ATOM     12  C   UNL     1      -0.400   9.184  22.044  0.00  0.00    +0.000 A 
ATOM     13  C   UNL     1       0.282   7.998  21.791  0.00  0.00    +0.000 A 
ATOM     14  C   UNL     1       1.127   7.879  20.663  0.00  0.00    +0.000 A 
ENDROOT
BRANCH   1  15
ATOM     15  C   UNL     1       4.255   6.292  17.155  0.00  0.00    +0.000 C 
BRANCH  15  16
ATOM     16  S   UNL     1       5.027   4.790  16.489  0.00  0.00    +0.000 S 
BRANCH  16  18
ATOM     17  N   UNL     1       7.190   4.411  17.958  0.00  0.00    +0.000 NA
ATOM     18  C   UNL     1       6.679   5.041  16.971  0.00  0.00    +0.000 C 
ATOM     19  N   UNL     1       7.357   5.932  16.215  0.00  0.00    +0.000 N 
ATOM     20  H   UNL     1       8.154   4.726  18.091  0.00  0.00    +0.000 HD
ATOM     21  H   UNL     1       8.363   5.846  16.193  0.00  0.00    +0.000 HD
ATOM     22  H   UNL     1       6.944   6.100  15.306  0.00  0.00    +0.000 HD
ENDBRANCH  16  18
ENDBRANCH  15  16
ENDBRANCH   1  15
BRANCH   9  23
ATOM     23  C   UNL     1       0.748  11.417  19.118  0.00  0.00    +0.000 C 
BRANCH  23  24
ATOM     24  S   UNL     1       1.803  12.742  19.779  0.00  0.00    +0.000 S 
BRANCH  24  25
ATOM     25  C   UNL     1       2.595  13.259  18.327  0.00  0.00    +0.000 C 
ATOM     26  N   UNL     1       3.069  14.441  18.190  0.00  0.00    +0.000 NA
ATOM     27  N   UNL     1       2.743  12.315  17.374  0.00  0.00    +0.000 N 
ATOM     28  H   UNL     1       2.904  14.970  19.050  0.00  0.00    +0.000 HD
ATOM     29  H   UNL     1       2.778  11.370  17.735  0.00  0.00    +0.000 HD
ATOM     30  H   UNL     1       3.500  12.538  16.738  0.00  0.00    +0.000 HD
ENDBRANCH  24  25
ENDBRANCH  23  24
ENDBRANCH   9  23
TORSDOF 6
ENDMDL
MODEL 5
REMARK VINA RESULT:      -7.0      1.397      1.558
REMARK  Name = 
REMARK  6 active torsions:
REMARK  status: ('A' for Active; 'I' for Inactive)
REMARK    1  A    between atoms: C_2  and  S_4
REMARK    2  A    between atoms: S_4  and  C_5
REMARK    3  A    between atoms: C_5  and  C_6
REMARK    4  A    between atoms: C_14  and  C_15
REMARK    5  A    between atoms: C_15  and  S_16
REMARK    6  A    between atoms: S_16  and  C_17
REMARK                            x       y       z     vdW  Elec       q    Type
REMARK                         _______ _______ _______ _____ _____    ______ ____
ROOT
ATOM      1  C   UNL     1       0.845  10.020  19.732  0.00  0.00    +0.000 A 
ATOM      2  C   UNL     1       0.085  10.332  20.879  0.00  0.00    +0.000 A 
ATOM      3  C   UNL     1      -0.119   9.408  21.893  0.00  0.00    +0.000 A 
ATOM      4  C   UNL     1       0.430   8.131  21.789  0.00  0.00    +0.000 A 
ATOM      5  C   UNL     1       1.199   7.756  20.658  0.00  0.00    +0.000 A 
ATOM      6  C   UNL     1       1.402   8.710  19.661  0.00  0.00    +0.000 A 
ATOM      7  S   UNL     1       2.393   8.067  18.416  0.00  0.00    +0.000 S 
ATOM      8  C   UNL     1       2.517   6.503  19.124  0.00  0.00    +0.000 A 
ATOM      9  C   UNL     1       3.215   5.371  18.597  0.00  0.00    +0.000 A 
ATOM     10  C   UNL     1       3.220   4.213  19.412  0.00  0.00    +0.000 A 
ATOM     11 BR   UNL     1       4.178   2.632  18.944  0.00  0.00    +0.000 Br
ATOM     12  C   UNL     1       2.549   4.169  20.631  0.00  0.00    +0.000 A 
ATOM     13  C   UNL     1       1.863   5.286  21.099  0.00  0.00    +0.000 A 
ATOM     14  C   UNL     1       1.841   6.485  20.348  0.00  0.00    +0.000 A 
ENDROOT
BRANCH   1  15
ATOM     15  C   UNL     1       1.072  11.096  18.689  0.00  0.00    +0.000 C 
BRANCH  15  16
ATOM     16  S   UNL     1      -0.174  12.416  18.741  0.00  0.00    +0.000 S 
BRANCH  16  18
ATOM     17  N   UNL     1      -2.657  12.152  17.878  0.00  0.00    +0.000 NA
ATOM     18  C   UNL     1      -1.481  11.651  17.885  0.00  0.00    +0.000 C 
ATOM     19  N   UNL     1      -1.143  10.517  17.235  0.00  0.00    +0.000 N 
ATOM     20  H   UNL     1      -3.278  11.535  17.348  0.00  0.00    +0.000 HD
ATOM     21  H   UNL     1      -1.717  10.247  16.450  0.00  0.00    +0.000 HD
ATOM     22  H   UNL     1      -0.150  10.421  17.063  0.00  0.00    +0.000 HD
ENDBRANCH  16  18
ENDBRANCH  15  16
ENDBRANCH   1  15
BRANCH   9  23
ATOM     23  C   UNL     1       3.957   5.432  17.271  0.00  0.00    +0.000 C 
BRANCH  23  24
ATOM     24  S   UNL     1       5.687   5.968  17.431  0.00  0.00    +0.000 S 
BRANCH  24  25
ATOM     25  C   UNL     1       6.438   4.943  16.253  0.00  0.00    +0.000 C 
ATOM     26  N   UNL     1       6.091   3.721  16.089  0.00  0.00    +0.000 NA
ATOM     27  N   UNL     1       7.364   5.533  15.471  0.00  0.00    +0.000 N 
ATOM     28  H   UNL     1       5.332   3.498  16.740  0.00  0.00    +0.000 HD
ATOM     29  H   UNL     1       7.228   6.529  15.353  0.00  0.00    +0.000 HD
ATOM     30  H   UNL     1       7.495   5.032  14.599  0.00  0.00    +0.000 HD
ENDBRANCH  24  25
ENDBRANCH  23  24
ENDBRANCH   9  23
TORSDOF 6
ENDMDL
MODEL 6
REMARK VINA RESULT:      -6.9      1.473      1.577
REMARK  Name = 
REMARK  6 active torsions:
REMARK  status: ('A' for Active; 'I' for Inactive)
REMARK    1  A    between atoms: C_2  and  S_4
REMARK    2  A    between atoms: S_4  and  C_5
REMARK    3  A    between atoms: C_5  and  C_6
REMARK    4  A    between atoms: C_14  and  C_15
REMARK    5  A    between atoms: C_15  and  S_16
REMARK    6  A    between atoms: S_16  and  C_17
REMARK                            x       y       z     vdW  Elec       q    Type
REMARK                         _______ _______ _______ _____ _____    ______ ____
ROOT
ATOM      1  C   UNL     1       1.045  10.080  19.613  0.00  0.00    +0.000 A 
ATOM      2  C   UNL     1       0.264  10.433  20.733  0.00  0.00    +0.000 A 
ATOM      3  C   UNL     1      -0.018   9.524  21.741  0.00  0.00    +0.000 A 
ATOM      4  C   UNL     1       0.470   8.221  21.657  0.00  0.00    +0.000 A 
ATOM      5  C   UNL     1       1.257   7.805  20.554  0.00  0.00    +0.000 A 
ATOM      6  C   UNL     1       1.540   8.744  19.562  0.00  0.00    +0.000 A 
ATOM      7  S   UNL     1       2.540   8.050  18.352  0.00  0.00    +0.000 S 
ATOM      8  C   UNL     1       2.563   6.484  19.067  0.00  0.00    +0.000 A 
ATOM      9  C   UNL     1       3.223   5.318  18.565  0.00  0.00    +0.000 A 
ATOM     10  C   UNL     1       3.144   4.164  19.382  0.00  0.00    +0.000 A 
ATOM     11 BR   UNL     1       4.039   2.536  18.949  0.00  0.00    +0.000 Br
ATOM     12  C   UNL     1       2.431   4.157  20.578  0.00  0.00    +0.000 A 
ATOM     13  C   UNL     1       1.785   5.307  21.020  0.00  0.00    +0.000 A 
ATOM     14  C   UNL     1       1.847   6.503  20.267  0.00  0.00    +0.000 A 
ENDROOT
BRANCH   1  15
ATOM     15  C   UNL     1       1.360  11.141  18.575  0.00  0.00    +0.000 C 
BRANCH  15  16
ATOM     16  S   UNL     1       0.816  12.802  19.066  0.00  0.00    +0.000 S 
BRANCH  16  18
ATOM     17  N   UNL     1       2.401  13.282  21.124  0.00  0.00    +0.000 NA
ATOM     18  C   UNL     1       2.250  13.385  19.860  0.00  0.00    +0.000 C 
ATOM     19  N   UNL     1       3.170  13.929  19.034  0.00  0.00    +0.000 N 
ATOM     20  H   UNL     1       3.291  13.711  21.389  0.00  0.00    +0.000 HD
ATOM     21  H   UNL     1       4.129  13.934  19.351  0.00  0.00    +0.000 HD
ATOM     22  H   UNL     1       3.065  13.657  18.064  0.00  0.00    +0.000 HD
ENDBRANCH  16  18
ENDBRANCH  15  16
ENDBRANCH   1  15
BRANCH   9  23
ATOM     23  C   UNL     1       4.011   5.338  17.265  0.00  0.00    +0.000 C 
BRANCH  23  24
ATOM     24  S   UNL     1       5.681   6.035  17.439  0.00  0.00    +0.000 S 
BRANCH  24  25
ATOM     25  C   UNL     1       6.637   4.611  17.187  0.00  0.00    +0.000 C 
ATOM     26  N   UNL     1       7.627   4.310  17.941  0.00  0.00    +0.000 NA
ATOM     27  N   UNL     1       6.229   3.803  16.187  0.00  0.00    +0.000 N 
ATOM     28  H   UNL     1       7.722   5.022  18.670  0.00  0.00    +0.000 HD
ATOM     29  H   UNL     1       5.238   3.866  15.987  0.00  0.00    +0.000 HD
ATOM     30  H   UNL     1       6.562   2.854  16.311  0.00  0.00    +0.000 HD
ENDBRANCH  24  25
ENDBRANCH  23  24
ENDBRANCH   9  23
TORSDOF 6
ENDMDL
MODEL 7
REMARK VINA RESULT:      -6.9      1.232      1.384
REMARK  Name = 
REMARK  6 active torsions:
REMARK  status: ('A' for Active; 'I' for Inactive)
REMARK    1  A    between atoms: C_2  and  S_4
REMARK    2  A    between atoms: S_4  and  C_5
REMARK    3  A    between atoms: C_5  and  C_6
REMARK    4  A    between atoms: C_14  and  C_15
REMARK    5  A    between atoms: C_15  and  S_16
REMARK    6  A    between atoms: S_16  and  C_17
REMARK                            x       y       z     vdW  Elec       q    Type
REMARK                         _______ _______ _______ _____ _____    ______ ____
ROOT
ATOM      1  C   UNL     1       0.952   9.959  19.597  0.00  0.00    +0.000 A 
ATOM      2  C   UNL     1       0.201  10.347  20.726  0.00  0.00    +0.000 A 
ATOM      3  C   UNL     1      -0.042   9.474  21.776  0.00  0.00    +0.000 A 
ATOM      4  C   UNL     1       0.456   8.173  21.726  0.00  0.00    +0.000 A 
ATOM      5  C   UNL     1       1.214   7.723  20.616  0.00  0.00    +0.000 A 
ATOM      6  C   UNL     1       1.457   8.626  19.581  0.00  0.00    +0.000 A 
ATOM      7  S   UNL     1       2.427   7.895  18.369  0.00  0.00    +0.000 S 
ATOM      8  C   UNL     1       2.487   6.358  19.140  0.00  0.00    +0.000 A 
ATOM      9  C   UNL     1       3.142   5.179  18.663  0.00  0.00    +0.000 A 
ATOM     10  C   UNL     1       3.098   4.055  19.524  0.00  0.00    +0.000 A 
ATOM     11 BR   UNL     1       3.996   2.420  19.126  0.00  0.00    +0.000 Br
ATOM     12  C   UNL     1       2.422   4.088  20.741  0.00  0.00    +0.000 A 
ATOM     13  C   UNL     1       1.779   5.249  21.159  0.00  0.00    +0.000 A 
ATOM     14  C   UNL     1       1.806   6.416  20.360  0.00  0.00    +0.000 A 
ENDROOT
BRANCH   1  15
ATOM     15  C   UNL     1       1.225  10.982  18.512  0.00  0.00    +0.000 C 
BRANCH  15  16
ATOM     16  S   UNL     1       0.974  12.693  19.065  0.00  0.00    +0.000 S 
BRANCH  16  18
ATOM     17  N   UNL     1      -1.552  13.344  19.482  0.00  0.00    +0.000 NA
ATOM     18  C   UNL     1      -0.695  12.925  18.632  0.00  0.00    +0.000 C 
ATOM     19  N   UNL     1      -0.989  12.640  17.345  0.00  0.00    +0.000 N 
ATOM     20  H   UNL     1      -2.472  13.380  19.036  0.00  0.00    +0.000 HD
ATOM     21  H   UNL     1      -1.799  13.091  16.947  0.00  0.00    +0.000 HD
ATOM     22  H   UNL     1      -0.184  12.634  16.730  0.00  0.00    +0.000 HD
ENDBRANCH  16  18
ENDBRANCH  15  16
ENDBRANCH   1  15
BRANCH   9  23
ATOM     23  C   UNL     1       3.891   5.157  17.340  0.00  0.00    +0.000 C 
BRANCH  23  24
ATOM     24  S   UNL     1       5.698   5.204  17.527  0.00  0.00    +0.000 S 
BRANCH  24  25
ATOM     25  C   UNL     1       6.066   6.628  16.611  0.00  0.00    +0.000 C 
ATOM     26  N   UNL     1       7.051   7.393  16.902  0.00  0.00    +0.000 NA
ATOM     27  N   UNL     1       5.290   6.843  15.529  0.00  0.00    +0.000 N 
ATOM     28  H   UNL     1       7.542   7.013  17.716  0.00  0.00    +0.000 HD
ATOM     29  H   UNL     1       4.894   5.999  15.133  0.00  0.00    +0.000 HD
ATOM     30  H   UNL     1       5.750   7.437  14.848  0.00  0.00    +0.000 HD
ENDBRANCH  24  25
ENDBRANCH  23  24
ENDBRANCH   9  23
TORSDOF 6
ENDMDL
MODEL 8
REMARK VINA RESULT:      -6.9      1.261      1.376
REMARK  Name = 
REMARK  6 active torsions:
REMARK  status: ('A' for Active; 'I' for Inactive)
REMARK    1  A    between atoms: C_2  and  S_4
REMARK    2  A    between atoms: S_4  and  C_5
REMARK    3  A    between atoms: C_5  and  C_6
REMARK    4  A    between atoms: C_14  and  C_15
REMARK    5  A    between atoms: C_15  and  S_16
REMARK    6  A    between atoms: S_16  and  C_17
REMARK                            x       y       z     vdW  Elec       q    Type
REMARK                         _______ _______ _______ _____ _____    ______ ____
ROOT
ATOM      1  C   UNL     1       1.306   9.782  19.381  0.00  0.00    +0.000 A 
ATOM      2  C   UNL     1       0.612  10.249  20.516  0.00  0.00    +0.000 A 
ATOM      3  C   UNL     1       0.344   9.425  21.598  0.00  0.00    +0.000 A 
ATOM      4  C   UNL     1       0.759   8.094  21.576  0.00  0.00    +0.000 A 
ATOM      5  C   UNL     1       1.457   7.565  20.461  0.00  0.00    +0.000 A 
ATOM      6  C   UNL     1       1.728   8.421  19.394  0.00  0.00    +0.000 A 
ATOM      7  S   UNL     1       2.618   7.595  18.180  0.00  0.00    +0.000 S 
ATOM      8  C   UNL     1       2.603   6.081  18.997  0.00  0.00    +0.000 A 
ATOM      9  C   UNL     1       3.172   4.850  18.540  0.00  0.00    +0.000 A 
ATOM     10  C   UNL     1       3.082   3.757  19.436  0.00  0.00    +0.000 A 
ATOM     11 BR   UNL     1       3.866   2.058  19.066  0.00  0.00    +0.000 Br
ATOM     12  C   UNL     1       2.442   3.867  20.668  0.00  0.00    +0.000 A 
ATOM     13  C   UNL     1       1.883   5.077  21.066  0.00  0.00    +0.000 A 
ATOM     14  C   UNL     1       1.961   6.217  20.232  0.00  0.00    +0.000 A 
ENDROOT
BRANCH   1  15
ATOM     15  C   UNL     1       1.613  10.755  18.258  0.00  0.00    +0.000 C 
BRANCH  15  16
ATOM     16  S   UNL     1       1.835  12.462  18.833  0.00  0.00    +0.000 S 
BRANCH  16  18
ATOM     17  N   UNL     1      -0.574  12.480  17.749  0.00  0.00    +0.000 NA
ATOM     18  C   UNL     1       0.282  13.137  18.433  0.00  0.00    +0.000 C 
ATOM     19  N   UNL     1       0.067  14.381  18.912  0.00  0.00    +0.000 N 
ATOM     20  H   UNL     1      -1.400  13.064  17.600  0.00  0.00    +0.000 HD
ATOM     21  H   UNL     1      -0.893  14.665  19.043  0.00  0.00    +0.000 HD
ATOM     22  H   UNL     1       0.675  14.637  19.681  0.00  0.00    +0.000 HD
ENDBRANCH  16  18
ENDBRANCH  15  16
ENDBRANCH   1  15
BRANCH   9  23
ATOM     23  C   UNL     1       3.881   4.742  17.200  0.00  0.00    +0.000 C 
BRANCH  23  24
ATOM     24  S   UNL     1       5.686   4.921  17.317  0.00  0.00    +0.000 S 
BRANCH  24  25
ATOM     25  C   UNL     1       5.903   6.421  16.478  0.00  0.00    +0.000 C 
ATOM     26  N   UNL     1       5.222   6.728  15.439  0.00  0.00    +0.000 NA
ATOM     27  N   UNL     1       6.787   7.277  17.031  0.00  0.00    +0.000 N 
ATOM     28  H   UNL     1       4.569   5.968  15.229  0.00  0.00    +0.000 HD
ATOM     29  H   UNL     1       6.897   7.163  18.032  0.00  0.00    +0.000 HD
ATOM     30  H   UNL     1       6.613   8.234  16.745  0.00  0.00    +0.000 HD
ENDBRANCH  24  25
ENDBRANCH  23  24
ENDBRANCH   9  23
TORSDOF 6
ENDMDL
MODEL 9
REMARK VINA RESULT:      -6.8      2.358      7.669
REMARK  Name = 
REMARK  6 active torsions:
REMARK  status: ('A' for Active; 'I' for Inactive)
REMARK    1  A    between atoms: C_2  and  S_4
REMARK    2  A    between atoms: S_4  and  C_5
REMARK    3  A    between atoms: C_5  and  C_6
REMARK    4  A    between atoms: C_14  and  C_15
REMARK    5  A    between atoms: C_15  and  S_16
REMARK    6  A    between atoms: S_16  and  C_17
REMARK                            x       y       z     vdW  Elec       q    Type
REMARK                         _______ _______ _______ _____ _____    ______ ____
ROOT
ATOM      1  C   UNL     1       3.715   5.762  18.161  0.00  0.00    +0.000 A 
ATOM      2  C   UNL     1       3.896   4.565  18.884  0.00  0.00    +0.000 A 
ATOM      3  C   UNL     1       3.268   4.344  20.100  0.00  0.00    +0.000 A 
ATOM      4  C   UNL     1       2.438   5.325  20.640  0.00  0.00    +0.000 A 
ATOM      5  C   UNL     1       2.220   6.552  19.964  0.00  0.00    +0.000 A 
ATOM      6  C   UNL     1       2.851   6.741  18.734  0.00  0.00    +0.000 A 
ATOM      7  S   UNL     1       2.416   8.262  18.069  0.00  0.00    +0.000 S 
ATOM      8  C   UNL     1       1.449   8.734  19.413  0.00  0.00    +0.000 A 
ATOM      9  C   UNL     1       0.746   9.970  19.577  0.00  0.00    +0.000 A 
ATOM     10  C   UNL     1      -0.037  10.085  20.751  0.00  0.00    +0.000 A 
ATOM     11 BR   UNL     1      -1.132  11.604  21.111  0.00  0.00    +0.000 Br
ATOM     12  C   UNL     1      -0.083   9.072  21.706  0.00  0.00    +0.000 A 
ATOM     13  C   UNL     1       0.633   7.893  21.518  0.00  0.00    +0.000 A 
ATOM     14  C   UNL     1       1.413   7.701  20.354  0.00  0.00    +0.000 A 
ENDROOT
BRANCH   1  15
ATOM     15  C   UNL     1       4.389   5.913  16.811  0.00  0.00    +0.000 C 
BRANCH  15  16
ATOM     16  S   UNL     1       5.453   4.505  16.384  0.00  0.00    +0.000 S 
BRANCH  16  18
ATOM     17  N   UNL     1       7.470   6.207  16.476  0.00  0.00    +0.000 NA
ATOM     18  C   UNL     1       6.999   5.103  16.912  0.00  0.00    +0.000 C 
ATOM     19  N   UNL     1       7.630   4.317  17.811  0.00  0.00    +0.000 N 
ATOM     20  H   UNL     1       8.396   6.357  16.884  0.00  0.00    +0.000 HD
ATOM     21  H   UNL     1       8.306   4.761  18.416  0.00  0.00    +0.000 HD
ATOM     22  H   UNL     1       7.019   3.669  18.292  0.00  0.00    +0.000 HD
ENDBRANCH  16  18
ENDBRANCH  15  16
ENDBRANCH   1  15
BRANCH   9  23
ATOM     23  C   UNL     1       0.791  11.065  18.523  0.00  0.00    +0.000 C 
BRANCH  23  24
ATOM     24  S   UNL     1       1.632  12.576  19.082  0.00  0.00    +0.000 S 
BRANCH  24  25
ATOM     25  C   UNL     1       0.486  13.773  18.574  0.00  0.00    +0.000 C 
ATOM     26  N   UNL     1       0.646  15.020  18.818  0.00  0.00    +0.000 NA
ATOM     27  N   UNL     1      -0.552  13.315  17.845  0.00  0.00    +0.000 N 
ATOM     28  H   UNL     1       1.525  15.152  19.325  0.00  0.00    +0.000 HD
ATOM     29  H   UNL     1      -0.349  12.467  17.330  0.00  0.00    +0.000 HD
ATOM     30  H   UNL     1      -0.967  14.047  17.280  0.00  0.00    +0.000 HD
ENDBRANCH  24  25
ENDBRANCH  23  24
ENDBRANCH   9  23
TORSDOF 6
ENDMDL
