MODEL 1
REMARK VINA RESULT:      -8.2      0.000      0.000
REMARK  Name = 
REMARK  16 active torsions:
REMARK  status: ('A' for Active; 'I' for Inactive)
REMARK    1  A    between atoms: C_1  and  O_2
REMARK    2  A    between atoms: O_2  and  C_3
REMARK    3  A    between atoms: C_6  and  C_7
REMARK    4  A    between atoms: C_7  and  C_8
REMARK    5  A    between atoms: C_8  and  O_9
REMARK    6  A    between atoms: O_9  and  C_10
REMARK    7  A    between atoms: C_13  and  C_14
REMARK    8  A    between atoms: C_14  and  C_15
REMARK    9  A    between atoms: C_19  and  C_20
REMARK   10  A    between atoms: C_20  and  C_21
REMARK   11  A    between atoms: C_24  and  O_25
REMARK   12  A    between atoms: O_25  and  C_26
REMARK   13  A    between atoms: C_27  and  O_28
REMARK   14  A    between atoms: O_28  and  C_29
REMARK   15  A    between atoms: C_32  and  O_33
REMARK   16  A    between atoms: O_33  and  C_34
REMARK                            x       y       z     vdW  Elec       q    Type
REMARK                         _______ _______ _______ _____ _____    ______ ____
ROOT
ATOM      1  C   UNL     1       6.767   6.654  17.420  0.00  0.00    +0.000 A 
ATOM      2  C   UNL     1       5.663   6.963  16.591  0.00  0.00    +0.000 A 
ATOM      3  C   UNL     1       4.535   6.134  16.494  0.00  0.00    +0.000 A 
ATOM      4  C   UNL     1       4.470   4.967  17.247  0.00  0.00    +0.000 A 
ATOM      5  C   UNL     1       5.540   4.688  18.111  0.00  0.00    +0.000 A 
ATOM      6  C   UNL     1       6.689   5.504  18.219  0.00  0.00    +0.000 A 
ENDROOT
BRANCH   6   7
ATOM      7  O   UNL     1       7.603   4.913  19.045  0.00  0.00    +0.000 OA
ATOM      8  C   UNL     1       8.054   5.540  20.230  0.00  0.00    +0.000 C 
ENDBRANCH   6   7
BRANCH   1   9
ATOM      9  O   UNL     1       7.773   7.569  17.240  0.00  0.00    +0.000 OA
BRANCH   9  10
ATOM     10  C   UNL     1       7.688   8.819  17.912  0.00  0.00    +0.000 C 
BRANCH  10  11
ATOM     11  C   UNL     1       8.822   9.029  18.921  0.00  0.00    +0.000 C 
BRANCH  11  15
ATOM     12  C   UNL     1      10.101  13.147  19.194  0.00  0.00    +0.000 A 
ATOM     13  C   UNL     1       9.881  12.567  17.944  0.00  0.00    +0.000 A 
ATOM     14  C   UNL     1       9.464  11.235  17.846  0.00  0.00    +0.000 A 
ATOM     15  C   UNL     1       9.274  10.468  19.003  0.00  0.00    +0.000 A 
ATOM     16  C   UNL     1       9.535  11.046  20.248  0.00  0.00    +0.000 A 
ATOM     17  C   UNL     1       9.942  12.379  20.346  0.00  0.00    +0.000 A 
BRANCH  12  19
ATOM     18  C   UNL     1      10.368  15.107  17.914  0.00  0.00    +0.000 C 
ATOM     19  O   UNL     1      10.503  14.455  19.173  0.00  0.00    +0.000 OA
ENDBRANCH  12  19
ENDBRANCH  11  15
ENDBRANCH  10  11
ENDBRANCH   9  10
ENDBRANCH   1   9
BRANCH   4  20
ATOM     20  C   UNL     1       3.295   4.017  17.183  0.00  0.00    +0.000 C 
BRANCH  20  21
ATOM     21  C   UNL     1       2.230   4.184  18.291  0.00  0.00    +0.000 C 
ATOM     22  C   UNL     1       1.465   2.895  18.602  0.00  0.00    +0.000 C 
ATOM     23  O   UNL     1       2.073   2.288  19.753  0.00  0.00    +0.000 OA
ATOM     24  C   UNL     1       3.144   3.119  20.211  0.00  0.00    +0.000 C 
ATOM     25  C   UNL     1       2.895   4.506  19.639  0.00  0.00    +0.000 C 
BRANCH  25  26
ATOM     26  C   UNL     1       1.999   5.314  20.602  0.00  0.00    +0.000 C 
BRANCH  26  27
ATOM     27  C   UNL     1       1.841   6.755  20.180  0.00  0.00    +0.000 A 
ATOM     28  C   UNL     1       2.079   7.155  18.865  0.00  0.00    +0.000 A 
ATOM     29  C   UNL     1       1.870   8.484  18.492  0.00  0.00    +0.000 A 
ATOM     30  C   UNL     1       1.407   9.437  19.411  0.00  0.00    +0.000 A 
ATOM     31  C   UNL     1       1.168   9.044  20.737  0.00  0.00    +0.000 A 
ATOM     32  C   UNL     1       1.419   7.713  21.112  0.00  0.00    +0.000 A 
BRANCH  30  33
ATOM     33  O   UNL     1       1.237  10.668  18.836  0.00  0.00    +0.000 OA
ATOM     34  C   UNL     1      -0.078  11.184  18.704  0.00  0.00    +0.000 C 
ENDBRANCH  30  33
BRANCH  31  35
ATOM     35  O   UNL     1       0.736   9.968  21.651  0.00  0.00    +0.000 OA
ATOM     36  C   UNL     1      -0.451   9.630  22.364  0.00  0.00    +0.000 C 
ENDBRANCH  31  35
ENDBRANCH  26  27
ENDBRANCH  25  26
ENDBRANCH  20  21
ENDBRANCH   4  20
TORSDOF 12
ENDMDL
MODEL 2
REMARK VINA RESULT:      -7.7      1.197      1.837
REMARK  Name = 
REMARK  16 active torsions:
REMARK  status: ('A' for Active; 'I' for Inactive)
REMARK    1  A    between atoms: C_1  and  O_2
REMARK    2  A    between atoms: O_2  and  C_3
REMARK    3  A    between atoms: C_6  and  C_7
REMARK    4  A    between atoms: C_7  and  C_8
REMARK    5  A    between atoms: C_8  and  O_9
REMARK    6  A    between atoms: O_9  and  C_10
REMARK    7  A    between atoms: C_13  and  C_14
REMARK    8  A    between atoms: C_14  and  C_15
REMARK    9  A    between atoms: C_19  and  C_20
REMARK   10  A    between atoms: C_20  and  C_21
REMARK   11  A    between atoms: C_24  and  O_25
REMARK   12  A    between atoms: O_25  and  C_26
REMARK   13  A    between atoms: C_27  and  O_28
REMARK   14  A    between atoms: O_28  and  C_29
REMARK   15  A    between atoms: C_32  and  O_33
REMARK   16  A    between atoms: O_33  and  C_34
REMARK                            x       y       z     vdW  Elec       q    Type
REMARK                         _______ _______ _______ _____ _____    ______ ____
ROOT
ATOM      1  C   UNL     1       7.302   6.096  18.063  0.00  0.00    +0.000 A 
ATOM      2  C   UNL     1       6.542   5.719  19.195  0.00  0.00    +0.000 A 
ATOM      3  C   UNL     1       5.496   4.787  19.128  0.00  0.00    +0.000 A 
ATOM      4  C   UNL     1       5.187   4.184  17.914  0.00  0.00    +0.000 A 
ATOM      5  C   UNL     1       5.975   4.516  16.801  0.00  0.00    +0.000 A 
ATOM      6  C   UNL     1       7.028   5.458  16.845  0.00  0.00    +0.000 A 
ENDROOT
BRANCH   6   7
ATOM      7  O   UNL     1       7.526   5.656  15.588  0.00  0.00    +0.000 OA
ATOM      8  C   UNL     1       7.017   4.964  14.465  0.00  0.00    +0.000 C 
ENDBRANCH   6   7
BRANCH   1   9
ATOM      9  O   UNL     1       8.179   7.100  18.386  0.00  0.00    +0.000 OA
BRANCH   9  10
ATOM     10  C   UNL     1       8.311   8.203  17.500  0.00  0.00    +0.000 C 
BRANCH  10  11
ATOM     11  C   UNL     1       7.709   9.494  18.066  0.00  0.00    +0.000 C 
BRANCH  11  15
ATOM     12  C   UNL     1      10.677  12.546  18.807  0.00  0.00    +0.000 A 
ATOM     13  C   UNL     1      10.747  11.327  19.481  0.00  0.00    +0.000 A 
ATOM     14  C   UNL     1       9.793  10.332  19.246  0.00  0.00    +0.000 A 
ATOM     15  C   UNL     1       8.750  10.555  18.338  0.00  0.00    +0.000 A 
ATOM     16  C   UNL     1       8.664  11.794  17.697  0.00  0.00    +0.000 A 
ATOM     17  C   UNL     1       9.623  12.784  17.925  0.00  0.00    +0.000 A 
BRANCH  12  19
ATOM     18  C   UNL     1      11.228  14.796  19.237  0.00  0.00    +0.000 C 
ATOM     19  O   UNL     1      11.662  13.445  19.111  0.00  0.00    +0.000 OA
ENDBRANCH  12  19
ENDBRANCH  11  15
ENDBRANCH  10  11
ENDBRANCH   9  10
ENDBRANCH   1   9
BRANCH   4  20
ATOM     20  C   UNL     1       4.064   3.183  17.761  0.00  0.00    +0.000 C 
BRANCH  20  21
ATOM     21  C   UNL     1       2.729   3.555  18.446  0.00  0.00    +0.000 C 
ATOM     22  C   UNL     1       1.644   2.487  18.291  0.00  0.00    +0.000 C 
ATOM     23  O   UNL     1       1.639   1.686  19.483  0.00  0.00    +0.000 OA
ATOM     24  C   UNL     1       2.618   2.194  20.393  0.00  0.00    +0.000 C 
ATOM     25  C   UNL     1       2.903   3.628  19.971  0.00  0.00    +0.000 C 
BRANCH  25  26
ATOM     26  C   UNL     1       1.914   4.584  20.670  0.00  0.00    +0.000 C 
BRANCH  26  27
ATOM     27  C   UNL     1       1.964   5.985  20.112  0.00  0.00    +0.000 A 
ATOM     28  C   UNL     1       2.349   6.226  18.792  0.00  0.00    +0.000 A 
ATOM     29  C   UNL     1       2.331   7.527  18.287  0.00  0.00    +0.000 A 
ATOM     30  C   UNL     1       1.919   8.611  19.075  0.00  0.00    +0.000 A 
ATOM     31  C   UNL     1       1.533   8.379  20.405  0.00  0.00    +0.000 A 
ATOM     32  C   UNL     1       1.592   7.071  20.915  0.00  0.00    +0.000 A 
BRANCH  30  33
ATOM     33  O   UNL     1       1.943   9.792  18.382  0.00  0.00    +0.000 OA
ATOM     34  C   UNL     1       0.732  10.288  17.836  0.00  0.00    +0.000 C 
ENDBRANCH  30  33
BRANCH  31  35
ATOM     35  O   UNL     1       1.148   9.431  21.193  0.00  0.00    +0.000 OA
ATOM     36  C   UNL     1      -0.257   9.634  21.315  0.00  0.00    +0.000 C 
ENDBRANCH  31  35
ENDBRANCH  26  27
ENDBRANCH  25  26
ENDBRANCH  20  21
ENDBRANCH   4  20
TORSDOF 12
ENDMDL
MODEL 3
REMARK VINA RESULT:      -7.7      2.623      6.042
REMARK  Name = 
REMARK  16 active torsions:
REMARK  status: ('A' for Active; 'I' for Inactive)
REMARK    1  A    between atoms: C_1  and  O_2
REMARK    2  A    between atoms: O_2  and  C_3
REMARK    3  A    between atoms: C_6  and  C_7
REMARK    4  A    between atoms: C_7  and  C_8
REMARK    5  A    between atoms: C_8  and  O_9
REMARK    6  A    between atoms: O_9  and  C_10
REMARK    7  A    between atoms: C_13  and  C_14
REMARK    8  A    between atoms: C_14  and  C_15
REMARK    9  A    between atoms: C_19  and  C_20
REMARK   10  A    between atoms: C_20  and  C_21
REMARK   11  A    between atoms: C_24  and  O_25
REMARK   12  A    between atoms: O_25  and  C_26
REMARK   13  A    between atoms: C_27  and  O_28
REMARK   14  A    between atoms: O_28  and  C_29
REMARK   15  A    between atoms: C_32  and  O_33
REMARK   16  A    between atoms: O_33  and  C_34
REMARK                            x       y       z     vdW  Elec       q    Type
REMARK                         _______ _______ _______ _____ _____    ______ ____
ROOT
ATOM      1  C   UNL     1       2.696   4.537  18.517  0.00  0.00    +0.000 A 
ATOM      2  C   UNL     1       2.594   5.885  18.100  0.00  0.00    +0.000 A 
ATOM      3  C   UNL     1       2.273   6.928  18.982  0.00  0.00    +0.000 A 
ATOM      4  C   UNL     1       2.059   6.651  20.327  0.00  0.00    +0.000 A 
ATOM      5  C   UNL     1       2.212   5.323  20.753  0.00  0.00    +0.000 A 
ATOM      6  C   UNL     1       2.528   4.257  19.881  0.00  0.00    +0.000 A 
ENDROOT
BRANCH   6   7
ATOM      7  O   UNL     1       2.491   3.072  20.563  0.00  0.00    +0.000 OA
ATOM      8  C   UNL     1       1.486   2.792  21.518  0.00  0.00    +0.000 C 
ENDBRANCH   6   7
BRANCH   1   9
ATOM      9  O   UNL     1       2.909   3.715  17.440  0.00  0.00    +0.000 OA
BRANCH   9  10
ATOM     10  C   UNL     1       4.221   3.224  17.205  0.00  0.00    +0.000 C 
BRANCH  10  11
ATOM     11  C   UNL     1       5.002   4.074  16.197  0.00  0.00    +0.000 C 
BRANCH  11  15
ATOM     12  C   UNL     1       7.667   6.873  18.130  0.00  0.00    +0.000 A 
ATOM     13  C   UNL     1       6.822   7.306  17.109  0.00  0.00    +0.000 A 
ATOM     14  C   UNL     1       5.953   6.409  16.479  0.00  0.00    +0.000 A 
ATOM     15  C   UNL     1       5.933   5.061  16.861  0.00  0.00    +0.000 A 
ATOM     16  C   UNL     1       6.812   4.627  17.858  0.00  0.00    +0.000 A 
ATOM     17  C   UNL     1       7.671   5.526  18.493  0.00  0.00    +0.000 A 
BRANCH  12  19
ATOM     18  C   UNL     1       8.320   9.136  18.120  0.00  0.00    +0.000 C 
ATOM     19  O   UNL     1       8.472   7.834  18.678  0.00  0.00    +0.000 OA
ENDBRANCH  12  19
ENDBRANCH  11  15
ENDBRANCH  10  11
ENDBRANCH   9  10
ENDBRANCH   1   9
BRANCH   4  20
ATOM     20  C   UNL     1       1.693   7.720  21.333  0.00  0.00    +0.000 C 
BRANCH  20  21
ATOM     21  C   UNL     1       0.579   8.702  20.902  0.00  0.00    +0.000 C 
ATOM     22  C   UNL     1      -0.757   8.456  21.606  0.00  0.00    +0.000 C 
ATOM     23  O   UNL     1      -0.850   9.370  22.709  0.00  0.00    +0.000 OA
ATOM     24  C   UNL     1       0.315  10.199  22.730  0.00  0.00    +0.000 C 
ATOM     25  C   UNL     1       0.922  10.135  21.336  0.00  0.00    +0.000 C 
BRANCH  25  26
ATOM     26  C   UNL     1       0.294  11.227  20.445  0.00  0.00    +0.000 C 
BRANCH  26  27
ATOM     27  C   UNL     1       1.305  12.239  19.964  0.00  0.00    +0.000 A 
ATOM     28  C   UNL     1       1.759  12.239  18.644  0.00  0.00    +0.000 A 
ATOM     29  C   UNL     1       2.651  13.222  18.214  0.00  0.00    +0.000 A 
ATOM     30  C   UNL     1       3.098  14.232  19.078  0.00  0.00    +0.000 A 
ATOM     31  C   UNL     1       2.649  14.238  20.408  0.00  0.00    +0.000 A 
ATOM     32  C   UNL     1       1.782  13.221  20.842  0.00  0.00    +0.000 A 
BRANCH  30  33
ATOM     33  O   UNL     1       3.939  15.113  18.451  0.00  0.00    +0.000 OA
ATOM     34  C   UNL     1       3.463  15.826  17.322  0.00  0.00    +0.000 C 
ENDBRANCH  30  33
BRANCH  31  35
ATOM     35  O   UNL     1       3.094  15.206  21.270  0.00  0.00    +0.000 OA
ATOM     36  C   UNL     1       2.235  16.330  21.439  0.00  0.00    +0.000 C 
ENDBRANCH  31  35
ENDBRANCH  26  27
ENDBRANCH  25  26
ENDBRANCH  20  21
ENDBRANCH   4  20
TORSDOF 12
ENDMDL
MODEL 4
REMARK VINA RESULT:      -7.5      2.936      6.515
REMARK  Name = 
REMARK  16 active torsions:
REMARK  status: ('A' for Active; 'I' for Inactive)
REMARK    1  A    between atoms: C_1  and  O_2
REMARK    2  A    between atoms: O_2  and  C_3
REMARK    3  A    between atoms: C_6  and  C_7
REMARK    4  A    between atoms: C_7  and  C_8
REMARK    5  A    between atoms: C_8  and  O_9
REMARK    6  A    between atoms: O_9  and  C_10
REMARK    7  A    between atoms: C_13  and  C_14
REMARK    8  A    between atoms: C_14  and  C_15
REMARK    9  A    between atoms: C_19  and  C_20
REMARK   10  A    between atoms: C_20  and  C_21
REMARK   11  A    between atoms: C_24  and  O_25
REMARK   12  A    between atoms: O_25  and  C_26
REMARK   13  A    between atoms: C_27  and  O_28
REMARK   14  A    between atoms: O_28  and  C_29
REMARK   15  A    between atoms: C_32  and  O_33
REMARK   16  A    between atoms: O_33  and  C_34
REMARK                            x       y       z     vdW  Elec       q    Type
REMARK                         _______ _______ _______ _____ _____    ______ ____
ROOT
ATOM      1  C   UNL     1       1.867   4.365  18.604  0.00  0.00    +0.000 A 
ATOM      2  C   UNL     1       2.152   5.604  17.984  0.00  0.00    +0.000 A 
ATOM      3  C   UNL     1       2.168   6.817  18.689  0.00  0.00    +0.000 A 
ATOM      4  C   UNL     1       1.914   6.823  20.055  0.00  0.00    +0.000 A 
ATOM      5  C   UNL     1       1.685   5.588  20.683  0.00  0.00    +0.000 A 
ATOM      6  C   UNL     1       1.657   4.357  19.990  0.00  0.00    +0.000 A 
ENDROOT
BRANCH   6   7
ATOM      7  O   UNL     1       1.293   3.353  20.844  0.00  0.00    +0.000 OA
ATOM      8  C   UNL     1       2.248   2.633  21.601  0.00  0.00    +0.000 C 
ENDBRANCH   6   7
BRANCH   1   9
ATOM      9  O   UNL     1       1.808   3.363  17.670  0.00  0.00    +0.000 OA
BRANCH   9  10
ATOM     10  C   UNL     1       3.020   2.767  17.229  0.00  0.00    +0.000 C 
BRANCH  10  11
ATOM     11  C   UNL     1       4.174   2.968  18.217  0.00  0.00    +0.000 C 
BRANCH  11  15
ATOM     12  C   UNL     1       6.895   6.084  16.969  0.00  0.00    +0.000 A 
ATOM     13  C   UNL     1       6.690   5.840  18.327  0.00  0.00    +0.000 A 
ATOM     14  C   UNL     1       5.814   4.831  18.741  0.00  0.00    +0.000 A 
ATOM     15  C   UNL     1       5.124   4.064  17.794  0.00  0.00    +0.000 A 
ATOM     16  C   UNL     1       5.305   4.342  16.436  0.00  0.00    +0.000 A 
ATOM     17  C   UNL     1       6.188   5.343  16.023  0.00  0.00    +0.000 A 
BRANCH  12  19
ATOM     18  C   UNL     1       7.785   8.170  17.607  0.00  0.00    +0.000 C 
ATOM     19  O   UNL     1       7.774   7.091  16.678  0.00  0.00    +0.000 OA
ENDBRANCH  12  19
ENDBRANCH  11  15
ENDBRANCH  10  11
ENDBRANCH   9  10
ENDBRANCH   1   9
BRANCH   4  20
ATOM     20  C   UNL     1       1.898   8.092  20.878  0.00  0.00    +0.000 C 
BRANCH  20  21
ATOM     21  C   UNL     1       0.612   8.946  20.779  0.00  0.00    +0.000 C 
ATOM     22  C   UNL     1      -0.635   8.235  21.312  0.00  0.00    +0.000 C 
ATOM     23  O   UNL     1      -0.853   8.679  22.661  0.00  0.00    +0.000 OA
ATOM     24  C   UNL     1       0.145   9.644  23.004  0.00  0.00    +0.000 C 
ATOM     25  C   UNL     1       0.706  10.176  21.694  0.00  0.00    +0.000 C 
BRANCH  25  26
ATOM     26  C   UNL     1      -0.136  11.378  21.217  0.00  0.00    +0.000 C 
BRANCH  26  27
ATOM     27  C   UNL     1       0.685  12.413  20.487  0.00  0.00    +0.000 A 
ATOM     28  C   UNL     1       0.529  12.628  19.118  0.00  0.00    +0.000 A 
ATOM     29  C   UNL     1       1.262  13.631  18.481  0.00  0.00    +0.000 A 
ATOM     30  C   UNL     1       2.153  14.448  19.192  0.00  0.00    +0.000 A 
ATOM     31  C   UNL     1       2.319  14.237  20.571  0.00  0.00    +0.000 A 
ATOM     32  C   UNL     1       1.605  13.199  21.194  0.00  0.00    +0.000 A 
BRANCH  30  33
ATOM     33  O   UNL     1       2.744  15.388  18.390  0.00  0.00    +0.000 OA
ATOM     34  C   UNL     1       2.086  16.629  18.194  0.00  0.00    +0.000 C 
ENDBRANCH  30  33
BRANCH  31  35
ATOM     35  O   UNL     1       3.201  15.013  21.274  0.00  0.00    +0.000 OA
ATOM     36  C   UNL     1       4.531  14.510  21.371  0.00  0.00    +0.000 C 
ENDBRANCH  31  35
ENDBRANCH  26  27
ENDBRANCH  25  26
ENDBRANCH  20  21
ENDBRANCH   4  20
TORSDOF 12
ENDMDL
MODEL 5
REMARK VINA RESULT:      -7.4      3.055      6.899
REMARK  Name = 
REMARK  16 active torsions:
REMARK  status: ('A' for Active; 'I' for Inactive)
REMARK    1  A    between atoms: C_1  and  O_2
REMARK    2  A    between atoms: O_2  and  C_3
REMARK    3  A    between atoms: C_6  and  C_7
REMARK    4  A    between atoms: C_7  and  C_8
REMARK    5  A    between atoms: C_8  and  O_9
REMARK    6  A    between atoms: O_9  and  C_10
REMARK    7  A    between atoms: C_13  and  C_14
REMARK    8  A    between atoms: C_14  and  C_15
REMARK    9  A    between atoms: C_19  and  C_20
REMARK   10  A    between atoms: C_20  and  C_21
REMARK   11  A    between atoms: C_24  and  O_25
REMARK   12  A    between atoms: O_25  and  C_26
REMARK   13  A    between atoms: C_27  and  O_28
REMARK   14  A    between atoms: O_28  and  C_29
REMARK   15  A    between atoms: C_32  and  O_33
REMARK   16  A    between atoms: O_33  and  C_34
REMARK                            x       y       z     vdW  Elec       q    Type
REMARK                         _______ _______ _______ _____ _____    ______ ____
ROOT
ATOM      1  C   UNL     1       2.090   4.968  18.548  0.00  0.00    +0.000 A 
ATOM      2  C   UNL     1       2.478   6.281  18.192  0.00  0.00    +0.000 A 
ATOM      3  C   UNL     1       2.321   7.376  19.056  0.00  0.00    +0.000 A 
ATOM      4  C   UNL     1       1.780   7.182  20.322  0.00  0.00    +0.000 A 
ATOM      5  C   UNL     1       1.445   5.872  20.696  0.00  0.00    +0.000 A 
ATOM      6  C   UNL     1       1.589   4.757  19.840  0.00  0.00    +0.000 A 
ENDROOT
BRANCH   6   7
ATOM      7  O   UNL     1       1.069   3.642  20.438  0.00  0.00    +0.000 OA
ATOM      8  C   UNL     1       1.770   2.942  21.447  0.00  0.00    +0.000 C 
ENDBRANCH   6   7
BRANCH   1   9
ATOM      9  O   UNL     1       2.250   4.116  17.484  0.00  0.00    +0.000 OA
BRANCH   9  10
ATOM     10  C   UNL     1       2.859   2.852  17.708  0.00  0.00    +0.000 C 
BRANCH  10  11
ATOM     11  C   UNL     1       4.139   2.949  18.546  0.00  0.00    +0.000 C 
BRANCH  11  15
ATOM     12  C   UNL     1       6.868   5.955  17.068  0.00  0.00    +0.000 A 
ATOM     13  C   UNL     1       6.592   5.875  18.433  0.00  0.00    +0.000 A 
ATOM     14  C   UNL     1       5.713   4.903  18.922  0.00  0.00    +0.000 A 
ATOM     15  C   UNL     1       5.090   4.008  18.041  0.00  0.00    +0.000 A 
ATOM     16  C   UNL     1       5.342   4.122  16.671  0.00  0.00    +0.000 A 
ATOM     17  C   UNL     1       6.228   5.086  16.185  0.00  0.00    +0.000 A 
BRANCH  12  19
ATOM     18  C   UNL     1       7.833   8.035  17.607  0.00  0.00    +0.000 C 
ATOM     19  O   UNL     1       7.744   6.940  16.702  0.00  0.00    +0.000 OA
ENDBRANCH  12  19
ENDBRANCH  11  15
ENDBRANCH  10  11
ENDBRANCH   9  10
ENDBRANCH   1   9
BRANCH   4  20
ATOM     20  C   UNL     1       1.565   8.315  21.301  0.00  0.00    +0.000 C 
BRANCH  20  21
ATOM     21  C   UNL     1       0.164   8.970  21.279  0.00  0.00    +0.000 C 
ATOM     22  C   UNL     1      -0.419   9.210  22.674  0.00  0.00    +0.000 C 
ATOM     23  O   UNL     1      -0.161  10.576  23.032  0.00  0.00    +0.000 OA
ATOM     24  C   UNL     1       0.512  11.225  21.949  0.00  0.00    +0.000 C 
ATOM     25  C   UNL     1       0.239  10.393  20.705  0.00  0.00    +0.000 C 
BRANCH  25  26
ATOM     26  C   UNL     1      -1.067  10.869  20.036  0.00  0.00    +0.000 C 
BRANCH  26  27
ATOM     27  C   UNL     1      -1.427  12.288  20.402  0.00  0.00    +0.000 A 
ATOM     28  C   UNL     1      -0.755  13.374  19.840  0.00  0.00    +0.000 A 
ATOM     29  C   UNL     1      -1.148  14.676  20.155  0.00  0.00    +0.000 A 
ATOM     30  C   UNL     1      -2.222  14.926  21.020  0.00  0.00    +0.000 A 
ATOM     31  C   UNL     1      -2.902  13.840  21.594  0.00  0.00    +0.000 A 
ATOM     32  C   UNL     1      -2.474  12.534  21.301  0.00  0.00    +0.000 A 
BRANCH  30  33
ATOM     33  O   UNL     1      -2.464  16.266  21.169  0.00  0.00    +0.000 OA
ATOM     34  C   UNL     1      -3.192  16.945  20.159  0.00  0.00    +0.000 C 
ENDBRANCH  30  33
BRANCH  31  35
ATOM     35  O   UNL     1      -3.940  14.069  22.458  0.00  0.00    +0.000 OA
ATOM     36  C   UNL     1      -4.021  13.191  23.577  0.00  0.00    +0.000 C 
ENDBRANCH  31  35
ENDBRANCH  26  27
ENDBRANCH  25  26
ENDBRANCH  20  21
ENDBRANCH   4  20
TORSDOF 12
ENDMDL
MODEL 6
REMARK VINA RESULT:      -7.4      1.351      2.128
REMARK  Name = 
REMARK  16 active torsions:
REMARK  status: ('A' for Active; 'I' for Inactive)
REMARK    1  A    between atoms: C_1  and  O_2
REMARK    2  A    between atoms: O_2  and  C_3
REMARK    3  A    between atoms: C_6  and  C_7
REMARK    4  A    between atoms: C_7  and  C_8
REMARK    5  A    between atoms: C_8  and  O_9
REMARK    6  A    between atoms: O_9  and  C_10
REMARK    7  A    between atoms: C_13  and  C_14
REMARK    8  A    between atoms: C_14  and  C_15
REMARK    9  A    between atoms: C_19  and  C_20
REMARK   10  A    between atoms: C_20  and  C_21
REMARK   11  A    between atoms: C_24  and  O_25
REMARK   12  A    between atoms: O_25  and  C_26
REMARK   13  A    between atoms: C_27  and  O_28
REMARK   14  A    between atoms: O_28  and  C_29
REMARK   15  A    between atoms: C_32  and  O_33
REMARK   16  A    between atoms: O_33  and  C_34
REMARK                            x       y       z     vdW  Elec       q    Type
REMARK                         _______ _______ _______ _____ _____    ______ ____
ROOT
ATOM      1  C   UNL     1       7.338   6.666  17.388  0.00  0.00    +0.000 A 
ATOM      2  C   UNL     1       7.420   6.372  18.770  0.00  0.00    +0.000 A 
ATOM      3  C   UNL     1       6.690   5.333  19.367  0.00  0.00    +0.000 A 
ATOM      4  C   UNL     1       5.860   4.537  18.585  0.00  0.00    +0.000 A 
ATOM      5  C   UNL     1       5.820   4.792  17.206  0.00  0.00    +0.000 A 
ATOM      6  C   UNL     1       6.541   5.837  16.586  0.00  0.00    +0.000 A 
ENDROOT
BRANCH   6   7
ATOM      7  O   UNL     1       6.207   5.910  15.262  0.00  0.00    +0.000 OA
ATOM      8  C   UNL     1       6.209   4.768  14.428  0.00  0.00    +0.000 C 
ENDBRANCH   6   7
BRANCH   1   9
ATOM      9  O   UNL     1       8.062   7.793  17.093  0.00  0.00    +0.000 OA
BRANCH   9  10
ATOM     10  C   UNL     1       7.951   8.920  17.951  0.00  0.00    +0.000 C 
BRANCH  10  11
ATOM     11  C   UNL     1       8.806  10.105  17.490  0.00  0.00    +0.000 C 
BRANCH  11  15
ATOM     12  C   UNL     1       9.735  12.887  20.663  0.00  0.00    +0.000 A 
ATOM     13  C   UNL     1       9.733  11.516  20.917  0.00  0.00    +0.000 A 
ATOM     14  C   UNL     1       9.437  10.606  19.895  0.00  0.00    +0.000 A 
ATOM     15  C   UNL     1       9.127  11.067  18.609  0.00  0.00    +0.000 A 
ATOM     16  C   UNL     1       9.092  12.445  18.374  0.00  0.00    +0.000 A 
ATOM     17  C   UNL     1       9.398  13.351  19.392  0.00  0.00    +0.000 A 
BRANCH  12  19
ATOM     18  C   UNL     1       9.483  14.993  21.688  0.00  0.00    +0.000 C 
ATOM     19  O   UNL     1      10.041  13.683  21.732  0.00  0.00    +0.000 OA
ENDBRANCH  12  19
ENDBRANCH  11  15
ENDBRANCH  10  11
ENDBRANCH   9  10
ENDBRANCH   1   9
BRANCH   4  20
ATOM     20  C   UNL     1       5.031   3.410  19.160  0.00  0.00    +0.000 C 
BRANCH  20  21
ATOM     21  C   UNL     1       3.499   3.557  19.017  0.00  0.00    +0.000 C 
ATOM     22  C   UNL     1       2.712   2.423  19.678  0.00  0.00    +0.000 C 
ATOM     23  O   UNL     1       2.291   2.874  20.975  0.00  0.00    +0.000 OA
ATOM     24  C   UNL     1       2.726   4.223  21.165  0.00  0.00    +0.000 C 
ATOM     25  C   UNL     1       2.999   4.793  19.781  0.00  0.00    +0.000 C 
BRANCH  25  26
ATOM     26  C   UNL     1       1.705   5.405  19.205  0.00  0.00    +0.000 C 
BRANCH  26  27
ATOM     27  C   UNL     1       1.636   6.901  19.388  0.00  0.00    +0.000 A 
ATOM     28  C   UNL     1       1.775   7.771  18.307  0.00  0.00    +0.000 A 
ATOM     29  C   UNL     1       1.650   9.148  18.498  0.00  0.00    +0.000 A 
ATOM     30  C   UNL     1       1.371   9.687  19.762  0.00  0.00    +0.000 A 
ATOM     31  C   UNL     1       1.232   8.820  20.858  0.00  0.00    +0.000 A 
ATOM     32  C   UNL     1       1.399   7.439  20.661  0.00  0.00    +0.000 A 
BRANCH  30  33
ATOM     33  O   UNL     1       1.255  11.052  19.728  0.00  0.00    +0.000 OA
ATOM     34  C   UNL     1       1.831  11.759  18.642  0.00  0.00    +0.000 C 
ENDBRANCH  30  33
BRANCH  31  35
ATOM     35  O   UNL     1       0.980   9.334  22.103  0.00  0.00    +0.000 OA
ATOM     36  C   UNL     1      -0.384   9.325  22.514  0.00  0.00    +0.000 C 
ENDBRANCH  31  35
ENDBRANCH  26  27
ENDBRANCH  25  26
ENDBRANCH  20  21
ENDBRANCH   4  20
TORSDOF 12
ENDMDL
MODEL 7
REMARK VINA RESULT:      -7.3      2.662      6.488
REMARK  Name = 
REMARK  16 active torsions:
REMARK  status: ('A' for Active; 'I' for Inactive)
REMARK    1  A    between atoms: C_1  and  O_2
REMARK    2  A    between atoms: O_2  and  C_3
REMARK    3  A    between atoms: C_6  and  C_7
REMARK    4  A    between atoms: C_7  and  C_8
REMARK    5  A    between atoms: C_8  and  O_9
REMARK    6  A    between atoms: O_9  and  C_10
REMARK    7  A    between atoms: C_13  and  C_14
REMARK    8  A    between atoms: C_14  and  C_15
REMARK    9  A    between atoms: C_19  and  C_20
REMARK   10  A    between atoms: C_20  and  C_21
REMARK   11  A    between atoms: C_24  and  O_25
REMARK   12  A    between atoms: O_25  and  C_26
REMARK   13  A    between atoms: C_27  and  O_28
REMARK   14  A    between atoms: O_28  and  C_29
REMARK   15  A    between atoms: C_32  and  O_33
REMARK   16  A    between atoms: O_33  and  C_34
REMARK                            x       y       z     vdW  Elec       q    Type
REMARK                         _______ _______ _______ _____ _____    ______ ____
ROOT
ATOM      1  C   UNL     1       2.875   4.695  19.197  0.00  0.00    +0.000 A 
ATOM      2  C   UNL     1       3.351   5.988  18.879  0.00  0.00    +0.000 A 
ATOM      3  C   UNL     1       2.833   7.151  19.471  0.00  0.00    +0.000 A 
ATOM      4  C   UNL     1       1.824   7.049  20.421  0.00  0.00    +0.000 A 
ATOM      5  C   UNL     1       1.389   5.763  20.778  0.00  0.00    +0.000 A 
ATOM      6  C   UNL     1       1.892   4.580  20.190  0.00  0.00    +0.000 A 
ENDROOT
BRANCH   6   7
ATOM      7  O   UNL     1       1.193   3.500  20.651  0.00  0.00    +0.000 OA
ATOM      8  C   UNL     1       1.691   2.675  21.687  0.00  0.00    +0.000 C 
ENDBRANCH   6   7
BRANCH   1   9
ATOM      9  O   UNL     1       3.473   3.754  18.397  0.00  0.00    +0.000 OA
BRANCH   9  10
ATOM     10  C   UNL     1       3.612   4.026  17.009  0.00  0.00    +0.000 C 
BRANCH  10  11
ATOM     11  C   UNL     1       5.057   3.887  16.519  0.00  0.00    +0.000 C 
BRANCH  11  15
ATOM     12  C   UNL     1       7.661   6.980  18.045  0.00  0.00    +0.000 A 
ATOM     13  C   UNL     1       7.611   5.736  18.675  0.00  0.00    +0.000 A 
ATOM     14  C   UNL     1       6.775   4.727  18.187  0.00  0.00    +0.000 A 
ATOM     15  C   UNL     1       5.968   4.962  17.066  0.00  0.00    +0.000 A 
ATOM     16  C   UNL     1       5.994   6.224  16.465  0.00  0.00    +0.000 A 
ATOM     17  C   UNL     1       6.838   7.227  16.947  0.00  0.00    +0.000 A 
BRANCH  12  19
ATOM     18  C   UNL     1       8.346   9.231  18.157  0.00  0.00    +0.000 C 
ATOM     19  O   UNL     1       8.516   7.890  18.604  0.00  0.00    +0.000 OA
ENDBRANCH  12  19
ENDBRANCH  11  15
ENDBRANCH  10  11
ENDBRANCH   9  10
ENDBRANCH   1   9
BRANCH   4  20
ATOM     20  C   UNL     1       1.206   8.257  21.089  0.00  0.00    +0.000 C 
BRANCH  20  21
ATOM     21  C   UNL     1       0.443   9.228  20.158  0.00  0.00    +0.000 C 
ATOM     22  C   UNL     1      -0.830   9.801  20.785  0.00  0.00    +0.000 C 
ATOM     23  O   UNL     1      -0.516  11.099  21.315  0.00  0.00    +0.000 OA
ATOM     24  C   UNL     1       0.855  11.399  21.036  0.00  0.00    +0.000 C 
ATOM     25  C   UNL     1       1.276  10.491  19.891  0.00  0.00    +0.000 C 
BRANCH  25  26
ATOM     26  C   UNL     1       0.964  11.173  18.543  0.00  0.00    +0.000 C 
BRANCH  26  27
ATOM     27  C   UNL     1       1.083  12.676  18.608  0.00  0.00    +0.000 A 
ATOM     28  C   UNL     1      -0.048  13.493  18.612  0.00  0.00    +0.000 A 
ATOM     29  C   UNL     1       0.092  14.877  18.730  0.00  0.00    +0.000 A 
ATOM     30  C   UNL     1       1.353  15.475  18.861  0.00  0.00    +0.000 A 
ATOM     31  C   UNL     1       2.498  14.662  18.854  0.00  0.00    +0.000 A 
ATOM     32  C   UNL     1       2.348  13.274  18.695  0.00  0.00    +0.000 A 
BRANCH  30  33
ATOM     33  O   UNL     1       1.268  16.836  18.997  0.00  0.00    +0.000 OA
ATOM     34  C   UNL     1       0.185  17.517  18.385  0.00  0.00    +0.000 C 
ENDBRANCH  30  33
BRANCH  31  35
ATOM     35  O   UNL     1       3.738  15.234  18.960  0.00  0.00    +0.000 OA
ATOM     36  C   UNL     1       4.677  14.869  17.952  0.00  0.00    +0.000 C 
ENDBRANCH  31  35
ENDBRANCH  26  27
ENDBRANCH  25  26
ENDBRANCH  20  21
ENDBRANCH   4  20
TORSDOF 12
ENDMDL
MODEL 8
REMARK VINA RESULT:      -7.3      2.712      6.410
REMARK  Name = 
REMARK  16 active torsions:
REMARK  status: ('A' for Active; 'I' for Inactive)
REMARK    1  A    between atoms: C_1  and  O_2
REMARK    2  A    between atoms: O_2  and  C_3
REMARK    3  A    between atoms: C_6  and  C_7
REMARK    4  A    between atoms: C_7  and  C_8
REMARK    5  A    between atoms: C_8  and  O_9
REMARK    6  A    between atoms: O_9  and  C_10
REMARK    7  A    between atoms: C_13  and  C_14
REMARK    8  A    between atoms: C_14  and  C_15
REMARK    9  A    between atoms: C_19  and  C_20
REMARK   10  A    between atoms: C_20  and  C_21
REMARK   11  A    between atoms: C_24  and  O_25
REMARK   12  A    between atoms: O_25  and  C_26
REMARK   13  A    between atoms: C_27  and  O_28
REMARK   14  A    between atoms: O_28  and  C_29
REMARK   15  A    between atoms: C_32  and  O_33
REMARK   16  A    between atoms: O_33  and  C_34
REMARK                            x       y       z     vdW  Elec       q    Type
REMARK                         _______ _______ _______ _____ _____    ______ ____
ROOT
ATOM      1  C   UNL     1       2.433   4.904  18.794  0.00  0.00    +0.000 A 
ATOM      2  C   UNL     1       2.611   6.133  18.116  0.00  0.00    +0.000 A 
ATOM      3  C   UNL     1       2.381   7.375  18.727  0.00  0.00    +0.000 A 
ATOM      4  C   UNL     1       1.978   7.423  20.057  0.00  0.00    +0.000 A 
ATOM      5  C   UNL     1       1.855   6.208  20.748  0.00  0.00    +0.000 A 
ATOM      6  C   UNL     1       2.075   4.946  20.149  0.00  0.00    +0.000 A 
ENDROOT
BRANCH   6   7
ATOM      7  O   UNL     1       1.761   3.952  21.034  0.00  0.00    +0.000 OA
ATOM      8  C   UNL     1       1.259   2.702  20.604  0.00  0.00    +0.000 C 
ENDBRANCH   6   7
BRANCH   1   9
ATOM      9  O   UNL     1       2.616   3.850  17.935  0.00  0.00    +0.000 OA
BRANCH   9  10
ATOM     10  C   UNL     1       3.884   3.208  17.902  0.00  0.00    +0.000 C 
BRANCH  10  11
ATOM     11  C   UNL     1       4.788   3.736  16.783  0.00  0.00    +0.000 C 
BRANCH  11  15
ATOM     12  C   UNL     1       7.605   6.686  18.208  0.00  0.00    +0.000 A 
ATOM     13  C   UNL     1       7.196   6.700  16.875  0.00  0.00    +0.000 A 
ATOM     14  C   UNL     1       6.281   5.752  16.405  0.00  0.00    +0.000 A 
ATOM     15  C   UNL     1       5.778   4.769  17.268  0.00  0.00    +0.000 A 
ATOM     16  C   UNL     1       6.224   4.739  18.592  0.00  0.00    +0.000 A 
ATOM     17  C   UNL     1       7.129   5.692  19.063  0.00  0.00    +0.000 A 
BRANCH  12  19
ATOM     18  C   UNL     1       8.202   8.960  18.058  0.00  0.00    +0.000 C 
ATOM     19  O   UNL     1       8.499   7.660  18.560  0.00  0.00    +0.000 OA
ENDBRANCH  12  19
ENDBRANCH  11  15
ENDBRANCH  10  11
ENDBRANCH   9  10
ENDBRANCH   1   9
BRANCH   4  20
ATOM     20  C   UNL     1       1.696   8.723  20.778  0.00  0.00    +0.000 C 
BRANCH  20  21
ATOM     21  C   UNL     1       0.236   9.228  20.714  0.00  0.00    +0.000 C 
ATOM     22  C   UNL     1      -0.723   8.439  21.609  0.00  0.00    +0.000 C 
ATOM     23  O   UNL     1      -0.884   9.169  22.835  0.00  0.00    +0.000 OA
ATOM     24  C   UNL     1      -0.124  10.379  22.763  0.00  0.00    +0.000 C 
ATOM     25  C   UNL     1       0.128  10.649  21.288  0.00  0.00    +0.000 C 
BRANCH  25  26
ATOM     26  C   UNL     1      -1.038  11.474  20.702  0.00  0.00    +0.000 C 
BRANCH  26  27
ATOM     27  C   UNL     1      -0.591  12.809  20.157  0.00  0.00    +0.000 A 
ATOM     28  C   UNL     1       0.488  12.908  19.279  0.00  0.00    +0.000 A 
ATOM     29  C   UNL     1       0.842  14.150  18.747  0.00  0.00    +0.000 A 
ATOM     30  C   UNL     1       0.126  15.312  19.066  0.00  0.00    +0.000 A 
ATOM     31  C   UNL     1      -0.960  15.222  19.952  0.00  0.00    +0.000 A 
ATOM     32  C   UNL     1      -1.283  13.975  20.511  0.00  0.00    +0.000 A 
BRANCH  30  33
ATOM     33  O   UNL     1       0.613  16.414  18.414  0.00  0.00    +0.000 OA
ATOM     34  C   UNL     1       2.017  16.608  18.356  0.00  0.00    +0.000 C 
ENDBRANCH  30  33
BRANCH  31  35
ATOM     35  O   UNL     1      -1.656  16.353  20.288  0.00  0.00    +0.000 OA
ATOM     36  C   UNL     1      -1.968  16.502  21.671  0.00  0.00    +0.000 C 
ENDBRANCH  31  35
ENDBRANCH  26  27
ENDBRANCH  25  26
ENDBRANCH  20  21
ENDBRANCH   4  20
TORSDOF 12
ENDMDL
MODEL 9
REMARK VINA RESULT:      -7.3      2.806      6.607
REMARK  Name = 
REMARK  16 active torsions:
REMARK  status: ('A' for Active; 'I' for Inactive)
REMARK    1  A    between atoms: C_1  and  O_2
REMARK    2  A    between atoms: O_2  and  C_3
REMARK    3  A    between atoms: C_6  and  C_7
REMARK    4  A    between atoms: C_7  and  C_8
REMARK    5  A    between atoms: C_8  and  O_9
REMARK    6  A    between atoms: O_9  and  C_10
REMARK    7  A    between atoms: C_13  and  C_14
REMARK    8  A    between atoms: C_14  and  C_15
REMARK    9  A    between atoms: C_19  and  C_20
REMARK   10  A    between atoms: C_20  and  C_21
REMARK   11  A    between atoms: C_24  and  O_25
REMARK   12  A    between atoms: O_25  and  C_26
REMARK   13  A    between atoms: C_27  and  O_28
REMARK   14  A    between atoms: O_28  and  C_29
REMARK   15  A    between atoms: C_32  and  O_33
REMARK   16  A    between atoms: O_33  and  C_34
REMARK                            x       y       z     vdW  Elec       q    Type
REMARK                         _______ _______ _______ _____ _____    ______ ____
ROOT
ATOM      1  C   UNL     1       2.272   4.882  18.903  0.00  0.00    +0.000 A 
ATOM      2  C   UNL     1       2.572   6.066  18.190  0.00  0.00    +0.000 A 
ATOM      3  C   UNL     1       2.386   7.346  18.736  0.00  0.00    +0.000 A 
ATOM      4  C   UNL     1       1.906   7.477  20.034  0.00  0.00    +0.000 A 
ATOM      5  C   UNL     1       1.659   6.303  20.762  0.00  0.00    +0.000 A 
ATOM      6  C   UNL     1       1.833   5.006  20.229  0.00  0.00    +0.000 A 
ENDROOT
BRANCH   6   7
ATOM      7  O   UNL     1       1.400   4.073  21.129  0.00  0.00    +0.000 OA
ATOM      8  C   UNL     1       2.244   3.038  21.596  0.00  0.00    +0.000 C 
ENDBRANCH   6   7
BRANCH   1   9
ATOM      9  O   UNL     1       2.439   3.783  18.100  0.00  0.00    +0.000 OA
BRANCH   9  10
ATOM     10  C   UNL     1       3.624   3.010  18.237  0.00  0.00    +0.000 C 
BRANCH  10  11
ATOM     11  C   UNL     1       4.530   3.089  17.004  0.00  0.00    +0.000 C 
BRANCH  11  15
ATOM     12  C   UNL     1       6.988   6.643  16.993  0.00  0.00    +0.000 A 
ATOM     13  C   UNL     1       6.053   6.439  15.978  0.00  0.00    +0.000 A 
ATOM     14  C   UNL     1       5.250   5.294  15.975  0.00  0.00    +0.000 A 
ATOM     15  C   UNL     1       5.387   4.333  16.985  0.00  0.00    +0.000 A 
ATOM     16  C   UNL     1       6.355   4.526  17.975  0.00  0.00    +0.000 A 
ATOM     17  C   UNL     1       7.149   5.675  17.984  0.00  0.00    +0.000 A 
BRANCH  12  19
ATOM     18  C   UNL     1       8.113   8.363  18.144  0.00  0.00    +0.000 C 
ATOM     19  O   UNL     1       7.716   7.797  16.899  0.00  0.00    +0.000 OA
ENDBRANCH  12  19
ENDBRANCH  11  15
ENDBRANCH  10  11
ENDBRANCH   9  10
ENDBRANCH   1   9
BRANCH   4  20
ATOM     20  C   UNL     1       1.665   8.822  20.683  0.00  0.00    +0.000 C 
BRANCH  20  21
ATOM     21  C   UNL     1       0.197   9.307  20.709  0.00  0.00    +0.000 C 
ATOM     22  C   UNL     1      -0.697   8.498  21.652  0.00  0.00    +0.000 C 
ATOM     23  O   UNL     1      -0.797   9.217  22.891  0.00  0.00    +0.000 OA
ATOM     24  C   UNL     1      -0.059  10.438  22.785  0.00  0.00    +0.000 C 
ATOM     25  C   UNL     1       0.103  10.722  21.300  0.00  0.00    +0.000 C 
BRANCH  25  26
ATOM     26  C   UNL     1      -1.106  11.535  20.790  0.00  0.00    +0.000 C 
BRANCH  26  27
ATOM     27  C   UNL     1      -0.703  12.849  20.165  0.00  0.00    +0.000 A 
ATOM     28  C   UNL     1      -1.470  14.001  20.344  0.00  0.00    +0.000 A 
ATOM     29  C   UNL     1      -1.043  15.214  19.801  0.00  0.00    +0.000 A 
ATOM     30  C   UNL     1       0.158  15.311  19.083  0.00  0.00    +0.000 A 
ATOM     31  C   UNL     1       0.934  14.156  18.895  0.00  0.00    +0.000 A 
ATOM     32  C   UNL     1       0.476  12.933  19.412  0.00  0.00    +0.000 A 
BRANCH  30  33
ATOM     33  O   UNL     1       0.408  16.591  18.667  0.00  0.00    +0.000 OA
ATOM     34  C   UNL     1      -0.609  17.297  17.976  0.00  0.00    +0.000 C 
ENDBRANCH  30  33
BRANCH  31  35
ATOM     35  O   UNL     1       2.099  14.231  18.178  0.00  0.00    +0.000 OA
ATOM     36  C   UNL     1       3.294  13.959  18.905  0.00  0.00    +0.000 C 
ENDBRANCH  31  35
ENDBRANCH  26  27
ENDBRANCH  25  26
ENDBRANCH  20  21
ENDBRANCH   4  20
TORSDOF 12
ENDMDL
