MODEL 1
REMARK VINA RESULT:      -8.2      0.000      0.000
REMARK  Name = 
REMARK  7 active torsions:
REMARK  status: ('A' for Active; 'I' for Inactive)
REMARK    1  A    between atoms: C_1  and  C_2
REMARK    2  A    between atoms: C_2  and  C_3
REMARK    3  A    between atoms: C_2  and  C_4
REMARK    4  A    between atoms: C_4  and  C_5
REMARK    5  A    between atoms: C_8  and  C_9
REMARK    6  A    between atoms: C_11  and  C_12
REMARK    7  A    between atoms: C_12  and  O_14
REMARK                            x       y       z     vdW  Elec       q    Type
REMARK                         _______ _______ _______ _____ _____    ______ ____
ROOT
ATOM      1  C   UNL     1       3.273   6.335  18.055  0.00  0.00    +0.000 A 
ATOM      2  C   UNL     1       2.930   5.008  18.220  0.00  0.00    +0.000 A 
ATOM      3  C   UNL     1       3.775   4.056  17.685  0.00  0.00    +0.000 A 
ATOM      4  C   UNL     1       4.672   4.370  16.668  0.00  0.00    +0.000 A 
ATOM      5  C   UNL     1       5.245   3.397  15.817  0.00  0.00    +0.000 A 
ATOM      6  C   UNL     1       6.085   3.780  14.781  0.00  0.00    +0.000 A 
ATOM      7  C   UNL     1       6.427   5.120  14.653  0.00  0.00    +0.000 A 
ATOM      8  C   UNL     1       5.876   6.073  15.523  0.00  0.00    +0.000 A 
ATOM      9  C   UNL     1       4.939   5.735  16.500  0.00  0.00    +0.000 A 
ATOM     10  N   UNL     1       4.309   6.684  17.246  0.00  0.00    +0.000 NA
ENDROOT
BRANCH   1  14
ATOM     11  C   UNL     1       0.777   9.225  20.102  0.00  0.00    +0.000 A 
ATOM     12  C   UNL     1       1.254   8.103  20.778  0.00  0.00    +0.000 A 
ATOM     13  C   UNL     1       2.123   7.215  20.141  0.00  0.00    +0.000 A 
ATOM     14  C   UNL     1       2.530   7.387  18.787  0.00  0.00    +0.000 A 
ATOM     15  C   UNL     1       2.114   8.563  18.155  0.00  0.00    +0.000 A 
ATOM     16  C   UNL     1       1.250   9.457  18.792  0.00  0.00    +0.000 A 
BRANCH  11  17
ATOM     17  C   UNL     1      -0.306  10.122  20.647  0.00  0.00    +0.000 C 
BRANCH  17  19
ATOM     18  C   UNL     1      -0.493  12.399  21.792  0.00  0.00    +0.000 C 
ATOM     19  C   UNL     1      -0.059  10.940  21.930  0.00  0.00    +0.000 C 
ATOM     20  C   UNL     1      -0.842  10.290  23.081  0.00  0.00    +0.000 C 
ENDBRANCH  17  19
ENDBRANCH  11  17
ENDBRANCH   1  14
BRANCH   3  21
ATOM     21  C   UNL     1       3.955   2.852  18.510  0.00  0.00    +0.000 C 
ATOM     22  O   UNL     1       3.244   1.863  18.475  0.00  0.00    +0.000 OA
BRANCH  21  23
ATOM     23  O   UNL     1       5.050   2.984  19.304  0.00  0.00    +0.000 OA
ATOM     24  H   UNL     1       5.769   3.545  18.942  0.00  0.00    +0.000 HD
ENDBRANCH  21  23
ENDBRANCH   3  21
TORSDOF 5
ENDMDL
MODEL 2
REMARK VINA RESULT:      -8.2      1.887      7.858
REMARK  Name = 
REMARK  7 active torsions:
REMARK  status: ('A' for Active; 'I' for Inactive)
REMARK    1  A    between atoms: C_1  and  C_2
REMARK    2  A    between atoms: C_2  and  C_3
REMARK    3  A    between atoms: C_2  and  C_4
REMARK    4  A    between atoms: C_4  and  C_5
REMARK    5  A    between atoms: C_8  and  C_9
REMARK    6  A    between atoms: C_11  and  C_12
REMARK    7  A    between atoms: C_12  and  O_14
REMARK                            x       y       z     vdW  Elec       q    Type
REMARK                         _______ _______ _______ _____ _____    ______ ____
ROOT
ATOM      1  C   UNL     1       3.696   5.838  18.005  0.00  0.00    +0.000 A 
ATOM      2  C   UNL     1       3.571   5.097  19.162  0.00  0.00    +0.000 A 
ATOM      3  C   UNL     1       2.593   5.470  20.061  0.00  0.00    +0.000 A 
ATOM      4  C   UNL     1       2.051   6.752  20.055  0.00  0.00    +0.000 A 
ATOM      5  C   UNL     1       1.381   7.312  21.166  0.00  0.00    +0.000 A 
ATOM      6  C   UNL     1       0.916   8.620  21.119  0.00  0.00    +0.000 A 
ATOM      7  C   UNL     1       1.038   9.333  19.934  0.00  0.00    +0.000 A 
ATOM      8  C   UNL     1       1.680   8.756  18.827  0.00  0.00    +0.000 A 
ATOM      9  C   UNL     1       2.259   7.488  18.881  0.00  0.00    +0.000 A 
ATOM     10  N   UNL     1       2.996   6.994  17.848  0.00  0.00    +0.000 NA
ENDROOT
BRANCH   1  14
ATOM     11  C   UNL     1       5.955   4.457  14.576  0.00  0.00    +0.000 A 
ATOM     12  C   UNL     1       5.845   5.821  14.843  0.00  0.00    +0.000 A 
ATOM     13  C   UNL     1       5.185   6.261  15.992  0.00  0.00    +0.000 A 
ATOM     14  C   UNL     1       4.574   5.361  16.911  0.00  0.00    +0.000 A 
ATOM     15  C   UNL     1       4.772   3.998  16.675  0.00  0.00    +0.000 A 
ATOM     16  C   UNL     1       5.437   3.554  15.529  0.00  0.00    +0.000 A 
BRANCH  11  17
ATOM     17  C   UNL     1       6.479   3.908  13.272  0.00  0.00    +0.000 C 
BRANCH  17  19
ATOM     18  C   UNL     1       4.503   3.523  11.697  0.00  0.00    +0.000 C 
ATOM     19  C   UNL     1       5.650   2.880  12.478  0.00  0.00    +0.000 C 
ATOM     20  C   UNL     1       6.582   2.156  11.495  0.00  0.00    +0.000 C 
ENDBRANCH  17  19
ENDBRANCH  11  17
ENDBRANCH   1  14
BRANCH   3  21
ATOM     21  C   UNL     1       1.893   4.354  20.716  0.00  0.00    +0.000 C 
ATOM     22  O   UNL     1       2.243   3.814  21.749  0.00  0.00    +0.000 OA
BRANCH  21  23
ATOM     23  O   UNL     1       0.774   4.026  20.018  0.00  0.00    +0.000 OA
ATOM     24  H   UNL     1       0.683   4.455  19.140  0.00  0.00    +0.000 HD
ENDBRANCH  21  23
ENDBRANCH   3  21
TORSDOF 5
ENDMDL
MODEL 3
REMARK VINA RESULT:      -8.1      0.432      1.289
REMARK  Name = 
REMARK  7 active torsions:
REMARK  status: ('A' for Active; 'I' for Inactive)
REMARK    1  A    between atoms: C_1  and  C_2
REMARK    2  A    between atoms: C_2  and  C_3
REMARK    3  A    between atoms: C_2  and  C_4
REMARK    4  A    between atoms: C_4  and  C_5
REMARK    5  A    between atoms: C_8  and  C_9
REMARK    6  A    between atoms: C_11  and  C_12
REMARK    7  A    between atoms: C_12  and  O_14
REMARK                            x       y       z     vdW  Elec       q    Type
REMARK                         _______ _______ _______ _____ _____    ______ ____
ROOT
ATOM      1  C   UNL     1       3.146   6.294  18.085  0.00  0.00    +0.000 A 
ATOM      2  C   UNL     1       2.905   4.954  18.310  0.00  0.00    +0.000 A 
ATOM      3  C   UNL     1       3.818   4.046  17.813  0.00  0.00    +0.000 A 
ATOM      4  C   UNL     1       4.687   4.381  16.778  0.00  0.00    +0.000 A 
ATOM      5  C   UNL     1       5.329   3.418  15.967  0.00  0.00    +0.000 A 
ATOM      6  C   UNL     1       6.137   3.817  14.911  0.00  0.00    +0.000 A 
ATOM      7  C   UNL     1       6.376   5.172  14.723  0.00  0.00    +0.000 A 
ATOM      8  C   UNL     1       5.756   6.118  15.554  0.00  0.00    +0.000 A 
ATOM      9  C   UNL     1       4.850   5.753  16.549  0.00  0.00    +0.000 A 
ATOM     10  N   UNL     1       4.152   6.684  17.257  0.00  0.00    +0.000 NA
ENDROOT
BRANCH   1  14
ATOM     11  C   UNL     1       1.078   9.476  20.175  0.00  0.00    +0.000 A 
ATOM     12  C   UNL     1       1.318   9.574  18.805  0.00  0.00    +0.000 A 
ATOM     13  C   UNL     1       1.913   8.514  18.119  0.00  0.00    +0.000 A 
ATOM     14  C   UNL     1       2.327   7.319  18.774  0.00  0.00    +0.000 A 
ATOM     15  C   UNL     1       1.996   7.203  20.127  0.00  0.00    +0.000 A 
ATOM     16  C   UNL     1       1.395   8.260  20.816  0.00  0.00    +0.000 A 
BRANCH  11  17
ATOM     17  C   UNL     1       0.620  10.638  21.021  0.00  0.00    +0.000 C 
BRANCH  17  19
ATOM     18  C   UNL     1      -0.887  10.531  23.082  0.00  0.00    +0.000 C 
ATOM     19  C   UNL     1      -0.823  10.679  21.562  0.00  0.00    +0.000 C 
ATOM     20  C   UNL     1      -1.456  12.021  21.162  0.00  0.00    +0.000 C 
ENDBRANCH  17  19
ENDBRANCH  11  17
ENDBRANCH   1  14
BRANCH   3  21
ATOM     21  C   UNL     1       4.090   2.896  18.689  0.00  0.00    +0.000 C 
ATOM     22  O   UNL     1       3.408   1.889  18.760  0.00  0.00    +0.000 OA
BRANCH  21  23
ATOM     23  O   UNL     1       5.234   3.100  19.393  0.00  0.00    +0.000 OA
ATOM     24  H   UNL     1       5.230   2.759  20.313  0.00  0.00    +0.000 HD
ENDBRANCH  21  23
ENDBRANCH   3  21
TORSDOF 5
ENDMDL
MODEL 4
REMARK VINA RESULT:      -7.9      0.733      1.037
REMARK  Name = 
REMARK  7 active torsions:
REMARK  status: ('A' for Active; 'I' for Inactive)
REMARK    1  A    between atoms: C_1  and  C_2
REMARK    2  A    between atoms: C_2  and  C_3
REMARK    3  A    between atoms: C_2  and  C_4
REMARK    4  A    between atoms: C_4  and  C_5
REMARK    5  A    between atoms: C_8  and  C_9
REMARK    6  A    between atoms: C_11  and  C_12
REMARK    7  A    between atoms: C_12  and  O_14
REMARK                            x       y       z     vdW  Elec       q    Type
REMARK                         _______ _______ _______ _____ _____    ______ ____
ROOT
ATOM      1  C   UNL     1       3.264   6.409  17.974  0.00  0.00    +0.000 A 
ATOM      2  C   UNL     1       2.932   5.087  18.191  0.00  0.00    +0.000 A 
ATOM      3  C   UNL     1       3.789   4.121  17.701  0.00  0.00    +0.000 A 
ATOM      4  C   UNL     1       4.691   4.401  16.678  0.00  0.00    +0.000 A 
ATOM      5  C   UNL     1       5.278   3.400  15.872  0.00  0.00    +0.000 A 
ATOM      6  C   UNL     1       6.123   3.748  14.827  0.00  0.00    +0.000 A 
ATOM      7  C   UNL     1       6.455   5.085  14.648  0.00  0.00    +0.000 A 
ATOM      8  C   UNL     1       5.889   6.068  15.474  0.00  0.00    +0.000 A 
ATOM      9  C   UNL     1       4.947   5.761  16.457  0.00  0.00    +0.000 A 
ATOM     10  N   UNL     1       4.304   6.733  17.160  0.00  0.00    +0.000 NA
ENDROOT
BRANCH   1  14
ATOM     11  C   UNL     1       0.729   9.351  19.896  0.00  0.00    +0.000 A 
ATOM     12  C   UNL     1       1.248   8.283  20.627  0.00  0.00    +0.000 A 
ATOM     13  C   UNL     1       2.128   7.381  20.027  0.00  0.00    +0.000 A 
ATOM     14  C   UNL     1       2.507   7.483  18.657  0.00  0.00    +0.000 A 
ATOM     15  C   UNL     1       2.050   8.608  17.966  0.00  0.00    +0.000 A 
ATOM     16  C   UNL     1       1.173   9.516  18.566  0.00  0.00    +0.000 A 
BRANCH  11  17
ATOM     17  C   UNL     1      -0.367  10.251  20.408  0.00  0.00    +0.000 C 
BRANCH  17  19
ATOM     18  C   UNL     1      -2.014  12.068  19.688  0.00  0.00    +0.000 C 
ATOM     19  C   UNL     1      -0.545  11.664  19.819  0.00  0.00    +0.000 C 
ATOM     20  C   UNL     1       0.172  12.668  20.734  0.00  0.00    +0.000 C 
ENDBRANCH  17  19
ENDBRANCH  11  17
ENDBRANCH   1  14
BRANCH   3  21
ATOM     21  C   UNL     1       3.973   2.953  18.576  0.00  0.00    +0.000 C 
ATOM     22  O   UNL     1       3.266   1.961  18.581  0.00  0.00    +0.000 OA
BRANCH  21  23
ATOM     23  O   UNL     1       5.066   3.122  19.364  0.00  0.00    +0.000 OA
ATOM     24  H   UNL     1       5.028   2.681  20.240  0.00  0.00    +0.000 HD
ENDBRANCH  21  23
ENDBRANCH   3  21
TORSDOF 5
ENDMDL
MODEL 5
REMARK VINA RESULT:      -7.7      1.212      1.610
REMARK  Name = 
REMARK  7 active torsions:
REMARK  status: ('A' for Active; 'I' for Inactive)
REMARK    1  A    between atoms: C_1  and  C_2
REMARK    2  A    between atoms: C_2  and  C_3
REMARK    3  A    between atoms: C_2  and  C_4
REMARK    4  A    between atoms: C_4  and  C_5
REMARK    5  A    between atoms: C_8  and  C_9
REMARK    6  A    between atoms: C_11  and  C_12
REMARK    7  A    between atoms: C_12  and  O_14
REMARK                            x       y       z     vdW  Elec       q    Type
REMARK                         _______ _______ _______ _____ _____    ______ ____
ROOT
ATOM      1  C   UNL     1       3.036   6.770  18.056  0.00  0.00    +0.000 A 
ATOM      2  C   UNL     1       2.494   5.504  18.133  0.00  0.00    +0.000 A 
ATOM      3  C   UNL     1       3.293   4.439  17.766  0.00  0.00    +0.000 A 
ATOM      4  C   UNL     1       4.407   4.616  16.951  0.00  0.00    +0.000 A 
ATOM      5  C   UNL     1       5.002   3.563  16.219  0.00  0.00    +0.000 A 
ATOM      6  C   UNL     1       6.076   3.815  15.376  0.00  0.00    +0.000 A 
ATOM      7  C   UNL     1       6.612   5.095  15.335  0.00  0.00    +0.000 A 
ATOM      8  C   UNL     1       6.032   6.126  16.089  0.00  0.00    +0.000 A 
ATOM      9  C   UNL     1       4.882   5.930  16.856  0.00  0.00    +0.000 A 
ATOM     10  N   UNL     1       4.250   6.965  17.474  0.00  0.00    +0.000 NA
ENDROOT
BRANCH   1  14
ATOM     11  C   UNL     1       0.586   9.963  19.661  0.00  0.00    +0.000 A 
ATOM     12  C   UNL     1       0.958   8.888  20.467  0.00  0.00    +0.000 A 
ATOM     13  C   UNL     1       1.812   7.900  19.972  0.00  0.00    +0.000 A 
ATOM     14  C   UNL     1       2.310   7.923  18.637  0.00  0.00    +0.000 A 
ATOM     15  C   UNL     1       2.000   9.052  17.875  0.00  0.00    +0.000 A 
ATOM     16  C   UNL     1       1.149  10.045  18.370  0.00  0.00    +0.000 A 
BRANCH  11  17
ATOM     17  C   UNL     1      -0.476  10.961  20.049  0.00  0.00    +0.000 C 
BRANCH  17  19
ATOM     18  C   UNL     1      -2.194  10.346  18.259  0.00  0.00    +0.000 C 
ATOM     19  C   UNL     1      -1.474  11.477  18.994  0.00  0.00    +0.000 C 
ATOM     20  C   UNL     1      -2.515  12.361  19.698  0.00  0.00    +0.000 C 
ENDBRANCH  17  19
ENDBRANCH  11  17
ENDBRANCH   1  14
BRANCH   3  21
ATOM     21  C   UNL     1       3.142   3.235  18.596  0.00  0.00    +0.000 C 
ATOM     22  O   UNL     1       2.353   2.331  18.386  0.00  0.00    +0.000 OA
BRANCH  21  23
ATOM     23  O   UNL     1       4.033   3.255  19.621  0.00  0.00    +0.000 OA
ATOM     24  H   UNL     1       3.871   3.937  20.308  0.00  0.00    +0.000 HD
ENDBRANCH  21  23
ENDBRANCH   3  21
TORSDOF 5
ENDMDL
MODEL 6
REMARK VINA RESULT:      -7.7      3.449      8.495
REMARK  Name = 
REMARK  7 active torsions:
REMARK  status: ('A' for Active; 'I' for Inactive)
REMARK    1  A    between atoms: C_1  and  C_2
REMARK    2  A    between atoms: C_2  and  C_3
REMARK    3  A    between atoms: C_2  and  C_4
REMARK    4  A    between atoms: C_4  and  C_5
REMARK    5  A    between atoms: C_8  and  C_9
REMARK    6  A    between atoms: C_11  and  C_12
REMARK    7  A    between atoms: C_12  and  O_14
REMARK                            x       y       z     vdW  Elec       q    Type
REMARK                         _______ _______ _______ _____ _____    ______ ____
ROOT
ATOM      1  C   UNL     1       1.696   8.530  19.189  0.00  0.00    +0.000 A 
ATOM      2  C   UNL     1       1.293   9.679  18.540  0.00  0.00    +0.000 A 
ATOM      3  C   UNL     1       0.821  10.721  19.314  0.00  0.00    +0.000 A 
ATOM      4  C   UNL     1       0.351  10.510  20.607  0.00  0.00    +0.000 A 
ATOM      5  C   UNL     1      -0.502  11.418  21.275  0.00  0.00    +0.000 A 
ATOM      6  C   UNL     1      -0.986  11.122  22.542  0.00  0.00    +0.000 A 
ATOM      7  C   UNL     1      -0.546   9.969  23.177  0.00  0.00    +0.000 A 
ATOM      8  C   UNL     1       0.325   9.089  22.515  0.00  0.00    +0.000 A 
ATOM      9  C   UNL     1       0.737   9.301  21.199  0.00  0.00    +0.000 A 
ATOM     10  N   UNL     1       1.470   8.375  20.521  0.00  0.00    +0.000 NA
ENDROOT
BRANCH   1  14
ATOM     11  C   UNL     1       4.008   5.387  17.305  0.00  0.00    +0.000 A 
ATOM     12  C   UNL     1       2.889   5.072  18.075  0.00  0.00    +0.000 A 
ATOM     13  C   UNL     1       2.100   6.089  18.616  0.00  0.00    +0.000 A 
ATOM     14  C   UNL     1       2.409   7.469  18.440  0.00  0.00    +0.000 A 
ATOM     15  C   UNL     1       3.479   7.765  17.592  0.00  0.00    +0.000 A 
ATOM     16  C   UNL     1       4.268   6.749  17.045  0.00  0.00    +0.000 A 
BRANCH  11  17
ATOM     17  C   UNL     1       5.015   4.361  16.849  0.00  0.00    +0.000 C 
BRANCH  17  19
ATOM     18  C   UNL     1       7.552   4.525  17.107  0.00  0.00    +0.000 C 
ATOM     19  C   UNL     1       6.345   4.812  16.214  0.00  0.00    +0.000 C 
ATOM     20  C   UNL     1       6.523   4.074  14.879  0.00  0.00    +0.000 C 
ENDBRANCH  17  19
ENDBRANCH  11  17
ENDBRANCH   1  14
BRANCH   3  21
ATOM     21  C   UNL     1       1.223  12.061  18.861  0.00  0.00    +0.000 C 
ATOM     22  O   UNL     1       2.223  12.655  19.225  0.00  0.00    +0.000 OA
BRANCH  21  23
ATOM     23  O   UNL     1       0.334  12.538  17.951  0.00  0.00    +0.000 OA
ATOM     24  H   UNL     1       0.005  13.447  18.118  0.00  0.00    +0.000 HD
ENDBRANCH  21  23
ENDBRANCH   3  21
TORSDOF 5
ENDMDL
MODEL 7
REMARK VINA RESULT:      -7.6      0.860      1.655
REMARK  Name = 
REMARK  7 active torsions:
REMARK  status: ('A' for Active; 'I' for Inactive)
REMARK    1  A    between atoms: C_1  and  C_2
REMARK    2  A    between atoms: C_2  and  C_3
REMARK    3  A    between atoms: C_2  and  C_4
REMARK    4  A    between atoms: C_4  and  C_5
REMARK    5  A    between atoms: C_8  and  C_9
REMARK    6  A    between atoms: C_11  and  C_12
REMARK    7  A    between atoms: C_12  and  O_14
REMARK                            x       y       z     vdW  Elec       q    Type
REMARK                         _______ _______ _______ _____ _____    ______ ____
ROOT
ATOM      1  C   UNL     1       3.036   6.305  18.096  0.00  0.00    +0.000 A 
ATOM      2  C   UNL     1       2.531   5.033  17.921  0.00  0.00    +0.000 A 
ATOM      3  C   UNL     1       3.390   4.060  17.450  0.00  0.00    +0.000 A 
ATOM      4  C   UNL     1       4.557   4.391  16.767  0.00  0.00    +0.000 A 
ATOM      5  C   UNL     1       5.240   3.486  15.923  0.00  0.00    +0.000 A 
ATOM      6  C   UNL     1       6.366   3.896  15.222  0.00  0.00    +0.000 A 
ATOM      7  C   UNL     1       6.862   5.175  15.435  0.00  0.00    +0.000 A 
ATOM      8  C   UNL     1       6.192   6.055  16.299  0.00  0.00    +0.000 A 
ATOM      9  C   UNL     1       4.995   5.712  16.928  0.00  0.00    +0.000 A 
ATOM     10  N   UNL     1       4.283   6.618  17.654  0.00  0.00    +0.000 NA
ENDROOT
BRANCH   1  14
ATOM     11  C   UNL     1       1.008   9.490  20.220  0.00  0.00    +0.000 A 
ATOM     12  C   UNL     1       1.223   9.587  18.846  0.00  0.00    +0.000 A 
ATOM     13  C   UNL     1       1.805   8.525  18.150  0.00  0.00    +0.000 A 
ATOM     14  C   UNL     1       2.230   7.331  18.799  0.00  0.00    +0.000 A 
ATOM     15  C   UNL     1       1.924   7.216  20.158  0.00  0.00    +0.000 A 
ATOM     16  C   UNL     1       1.336   8.274  20.856  0.00  0.00    +0.000 A 
BRANCH  11  17
ATOM     17  C   UNL     1       0.566  10.654  21.072  0.00  0.00    +0.000 C 
BRANCH  17  19
ATOM     18  C   UNL     1      -1.319  12.357  20.792  0.00  0.00    +0.000 C 
ATOM     19  C   UNL     1       0.110  11.968  20.409  0.00  0.00    +0.000 C 
ATOM     20  C   UNL     1       1.067  13.090  20.840  0.00  0.00    +0.000 C 
ENDBRANCH  17  19
ENDBRANCH  11  17
ENDBRANCH   1  14
BRANCH   3  21
ATOM     21  C   UNL     1       3.216   2.732  18.056  0.00  0.00    +0.000 C 
ATOM     22  O   UNL     1       3.852   2.302  19.002  0.00  0.00    +0.000 OA
BRANCH  21  23
ATOM     23  O   UNL     1       2.219   2.054  17.429  0.00  0.00    +0.000 OA
ATOM     24  H   UNL     1       1.714   1.429  17.992  0.00  0.00    +0.000 HD
ENDBRANCH  21  23
ENDBRANCH   3  21
TORSDOF 5
ENDMDL
MODEL 8
REMARK VINA RESULT:      -7.6      1.298      1.754
REMARK  Name = 
REMARK  7 active torsions:
REMARK  status: ('A' for Active; 'I' for Inactive)
REMARK    1  A    between atoms: C_1  and  C_2
REMARK    2  A    between atoms: C_2  and  C_3
REMARK    3  A    between atoms: C_2  and  C_4
REMARK    4  A    between atoms: C_4  and  C_5
REMARK    5  A    between atoms: C_8  and  C_9
REMARK    6  A    between atoms: C_11  and  C_12
REMARK    7  A    between atoms: C_12  and  O_14
REMARK                            x       y       z     vdW  Elec       q    Type
REMARK                         _______ _______ _______ _____ _____    ______ ____
ROOT
ATOM      1  C   UNL     1       3.039   6.783  18.060  0.00  0.00    +0.000 A 
ATOM      2  C   UNL     1       2.459   5.532  18.099  0.00  0.00    +0.000 A 
ATOM      3  C   UNL     1       3.234   4.453  17.721  0.00  0.00    +0.000 A 
ATOM      4  C   UNL     1       4.367   4.615  16.928  0.00  0.00    +0.000 A 
ATOM      5  C   UNL     1       4.943   3.562  16.182  0.00  0.00    +0.000 A 
ATOM      6  C   UNL     1       6.038   3.802  15.363  0.00  0.00    +0.000 A 
ATOM      7  C   UNL     1       6.611   5.066  15.360  0.00  0.00    +0.000 A 
ATOM      8  C   UNL     1       6.048   6.097  16.128  0.00  0.00    +0.000 A 
ATOM      9  C   UNL     1       4.881   5.917  16.871  0.00  0.00    +0.000 A 
ATOM     10  N   UNL     1       4.268   6.956  17.502  0.00  0.00    +0.000 NA
ENDROOT
BRANCH   1  14
ATOM     11  C   UNL     1       0.656  10.015  19.687  0.00  0.00    +0.000 A 
ATOM     12  C   UNL     1       0.951   8.897  20.466  0.00  0.00    +0.000 A 
ATOM     13  C   UNL     1       1.784   7.893  19.968  0.00  0.00    +0.000 A 
ATOM     14  C   UNL     1       2.337   7.944  18.656  0.00  0.00    +0.000 A 
ATOM     15  C   UNL     1       2.104   9.112  17.926  0.00  0.00    +0.000 A 
ATOM     16  C   UNL     1       1.274  10.121  18.423  0.00  0.00    +0.000 A 
BRANCH  11  17
ATOM     17  C   UNL     1      -0.380  11.041  20.071  0.00  0.00    +0.000 C 
BRANCH  17  19
ATOM     18  C   UNL     1      -1.168  12.518  18.139  0.00  0.00    +0.000 C 
ATOM     19  C   UNL     1      -1.527  11.383  19.099  0.00  0.00    +0.000 C 
ATOM     20  C   UNL     1      -1.866  10.126  18.284  0.00  0.00    +0.000 C 
ENDBRANCH  17  19
ENDBRANCH  11  17
ENDBRANCH   1  14
BRANCH   3  21
ATOM     21  C   UNL     1       3.035   3.235  18.520  0.00  0.00    +0.000 C 
ATOM     22  O   UNL     1       3.640   2.957  19.540  0.00  0.00    +0.000 OA
BRANCH  21  23
ATOM     23  O   UNL     1       2.054   2.469  17.976  0.00  0.00    +0.000 OA
ATOM     24  H   UNL     1       1.527   1.941  18.614  0.00  0.00    +0.000 HD
ENDBRANCH  21  23
ENDBRANCH   3  21
TORSDOF 5
ENDMDL
MODEL 9
REMARK VINA RESULT:      -7.5      3.166      8.156
REMARK  Name = 
REMARK  7 active torsions:
REMARK  status: ('A' for Active; 'I' for Inactive)
REMARK    1  A    between atoms: C_1  and  C_2
REMARK    2  A    between atoms: C_2  and  C_3
REMARK    3  A    between atoms: C_2  and  C_4
REMARK    4  A    between atoms: C_4  and  C_5
REMARK    5  A    between atoms: C_8  and  C_9
REMARK    6  A    between atoms: C_11  and  C_12
REMARK    7  A    between atoms: C_12  and  O_14
REMARK                            x       y       z     vdW  Elec       q    Type
REMARK                         _______ _______ _______ _____ _____    ______ ____
ROOT
ATOM      1  C   UNL     1       1.571   8.565  19.721  0.00  0.00    +0.000 A 
ATOM      2  C   UNL     1       1.559   8.728  21.091  0.00  0.00    +0.000 A 
ATOM      3  C   UNL     1       0.712   9.684  21.616  0.00  0.00    +0.000 A 
ATOM      4  C   UNL     1       0.224  10.730  20.837  0.00  0.00    +0.000 A 
ATOM      5  C   UNL     1      -0.284  11.929  21.386  0.00  0.00    +0.000 A 
ATOM      6  C   UNL     1      -0.699  12.960  20.554  0.00  0.00    +0.000 A 
ATOM      7  C   UNL     1      -0.694  12.757  19.180  0.00  0.00    +0.000 A 
ATOM      8  C   UNL     1      -0.215  11.551  18.647  0.00  0.00    +0.000 A 
ATOM      9  C   UNL     1       0.316  10.542  19.452  0.00  0.00    +0.000 A 
ATOM     10  N   UNL     1       0.902   9.435  18.918  0.00  0.00    +0.000 NA
ENDROOT
BRANCH   1  14
ATOM     11  C   UNL     1       3.972   5.303  18.183  0.00  0.00    +0.000 A 
ATOM     12  C   UNL     1       3.171   5.117  19.310  0.00  0.00    +0.000 A 
ATOM     13  C   UNL     1       2.338   6.145  19.757  0.00  0.00    +0.000 A 
ATOM     14  C   UNL     1       2.290   7.418  19.119  0.00  0.00    +0.000 A 
ATOM     15  C   UNL     1       3.029   7.554  17.942  0.00  0.00    +0.000 A 
ATOM     16  C   UNL     1       3.860   6.526  17.488  0.00  0.00    +0.000 A 
BRANCH  11  17
ATOM     17  C   UNL     1       5.033   4.323  17.751  0.00  0.00    +0.000 C 
BRANCH  17  19
ATOM     18  C   UNL     1       7.548   4.595  17.386  0.00  0.00    +0.000 C 
ATOM     19  C   UNL     1       6.151   4.769  16.789  0.00  0.00    +0.000 C 
ATOM     20  C   UNL     1       6.049   3.935  15.503  0.00  0.00    +0.000 C 
ENDBRANCH  17  19
ENDBRANCH  11  17
ENDBRANCH   1  14
BRANCH   3  21
ATOM     21  C   UNL     1       0.053   9.306  22.876  0.00  0.00    +0.000 C 
ATOM     22  O   UNL     1       0.357   9.720  23.980  0.00  0.00    +0.000 OA
BRANCH  21  23
ATOM     23  O   UNL     1      -0.969   8.445  22.632  0.00  0.00    +0.000 OA
ATOM     24  H   UNL     1      -1.020   8.097  21.716  0.00  0.00    +0.000 HD
ENDBRANCH  21  23
ENDBRANCH   3  21
TORSDOF 5
ENDMDL
