MODEL 1
REMARK VINA RESULT:      -6.7      0.000      0.000
REMARK  Name = 
REMARK  11 active torsions:
REMARK  status: ('A' for Active; 'I' for Inactive)
REMARK    1  A    between atoms: C_1  and  O_2
REMARK    2  A    between atoms: O_2  and  C_3
REMARK    3  A    between atoms: C_6  and  C_7
REMARK    4  A    between atoms: C_7  and  C_8
REMARK    5  A    between atoms: C_8  and  C_9
REMARK    6  A    between atoms: C_9  and  C_10
REMARK    7  A    between atoms: C_10  and  C_11
REMARK    8  A    between atoms: C_11  and  O_13
REMARK    9  A    between atoms: C_15  and  C_16
REMARK   10  A    between atoms: C_16  and  C_17
REMARK   11  A    between atoms: C_23  and  N_24
REMARK                            x       y       z     vdW  Elec       q    Type
REMARK                         _______ _______ _______ _____ _____    ______ ____
ROOT
ATOM      1  C   UNL     1       2.322   8.015  18.795  0.00  0.00    +0.000 A 
ATOM      2  C   UNL     1       1.705   7.931  20.049  0.00  0.00    +0.000 A 
ATOM      3  C   UNL     1       1.692   6.736  20.760  0.00  0.00    +0.000 A 
ATOM      4  C   UNL     1       2.290   5.596  20.225  0.00  0.00    +0.000 A 
ATOM      5  C   UNL     1       3.008   5.705  19.024  0.00  0.00    +0.000 A 
ATOM      6  C   UNL     1       3.061   6.921  18.307  0.00  0.00    +0.000 A 
ENDROOT
BRANCH   1   8
ATOM      7  C   UNL     1       0.941   9.761  18.016  0.00  0.00    +0.000 C 
ATOM      8  O   UNL     1       2.234   9.143  18.016  0.00  0.00    +0.000 OA
ENDBRANCH   1   8
BRANCH   4   9
ATOM      9  C   UNL     1       2.132   4.270  20.927  0.00  0.00    +0.000 C 
BRANCH   9  10
ATOM     10  C   UNL     1       0.781   3.592  20.636  0.00  0.00    +0.000 C 
BRANCH  10  11
ATOM     11  C   UNL     1       0.751   2.857  19.291  0.00  0.00    +0.000 C 
BRANCH  11  12
ATOM     12  C   UNL     1       1.948   1.916  19.143  0.00  0.00    +0.000 C 
BRANCH  12  13
ATOM     13  C   UNL     1       2.730   2.194  17.877  0.00  0.00    +0.000 C 
ATOM     14  O   UNL     1       3.824   1.744  17.603  0.00  0.00    +0.000 OA
BRANCH  13  15
ATOM     15  O   UNL     1       2.059   3.029  17.043  0.00  0.00    +0.000 OA
ATOM     16  H   UNL     1       1.559   3.730  17.503  0.00  0.00    +0.000 HD
ENDBRANCH  13  15
ENDBRANCH  12  13
ENDBRANCH  11  12
ENDBRANCH  10  11
ENDBRANCH   9  10
ENDBRANCH   4   9
BRANCH   6  17
ATOM     17  C   UNL     1       3.895   6.986  17.036  0.00  0.00    +0.000 C 
BRANCH  17  18
ATOM     18  C   UNL     1       5.202   6.253  17.122  0.00  0.00    +0.000 A 
ATOM     19  C   UNL     1       6.294   6.798  17.768  0.00  0.00    +0.000 A 
ATOM     20  N   UNL     1       7.442   6.137  17.993  0.00  0.00    +0.000 NA
ATOM     21  C   UNL     1       7.494   4.886  17.537  0.00  0.00    +0.000 A 
ATOM     22  N   UNL     1       8.574   4.116  17.930  0.00  0.00    +0.000 N 
ATOM     23  N   UNL     1       6.532   4.284  16.835  0.00  0.00    +0.000 NA
ATOM     24  C   UNL     1       5.406   4.981  16.624  0.00  0.00    +0.000 A 
ATOM     25  H   UNL     1       8.929   4.510  18.792  0.00  0.00    +0.000 HD
ATOM     26  H   UNL     1       8.265   3.155  17.982  0.00  0.00    +0.000 HD
BRANCH  24  27
ATOM     27  N   UNL     1       4.465   4.363  15.804  0.00  0.00    +0.000 N 
ATOM     28  H   UNL     1       4.945   4.024  14.977  0.00  0.00    +0.000 HD
ATOM     29  H   UNL     1       3.959   3.631  16.299  0.00  0.00    +0.000 HD
ENDBRANCH  24  27
ENDBRANCH  17  18
ENDBRANCH   6  17
TORSDOF 10
ENDMDL
MODEL 2
REMARK VINA RESULT:      -6.6      2.247      5.582
REMARK  Name = 
REMARK  11 active torsions:
REMARK  status: ('A' for Active; 'I' for Inactive)
REMARK    1  A    between atoms: C_1  and  O_2
REMARK    2  A    between atoms: O_2  and  C_3
REMARK    3  A    between atoms: C_6  and  C_7
REMARK    4  A    between atoms: C_7  and  C_8
REMARK    5  A    between atoms: C_8  and  C_9
REMARK    6  A    between atoms: C_9  and  C_10
REMARK    7  A    between atoms: C_10  and  C_11
REMARK    8  A    between atoms: C_11  and  O_13
REMARK    9  A    between atoms: C_15  and  C_16
REMARK   10  A    between atoms: C_16  and  C_17
REMARK   11  A    between atoms: C_23  and  N_24
REMARK                            x       y       z     vdW  Elec       q    Type
REMARK                         _______ _______ _______ _____ _____    ______ ____
ROOT
ATOM      1  C   UNL     1       2.695   4.921  19.912  0.00  0.00    +0.000 A 
ATOM      2  C   UNL     1       2.056   6.011  20.517  0.00  0.00    +0.000 A 
ATOM      3  C   UNL     1       1.880   7.207  19.830  0.00  0.00    +0.000 A 
ATOM      4  C   UNL     1       2.350   7.341  18.524  0.00  0.00    +0.000 A 
ATOM      5  C   UNL     1       2.887   6.217  17.877  0.00  0.00    +0.000 A 
ATOM      6  C   UNL     1       3.040   4.984  18.549  0.00  0.00    +0.000 A 
ENDROOT
BRANCH   1   8
ATOM      7  C   UNL     1       1.893   3.211  21.325  0.00  0.00    +0.000 C 
ATOM      8  O   UNL     1       2.999   3.778  20.611  0.00  0.00    +0.000 OA
ENDBRANCH   1   8
BRANCH   4   9
ATOM      9  C   UNL     1       2.300   8.687  17.847  0.00  0.00    +0.000 C 
BRANCH   9  10
ATOM     10  C   UNL     1       1.398   9.698  18.578  0.00  0.00    +0.000 C 
BRANCH  10  11
ATOM     11  C   UNL     1       0.045   9.908  17.889  0.00  0.00    +0.000 C 
BRANCH  11  12
ATOM     12  C   UNL     1      -1.028  10.343  18.888  0.00  0.00    +0.000 C 
BRANCH  12  13
ATOM     13  C   UNL     1      -1.910  11.438  18.328  0.00  0.00    +0.000 C 
ATOM     14  O   UNL     1      -2.866  11.937  18.886  0.00  0.00    +0.000 OA
BRANCH  13  15
ATOM     15  O   UNL     1      -1.510  11.822  17.089  0.00  0.00    +0.000 OA
ATOM     16  H   UNL     1      -2.044  12.545  16.707  0.00  0.00    +0.000 HD
ENDBRANCH  13  15
ENDBRANCH  12  13
ENDBRANCH  11  12
ENDBRANCH  10  11
ENDBRANCH   9  10
ENDBRANCH   4   9
BRANCH   6  17
ATOM     17  C   UNL     1       3.585   3.791  17.777  0.00  0.00    +0.000 C 
BRANCH  17  18
ATOM     18  C   UNL     1       4.778   4.107  16.923  0.00  0.00    +0.000 A 
ATOM     19  C   UNL     1       4.671   4.230  15.552  0.00  0.00    +0.000 A 
ATOM     20  N   UNL     1       5.670   4.641  14.754  0.00  0.00    +0.000 NA
ATOM     21  C   UNL     1       6.822   4.925  15.361  0.00  0.00    +0.000 A 
ATOM     22  N   UNL     1       7.800   5.543  14.601  0.00  0.00    +0.000 N 
ATOM     23  N   UNL     1       7.062   4.770  16.664  0.00  0.00    +0.000 NA
ATOM     24  C   UNL     1       6.041   4.349  17.425  0.00  0.00    +0.000 A 
ATOM     25  H   UNL     1       7.335   6.013  13.834  0.00  0.00    +0.000 HD
ATOM     26  H   UNL     1       8.339   6.137  15.216  0.00  0.00    +0.000 HD
BRANCH  24  27
ATOM     27  N   UNL     1       6.352   4.101  18.759  0.00  0.00    +0.000 N 
ATOM     28  H   UNL     1       5.517   4.268  19.311  0.00  0.00    +0.000 HD
ATOM     29  H   UNL     1       6.735   3.166  18.888  0.00  0.00    +0.000 HD
ENDBRANCH  24  27
ENDBRANCH  17  18
ENDBRANCH   6  17
TORSDOF 10
ENDMDL
MODEL 3
REMARK VINA RESULT:      -6.6      3.653      5.775
REMARK  Name = 
REMARK  11 active torsions:
REMARK  status: ('A' for Active; 'I' for Inactive)
REMARK    1  A    between atoms: C_1  and  O_2
REMARK    2  A    between atoms: O_2  and  C_3
REMARK    3  A    between atoms: C_6  and  C_7
REMARK    4  A    between atoms: C_7  and  C_8
REMARK    5  A    between atoms: C_8  and  C_9
REMARK    6  A    between atoms: C_9  and  C_10
REMARK    7  A    between atoms: C_10  and  C_11
REMARK    8  A    between atoms: C_11  and  O_13
REMARK    9  A    between atoms: C_15  and  C_16
REMARK   10  A    between atoms: C_16  and  C_17
REMARK   11  A    between atoms: C_23  and  N_24
REMARK                            x       y       z     vdW  Elec       q    Type
REMARK                         _______ _______ _______ _____ _____    ______ ____
ROOT
ATOM      1  C   UNL     1       3.713   6.982  17.809  0.00  0.00    +0.000 A 
ATOM      2  C   UNL     1       4.971   7.389  17.348  0.00  0.00    +0.000 A 
ATOM      3  C   UNL     1       5.839   6.483  16.749  0.00  0.00    +0.000 A 
ATOM      4  C   UNL     1       5.470   5.146  16.607  0.00  0.00    +0.000 A 
ATOM      5  C   UNL     1       4.168   4.760  16.963  0.00  0.00    +0.000 A 
ATOM      6  C   UNL     1       3.261   5.677  17.540  0.00  0.00    +0.000 A 
ENDROOT
BRANCH   1   8
ATOM      7  C   UNL     1       2.169   8.763  17.716  0.00  0.00    +0.000 C 
ATOM      8  O   UNL     1       2.893   7.824  18.521  0.00  0.00    +0.000 OA
ENDBRANCH   1   8
BRANCH   4   9
ATOM      9  C   UNL     1       6.476   4.142  16.106  0.00  0.00    +0.000 C 
BRANCH   9  10
ATOM     10  C   UNL     1       6.061   3.480  14.779  0.00  0.00    +0.000 C 
BRANCH  10  11
ATOM     11  C   UNL     1       6.175   4.421  13.574  0.00  0.00    +0.000 C 
BRANCH  11  12
ATOM     12  C   UNL     1       6.559   3.658  12.306  0.00  0.00    +0.000 C 
BRANCH  12  13
ATOM     13  C   UNL     1       5.424   2.793  11.803  0.00  0.00    +0.000 C 
ATOM     14  O   UNL     1       4.289   3.166  11.579  0.00  0.00    +0.000 OA
BRANCH  13  15
ATOM     15  O   UNL     1       5.814   1.506  11.619  0.00  0.00    +0.000 OA
ATOM     16  H   UNL     1       6.138   1.070  12.430  0.00  0.00    +0.000 HD
ENDBRANCH  13  15
ENDBRANCH  12  13
ENDBRANCH  11  12
ENDBRANCH  10  11
ENDBRANCH   9  10
ENDBRANCH   4   9
BRANCH   6  17
ATOM     17  C   UNL     1       1.849   5.207  17.860  0.00  0.00    +0.000 C 
BRANCH  17  18
ATOM     18  C   UNL     1       1.752   4.348  19.087  0.00  0.00    +0.000 A 
ATOM     19  C   UNL     1       1.579   2.981  18.998  0.00  0.00    +0.000 A 
ATOM     20  N   UNL     1       1.620   2.149  20.052  0.00  0.00    +0.000 NA
ATOM     21  C   UNL     1       1.829   2.718  21.238  0.00  0.00    +0.000 A 
ATOM     22  N   UNL     1       2.080   1.876  22.307  0.00  0.00    +0.000 N 
ATOM     23  N   UNL     1       1.933   4.031  21.451  0.00  0.00    +0.000 NA
ATOM     24  C   UNL     1       1.878   4.829  20.375  0.00  0.00    +0.000 A 
ATOM     25  H   UNL     1       2.438   1.007  21.930  0.00  0.00    +0.000 HD
ATOM     26  H   UNL     1       2.694   2.363  22.945  0.00  0.00    +0.000 HD
BRANCH  24  27
ATOM     27  N   UNL     1       1.888   6.196  20.643  0.00  0.00    +0.000 N 
ATOM     28  H   UNL     1       2.745   6.583  20.261  0.00  0.00    +0.000 HD
ATOM     29  H   UNL     1       1.050   6.653  20.287  0.00  0.00    +0.000 HD
ENDBRANCH  24  27
ENDBRANCH  17  18
ENDBRANCH   6  17
TORSDOF 10
ENDMDL
MODEL 4
REMARK VINA RESULT:      -6.6      3.208      6.393
REMARK  Name = 
REMARK  11 active torsions:
REMARK  status: ('A' for Active; 'I' for Inactive)
REMARK    1  A    between atoms: C_1  and  O_2
REMARK    2  A    between atoms: O_2  and  C_3
REMARK    3  A    between atoms: C_6  and  C_7
REMARK    4  A    between atoms: C_7  and  C_8
REMARK    5  A    between atoms: C_8  and  C_9
REMARK    6  A    between atoms: C_9  and  C_10
REMARK    7  A    between atoms: C_10  and  C_11
REMARK    8  A    between atoms: C_11  and  O_13
REMARK    9  A    between atoms: C_15  and  C_16
REMARK   10  A    between atoms: C_16  and  C_17
REMARK   11  A    between atoms: C_23  and  N_24
REMARK                            x       y       z     vdW  Elec       q    Type
REMARK                         _______ _______ _______ _____ _____    ______ ____
ROOT
ATOM      1  C   UNL     1       5.067   4.789  16.328  0.00  0.00    +0.000 A 
ATOM      2  C   UNL     1       5.526   6.100  16.147  0.00  0.00    +0.000 A 
ATOM      3  C   UNL     1       4.862   7.175  16.727  0.00  0.00    +0.000 A 
ATOM      4  C   UNL     1       3.717   6.961  17.494  0.00  0.00    +0.000 A 
ATOM      5  C   UNL     1       3.322   5.643  17.771  0.00  0.00    +0.000 A 
ATOM      6  C   UNL     1       4.007   4.539  17.219  0.00  0.00    +0.000 A 
ENDROOT
BRANCH   1   8
ATOM      7  C   UNL     1       6.023   4.017  14.315  0.00  0.00    +0.000 C 
ATOM      8  O   UNL     1       5.625   3.726  15.660  0.00  0.00    +0.000 OA
ENDBRANCH   1   8
BRANCH   4   9
ATOM      9  C   UNL     1       2.914   8.140  17.982  0.00  0.00    +0.000 C 
BRANCH   9  10
ATOM     10  C   UNL     1       2.046   7.813  19.211  0.00  0.00    +0.000 C 
BRANCH  10  11
ATOM     11  C   UNL     1       1.284   9.027  19.753  0.00  0.00    +0.000 C 
BRANCH  11  12
ATOM     12  C   UNL     1       0.787   8.783  21.179  0.00  0.00    +0.000 C 
BRANCH  12  13
ATOM     13  C   UNL     1       0.751  10.060  21.990  0.00  0.00    +0.000 C 
ATOM     14  O   UNL     1       0.932  11.182  21.561  0.00  0.00    +0.000 OA
BRANCH  13  15
ATOM     15  O   UNL     1       0.486   9.818  23.299  0.00  0.00    +0.000 OA
ATOM     16  H   UNL     1       0.984  10.389  23.916  0.00  0.00    +0.000 HD
ENDBRANCH  13  15
ENDBRANCH  12  13
ENDBRANCH  11  12
ENDBRANCH  10  11
ENDBRANCH   9  10
ENDBRANCH   4   9
BRANCH   6  17
ATOM     17  C   UNL     1       3.558   3.134  17.597  0.00  0.00    +0.000 C 
BRANCH  17  18
ATOM     18  C   UNL     1       2.960   3.030  18.969  0.00  0.00    +0.000 A 
ATOM     19  C   UNL     1       1.637   3.346  19.206  0.00  0.00    +0.000 A 
ATOM     20  N   UNL     1       1.015   3.145  20.379  0.00  0.00    +0.000 NA
ATOM     21  C   UNL     1       1.758   2.619  21.352  0.00  0.00    +0.000 A 
ATOM     22  N   UNL     1       1.100   2.211  22.499  0.00  0.00    +0.000 N 
ATOM     23  N   UNL     1       3.061   2.346  21.260  0.00  0.00    +0.000 NA
ATOM     24  C   UNL     1       3.647   2.569  20.075  0.00  0.00    +0.000 A 
ATOM     25  H   UNL     1       0.136   2.031  22.247  0.00  0.00    +0.000 HD
ATOM     26  H   UNL     1       1.607   1.424  22.882  0.00  0.00    +0.000 HD
BRANCH  24  27
ATOM     27  N   UNL     1       5.025   2.370  20.042  0.00  0.00    +0.000 N 
ATOM     28  H   UNL     1       5.313   2.025  20.952  0.00  0.00    +0.000 HD
ATOM     29  H   UNL     1       5.297   1.755  19.278  0.00  0.00    +0.000 HD
ENDBRANCH  24  27
ENDBRANCH  17  18
ENDBRANCH   6  17
TORSDOF 10
ENDMDL
MODEL 5
REMARK VINA RESULT:      -6.5      0.893      1.012
REMARK  Name = 
REMARK  11 active torsions:
REMARK  status: ('A' for Active; 'I' for Inactive)
REMARK    1  A    between atoms: C_1  and  O_2
REMARK    2  A    between atoms: O_2  and  C_3
REMARK    3  A    between atoms: C_6  and  C_7
REMARK    4  A    between atoms: C_7  and  C_8
REMARK    5  A    between atoms: C_8  and  C_9
REMARK    6  A    between atoms: C_9  and  C_10
REMARK    7  A    between atoms: C_10  and  C_11
REMARK    8  A    between atoms: C_11  and  O_13
REMARK    9  A    between atoms: C_15  and  C_16
REMARK   10  A    between atoms: C_16  and  C_17
REMARK   11  A    between atoms: C_23  and  N_24
REMARK                            x       y       z     vdW  Elec       q    Type
REMARK                         _______ _______ _______ _____ _____    ______ ____
ROOT
ATOM      1  C   UNL     1       2.256   8.070  18.809  0.00  0.00    +0.000 A 
ATOM      2  C   UNL     1       1.619   8.033  20.055  0.00  0.00    +0.000 A 
ATOM      3  C   UNL     1       1.571   6.859  20.798  0.00  0.00    +0.000 A 
ATOM      4  C   UNL     1       2.152   5.692  20.303  0.00  0.00    +0.000 A 
ATOM      5  C   UNL     1       2.888   5.754  19.110  0.00  0.00    +0.000 A 
ATOM      6  C   UNL     1       2.977   6.948  18.361  0.00  0.00    +0.000 A 
ENDROOT
BRANCH   1   8
ATOM      7  C   UNL     1       1.448  10.270  18.540  0.00  0.00    +0.000 C 
ATOM      8  O   UNL     1       2.202   9.178  17.998  0.00  0.00    +0.000 OA
ENDBRANCH   1   8
BRANCH   4   9
ATOM      9  C   UNL     1       1.955   4.390  21.037  0.00  0.00    +0.000 C 
BRANCH   9  10
ATOM     10  C   UNL     1       0.974   3.439  20.327  0.00  0.00    +0.000 C 
BRANCH  10  11
ATOM     11  C   UNL     1       1.646   2.171  19.787  0.00  0.00    +0.000 C 
BRANCH  11  12
ATOM     12  C   UNL     1       1.947   2.294  18.293  0.00  0.00    +0.000 C 
BRANCH  12  13
ATOM     13  C   UNL     1       3.417   2.089  17.995  0.00  0.00    +0.000 C 
ATOM     14  O   UNL     1       4.161   2.904  17.487  0.00  0.00    +0.000 OA
BRANCH  13  15
ATOM     15  O   UNL     1       3.839   0.853  18.367  0.00  0.00    +0.000 OA
ATOM     16  H   UNL     1       4.536   0.483  17.791  0.00  0.00    +0.000 HD
ENDBRANCH  13  15
ENDBRANCH  12  13
ENDBRANCH  11  12
ENDBRANCH  10  11
ENDBRANCH   9  10
ENDBRANCH   4   9
BRANCH   6  17
ATOM     17  C   UNL     1       3.830   6.961  17.101  0.00  0.00    +0.000 C 
BRANCH  17  18
ATOM     18  C   UNL     1       5.174   6.312  17.263  0.00  0.00    +0.000 A 
ATOM     19  C   UNL     1       5.752   6.152  18.506  0.00  0.00    +0.000 A 
ATOM     20  N   UNL     1       6.884   5.462  18.725  0.00  0.00    +0.000 NA
ATOM     21  C   UNL     1       7.458   4.926  17.649  0.00  0.00    +0.000 A 
ATOM     22  N   UNL     1       8.503   4.044  17.865  0.00  0.00    +0.000 N 
ATOM     23  N   UNL     1       7.032   5.080  16.394  0.00  0.00    +0.000 NA
ATOM     24  C   UNL     1       5.904   5.783  16.217  0.00  0.00    +0.000 A 
ATOM     25  H   UNL     1       8.394   3.669  18.799  0.00  0.00    +0.000 HD
ATOM     26  H   UNL     1       8.491   3.364  17.116  0.00  0.00    +0.000 HD
BRANCH  24  27
ATOM     27  N   UNL     1       5.543   6.009  14.891  0.00  0.00    +0.000 N 
ATOM     28  H   UNL     1       4.837   6.738  14.879  0.00  0.00    +0.000 HD
ATOM     29  H   UNL     1       6.352   6.230  14.314  0.00  0.00    +0.000 HD
ENDBRANCH  24  27
ENDBRANCH  17  18
ENDBRANCH   6  17
TORSDOF 10
ENDMDL
MODEL 6
REMARK VINA RESULT:      -6.5      3.380      6.082
REMARK  Name = 
REMARK  11 active torsions:
REMARK  status: ('A' for Active; 'I' for Inactive)
REMARK    1  A    between atoms: C_1  and  O_2
REMARK    2  A    between atoms: O_2  and  C_3
REMARK    3  A    between atoms: C_6  and  C_7
REMARK    4  A    between atoms: C_7  and  C_8
REMARK    5  A    between atoms: C_8  and  C_9
REMARK    6  A    between atoms: C_9  and  C_10
REMARK    7  A    between atoms: C_10  and  C_11
REMARK    8  A    between atoms: C_11  and  O_13
REMARK    9  A    between atoms: C_15  and  C_16
REMARK   10  A    between atoms: C_16  and  C_17
REMARK   11  A    between atoms: C_23  and  N_24
REMARK                            x       y       z     vdW  Elec       q    Type
REMARK                         _______ _______ _______ _____ _____    ______ ____
ROOT
ATOM      1  C   UNL     1       2.087   3.368  19.526  0.00  0.00    +0.000 A 
ATOM      2  C   UNL     1       2.448   2.303  18.690  0.00  0.00    +0.000 A 
ATOM      3  C   UNL     1       3.373   2.481  17.667  0.00  0.00    +0.000 A 
ATOM      4  C   UNL     1       3.950   3.732  17.453  0.00  0.00    +0.000 A 
ATOM      5  C   UNL     1       3.678   4.769  18.358  0.00  0.00    +0.000 A 
ATOM      6  C   UNL     1       2.768   4.595  19.424  0.00  0.00    +0.000 A 
ENDROOT
BRANCH   1   8
ATOM      7  C   UNL     1       1.486   2.653  21.691  0.00  0.00    +0.000 C 
ATOM      8  O   UNL     1       1.082   3.253  20.455  0.00  0.00    +0.000 OA
ENDBRANCH   1   8
BRANCH   4   9
ATOM      9  C   UNL     1       4.825   3.954  16.245  0.00  0.00    +0.000 C 
BRANCH   9  10
ATOM     10  C   UNL     1       5.143   5.439  15.994  0.00  0.00    +0.000 C 
BRANCH  10  11
ATOM     11  C   UNL     1       6.638   5.763  16.096  0.00  0.00    +0.000 C 
BRANCH  11  12
ATOM     12  C   UNL     1       7.022   6.187  17.514  0.00  0.00    +0.000 C 
BRANCH  12  13
ATOM     13  C   UNL     1       7.789   5.103  18.239  0.00  0.00    +0.000 C 
ATOM     14  O   UNL     1       8.295   4.125  17.726  0.00  0.00    +0.000 OA
BRANCH  13  15
ATOM     15  O   UNL     1       7.859   5.341  19.573  0.00  0.00    +0.000 OA
ATOM     16  H   UNL     1       7.477   4.630  20.123  0.00  0.00    +0.000 HD
ENDBRANCH  13  15
ENDBRANCH  12  13
ENDBRANCH  11  12
ENDBRANCH  10  11
ENDBRANCH   9  10
ENDBRANCH   4   9
BRANCH   6  17
ATOM     17  C   UNL     1       2.552   5.744  20.399  0.00  0.00    +0.000 C 
BRANCH  17  18
ATOM     18  C   UNL     1       2.230   7.054  19.740  0.00  0.00    +0.000 A 
ATOM     19  C   UNL     1       2.433   7.252  18.389  0.00  0.00    +0.000 A 
ATOM     20  N   UNL     1       2.041   8.350  17.723  0.00  0.00    +0.000 NA
ATOM     21  C   UNL     1       1.434   9.288  18.449  0.00  0.00    +0.000 A 
ATOM     22  N   UNL     1       0.838  10.331  17.762  0.00  0.00    +0.000 N 
ATOM     23  N   UNL     1       1.252   9.238  19.770  0.00  0.00    +0.000 NA
ATOM     24  C   UNL     1       1.667   8.129  20.400  0.00  0.00    +0.000 A 
ATOM     25  H   UNL     1       0.637  10.002  16.826  0.00  0.00    +0.000 HD
ATOM     26  H   UNL     1       0.038  10.637  18.300  0.00  0.00    +0.000 HD
BRANCH  24  27
ATOM     27  N   UNL     1       1.555   8.152  21.788  0.00  0.00    +0.000 N 
ATOM     28  H   UNL     1       2.258   8.789  22.148  0.00  0.00    +0.000 HD
ATOM     29  H   UNL     1       0.610   8.392  22.084  0.00  0.00    +0.000 HD
ENDBRANCH  24  27
ENDBRANCH  17  18
ENDBRANCH   6  17
TORSDOF 10
ENDMDL
MODEL 7
REMARK VINA RESULT:      -6.5      2.206      5.543
REMARK  Name = 
REMARK  11 active torsions:
REMARK  status: ('A' for Active; 'I' for Inactive)
REMARK    1  A    between atoms: C_1  and  O_2
REMARK    2  A    between atoms: O_2  and  C_3
REMARK    3  A    between atoms: C_6  and  C_7
REMARK    4  A    between atoms: C_7  and  C_8
REMARK    5  A    between atoms: C_8  and  C_9
REMARK    6  A    between atoms: C_9  and  C_10
REMARK    7  A    between atoms: C_10  and  C_11
REMARK    8  A    between atoms: C_11  and  O_13
REMARK    9  A    between atoms: C_15  and  C_16
REMARK   10  A    between atoms: C_16  and  C_17
REMARK   11  A    between atoms: C_23  and  N_24
REMARK                            x       y       z     vdW  Elec       q    Type
REMARK                         _______ _______ _______ _____ _____    ______ ____
ROOT
ATOM      1  C   UNL     1       3.021   4.667  19.671  0.00  0.00    +0.000 A 
ATOM      2  C   UNL     1       2.383   5.731  20.321  0.00  0.00    +0.000 A 
ATOM      3  C   UNL     1       2.210   6.955  19.686  0.00  0.00    +0.000 A 
ATOM      4  C   UNL     1       2.681   7.144  18.387  0.00  0.00    +0.000 A 
ATOM      5  C   UNL     1       3.217   6.048  17.693  0.00  0.00    +0.000 A 
ATOM      6  C   UNL     1       3.367   4.788  18.312  0.00  0.00    +0.000 A 
ENDROOT
BRANCH   1   8
ATOM      7  C   UNL     1       2.178   2.740  20.738  0.00  0.00    +0.000 C 
ATOM      8  O   UNL     1       3.322   3.494  20.320  0.00  0.00    +0.000 OA
ENDBRANCH   1   8
BRANCH   4   9
ATOM      9  C   UNL     1       2.634   8.518  17.767  0.00  0.00    +0.000 C 
BRANCH   9  10
ATOM     10  C   UNL     1       1.255   9.191  17.894  0.00  0.00    +0.000 C 
BRANCH  10  11
ATOM     11  C   UNL     1       1.209  10.274  18.978  0.00  0.00    +0.000 C 
BRANCH  11  12
ATOM     12  C   UNL     1      -0.202  10.435  19.546  0.00  0.00    +0.000 C 
BRANCH  12  13
ATOM     13  C   UNL     1      -0.194  11.144  20.883  0.00  0.00    +0.000 C 
ATOM     14  O   UNL     1      -1.165  11.602  21.451  0.00  0.00    +0.000 OA
BRANCH  13  15
ATOM     15  O   UNL     1       1.056  11.221  21.406  0.00  0.00    +0.000 OA
ATOM     16  H   UNL     1       1.473  12.098  21.308  0.00  0.00    +0.000 HD
ENDBRANCH  13  15
ENDBRANCH  12  13
ENDBRANCH  11  12
ENDBRANCH  10  11
ENDBRANCH   9  10
ENDBRANCH   4   9
BRANCH   6  17
ATOM     17  C   UNL     1       3.911   3.628  17.490  0.00  0.00    +0.000 C 
BRANCH  17  18
ATOM     18  C   UNL     1       5.078   3.988  16.618  0.00  0.00    +0.000 A 
ATOM     19  C   UNL     1       4.955   4.072  15.246  0.00  0.00    +0.000 A 
ATOM     20  N   UNL     1       5.924   4.518  14.429  0.00  0.00    +0.000 NA
ATOM     21  C   UNL     1       7.062   4.881  15.019  0.00  0.00    +0.000 A 
ATOM     22  N   UNL     1       7.998   5.534  14.236  0.00  0.00    +0.000 N 
ATOM     23  N   UNL     1       7.320   4.772  16.323  0.00  0.00    +0.000 NA
ATOM     24  C   UNL     1       6.330   4.313  17.103  0.00  0.00    +0.000 A 
ATOM     25  H   UNL     1       7.502   5.958  13.462  0.00  0.00    +0.000 HD
ATOM     26  H   UNL     1       8.507   6.172  14.832  0.00  0.00    +0.000 HD
BRANCH  24  27
ATOM     27  N   UNL     1       6.664   4.117  18.440  0.00  0.00    +0.000 N 
ATOM     28  H   UNL     1       7.601   3.729  18.475  0.00  0.00    +0.000 HD
ATOM     29  H   UNL     1       6.568   4.975  18.981  0.00  0.00    +0.000 HD
ENDBRANCH  24  27
ENDBRANCH  17  18
ENDBRANCH   6  17
TORSDOF 10
ENDMDL
MODEL 8
REMARK VINA RESULT:      -6.5      1.375      4.870
REMARK  Name = 
REMARK  11 active torsions:
REMARK  status: ('A' for Active; 'I' for Inactive)
REMARK    1  A    between atoms: C_1  and  O_2
REMARK    2  A    between atoms: O_2  and  C_3
REMARK    3  A    between atoms: C_6  and  C_7
REMARK    4  A    between atoms: C_7  and  C_8
REMARK    5  A    between atoms: C_8  and  C_9
REMARK    6  A    between atoms: C_9  and  C_10
REMARK    7  A    between atoms: C_10  and  C_11
REMARK    8  A    between atoms: C_11  and  O_13
REMARK    9  A    between atoms: C_15  and  C_16
REMARK   10  A    between atoms: C_16  and  C_17
REMARK   11  A    between atoms: C_23  and  N_24
REMARK                            x       y       z     vdW  Elec       q    Type
REMARK                         _______ _______ _______ _____ _____    ______ ____
ROOT
ATOM      1  C   UNL     1       2.286   3.060  18.608  0.00  0.00    +0.000 A 
ATOM      2  C   UNL     1       1.351   3.073  19.650  0.00  0.00    +0.000 A 
ATOM      3  C   UNL     1       1.091   4.239  20.361  0.00  0.00    +0.000 A 
ATOM      4  C   UNL     1       1.770   5.417  20.050  0.00  0.00    +0.000 A 
ATOM      5  C   UNL     1       2.621   5.435  18.934  0.00  0.00    +0.000 A 
ATOM      6  C   UNL     1       2.869   4.267  18.179  0.00  0.00    +0.000 A 
ENDROOT
BRANCH   1   8
ATOM      7  C   UNL     1       3.659   1.143  18.676  0.00  0.00    +0.000 C 
ATOM      8  O   UNL     1       2.658   1.896  17.980  0.00  0.00    +0.000 OA
ENDBRANCH   1   8
BRANCH   4   9
ATOM      9  C   UNL     1       1.601   6.631  20.928  0.00  0.00    +0.000 C 
BRANCH   9  10
ATOM     10  C   UNL     1       1.839   7.955  20.179  0.00  0.00    +0.000 C 
BRANCH  10  11
ATOM     11  C   UNL     1       0.785   9.024  20.494  0.00  0.00    +0.000 C 
BRANCH  11  12
ATOM     12  C   UNL     1       0.980  10.270  19.629  0.00  0.00    +0.000 C 
BRANCH  12  13
ATOM     13  C   UNL     1       1.029   9.932  18.155  0.00  0.00    +0.000 C 
ATOM     14  O   UNL     1       2.035   9.791  17.490  0.00  0.00    +0.000 OA
BRANCH  13  15
ATOM     15  O   UNL     1      -0.215   9.796  17.628  0.00  0.00    +0.000 OA
ATOM     16  H   UNL     1      -0.336   8.981  17.104  0.00  0.00    +0.000 HD
ENDBRANCH  13  15
ENDBRANCH  12  13
ENDBRANCH  11  12
ENDBRANCH  10  11
ENDBRANCH   9  10
ENDBRANCH   4   9
BRANCH   6  17
ATOM     17  C   UNL     1       3.764   4.364  16.952  0.00  0.00    +0.000 C 
BRANCH  17  18
ATOM     18  C   UNL     1       4.998   5.194  17.158  0.00  0.00    +0.000 A 
ATOM     19  C   UNL     1       5.231   6.336  16.419  0.00  0.00    +0.000 A 
ATOM     20  N   UNL     1       6.244   7.187  16.649  0.00  0.00    +0.000 NA
ATOM     21  C   UNL     1       7.059   6.866  17.654  0.00  0.00    +0.000 A 
ATOM     22  N   UNL     1       7.982   7.820  18.046  0.00  0.00    +0.000 N 
ATOM     23  N   UNL     1       6.975   5.753  18.384  0.00  0.00    +0.000 NA
ATOM     24  C   UNL     1       5.955   4.925  18.116  0.00  0.00    +0.000 A 
ATOM     25  H   UNL     1       7.624   8.723  17.762  0.00  0.00    +0.000 HD
ATOM     26  H   UNL     1       8.141   7.704  19.038  0.00  0.00    +0.000 HD
BRANCH  24  27
ATOM     27  N   UNL     1       5.956   3.727  18.826  0.00  0.00    +0.000 N 
ATOM     28  H   UNL     1       5.495   3.025  18.256  0.00  0.00    +0.000 HD
ATOM     29  H   UNL     1       6.897   3.457  19.107  0.00  0.00    +0.000 HD
ENDBRANCH  24  27
ENDBRANCH  17  18
ENDBRANCH   6  17
TORSDOF 10
ENDMDL
MODEL 9
REMARK VINA RESULT:      -6.5      3.707      6.057
REMARK  Name = 
REMARK  11 active torsions:
REMARK  status: ('A' for Active; 'I' for Inactive)
REMARK    1  A    between atoms: C_1  and  O_2
REMARK    2  A    between atoms: O_2  and  C_3
REMARK    3  A    between atoms: C_6  and  C_7
REMARK    4  A    between atoms: C_7  and  C_8
REMARK    5  A    between atoms: C_8  and  C_9
REMARK    6  A    between atoms: C_9  and  C_10
REMARK    7  A    between atoms: C_10  and  C_11
REMARK    8  A    between atoms: C_11  and  O_13
REMARK    9  A    between atoms: C_15  and  C_16
REMARK   10  A    between atoms: C_16  and  C_17
REMARK   11  A    between atoms: C_23  and  N_24
REMARK                            x       y       z     vdW  Elec       q    Type
REMARK                         _______ _______ _______ _____ _____    ______ ____
ROOT
ATOM      1  C   UNL     1       3.531   5.738  17.486  0.00  0.00    +0.000 A 
ATOM      2  C   UNL     1       4.345   6.790  17.050  0.00  0.00    +0.000 A 
ATOM      3  C   UNL     1       5.504   6.542  16.323  0.00  0.00    +0.000 A 
ATOM      4  C   UNL     1       5.879   5.233  16.025  0.00  0.00    +0.000 A 
ATOM      5  C   UNL     1       5.008   4.184  16.361  0.00  0.00    +0.000 A 
ATOM      6  C   UNL     1       3.808   4.423  17.068  0.00  0.00    +0.000 A 
ENDROOT
BRANCH   1   8
ATOM      7  C   UNL     1       2.687   6.912  19.349  0.00  0.00    +0.000 C 
ATOM      8  O   UNL     1       2.456   5.947  18.316  0.00  0.00    +0.000 OA
ENDBRANCH   1   8
BRANCH   4   9
ATOM      9  C   UNL     1       7.215   4.966  15.381  0.00  0.00    +0.000 C 
BRANCH   9  10
ATOM     10  C   UNL     1       7.146   4.919  13.844  0.00  0.00    +0.000 C 
BRANCH  10  11
ATOM     11  C   UNL     1       6.487   3.642  13.308  0.00  0.00    +0.000 C 
BRANCH  11  12
ATOM     12  C   UNL     1       5.137   3.943  12.655  0.00  0.00    +0.000 C 
BRANCH  12  13
ATOM     13  C   UNL     1       4.772   2.910  11.612  0.00  0.00    +0.000 C 
ATOM     14  O   UNL     1       3.803   2.948  10.880  0.00  0.00    +0.000 OA
BRANCH  13  15
ATOM     15  O   UNL     1       5.672   1.894  11.572  0.00  0.00    +0.000 OA
ATOM     16  H   UNL     1       5.266   1.007  11.549  0.00  0.00    +0.000 HD
ENDBRANCH  13  15
ENDBRANCH  12  13
ENDBRANCH  11  12
ENDBRANCH  10  11
ENDBRANCH   9  10
ENDBRANCH   4   9
BRANCH   6  17
ATOM     17  C   UNL     1       2.884   3.249  17.360  0.00  0.00    +0.000 C 
BRANCH  17  18
ATOM     18  C   UNL     1       2.486   3.126  18.802  0.00  0.00    +0.000 A 
ATOM     19  C   UNL     1       1.187   3.348  19.213  0.00  0.00    +0.000 A 
ATOM     20  N   UNL     1       0.745   3.123  20.462  0.00  0.00    +0.000 NA
ATOM     21  C   UNL     1       1.650   2.671  21.329  0.00  0.00    +0.000 A 
ATOM     22  N   UNL     1       1.184   2.236  22.557  0.00  0.00    +0.000 N 
ATOM     23  N   UNL     1       2.945   2.492  21.063  0.00  0.00    +0.000 NA
ATOM     24  C   UNL     1       3.348   2.737  19.808  0.00  0.00    +0.000 A 
ATOM     25  H   UNL     1       0.212   1.982  22.440  0.00  0.00    +0.000 HD
ATOM     26  H   UNL     1       1.796   1.496  22.874  0.00  0.00    +0.000 HD
BRANCH  24  27
ATOM     27  N   UNL     1       4.720   2.639  19.591  0.00  0.00    +0.000 N 
ATOM     28  H   UNL     1       5.156   2.351  20.461  0.00  0.00    +0.000 HD
ATOM     29  H   UNL     1       4.933   2.015  18.814  0.00  0.00    +0.000 HD
ENDBRANCH  24  27
ENDBRANCH  17  18
ENDBRANCH   6  17
TORSDOF 10
ENDMDL
