MODEL 1
REMARK VINA RESULT:      -7.2      0.000      0.000
REMARK  Name = 
REMARK  6 active torsions:
REMARK  status: ('A' for Active; 'I' for Inactive)
REMARK    1  A    between atoms: C_1  and  C_2
REMARK    2  A    between atoms: C_4  and  C_5
REMARK    3  A    between atoms: C_7  and  S_8
REMARK    4  A    between atoms: S_8  and  N_11
REMARK    5  A    between atoms: N_11  and  C_12
REMARK    6  A    between atoms: C_12  and  C_13
REMARK                            x       y       z     vdW  Elec       q    Type
REMARK                         _______ _______ _______ _____ _____    ______ ____
ROOT
ATOM      1  S   UNL     1       6.642   4.723  16.378  0.00  0.00    +0.000 S 
ATOM      2  O   UNL     1       7.907   4.289  16.947  0.00  0.00    +0.000 OA
ATOM      3  O   UNL     1       6.067   6.012  16.649  0.00  0.00    +0.000 OA
ENDROOT
BRANCH   1  10
ATOM      4  C   UNL     1       5.504   2.389  11.755  0.00  0.00    +0.000 C 
ATOM      5  C   UNL     1       6.224   3.467  12.514  0.00  0.00    +0.000 A 
ATOM      6  C   UNL     1       7.058   4.375  11.843  0.00  0.00    +0.000 A 
ATOM      7  C   UNL     1       7.740   5.378  12.545  0.00  0.00    +0.000 A 
ATOM      8  C   UNL     1       8.626   6.361  11.837  0.00  0.00    +0.000 C 
ATOM      9  C   UNL     1       7.589   5.461  13.931  0.00  0.00    +0.000 A 
ATOM     10  C   UNL     1       6.762   4.562  14.606  0.00  0.00    +0.000 A 
ATOM     11  C   UNL     1       6.068   3.567  13.907  0.00  0.00    +0.000 A 
ENDBRANCH   1  10
BRANCH   1  12
ATOM     12  N   UNL     1       5.490   3.542  16.796  0.00  0.00    +0.000 NA
ATOM     13  H   UNL     1       5.838   2.955  17.556  0.00  0.00    +0.000 HD
BRANCH  12  14
ATOM     14  C   UNL     1       4.119   4.044  16.988  0.00  0.00    +0.000 C 
BRANCH  14  15
ATOM     15  C   UNL     1       3.352   3.249  18.051  0.00  0.00    +0.000 C 
ATOM     16  C   UNL     1       4.175   3.279  19.357  0.00  0.00    +0.000 C 
ATOM     17  N   UNL     1       3.589   2.536  20.476  0.00  0.00    +0.000 NA
ATOM     18  C   UNL     1       2.426   3.244  21.028  0.00  0.00    +0.000 C 
ATOM     19  C   UNL     1       1.098   2.913  20.332  0.00  0.00    +0.000 C 
ATOM     20  O   UNL     1       1.132   2.816  18.911  0.00  0.00    +0.000 OA
ATOM     21  C   UNL     1       1.932   3.792  18.255  0.00  0.00    +0.000 C 
ATOM     22  H   UNL     1       4.291   2.443  21.211  0.00  0.00    +0.000 HD
ENDBRANCH  14  15
ENDBRANCH  12  14
ENDBRANCH   1  12
TORSDOF 4
ENDMDL
MODEL 2
REMARK VINA RESULT:      -7.0      0.115      1.936
REMARK  Name = 
REMARK  6 active torsions:
REMARK  status: ('A' for Active; 'I' for Inactive)
REMARK    1  A    between atoms: C_1  and  C_2
REMARK    2  A    between atoms: C_4  and  C_5
REMARK    3  A    between atoms: C_7  and  S_8
REMARK    4  A    between atoms: S_8  and  N_11
REMARK    5  A    between atoms: N_11  and  C_12
REMARK    6  A    between atoms: C_12  and  C_13
REMARK                            x       y       z     vdW  Elec       q    Type
REMARK                         _______ _______ _______ _____ _____    ______ ____
ROOT
ATOM      1  S   UNL     1       6.700   4.670  16.329  0.00  0.00    +0.000 S 
ATOM      2  O   UNL     1       7.934   4.169  16.912  0.00  0.00    +0.000 OA
ATOM      3  O   UNL     1       6.152   5.959  16.656  0.00  0.00    +0.000 OA
ENDROOT
BRANCH   1  10
ATOM      4  C   UNL     1       8.563   6.446  11.693  0.00  0.00    +0.000 C 
ATOM      5  C   UNL     1       7.741   5.448  12.457  0.00  0.00    +0.000 A 
ATOM      6  C   UNL     1       7.040   4.436  11.780  0.00  0.00    +0.000 A 
ATOM      7  C   UNL     1       6.264   3.506  12.484  0.00  0.00    +0.000 A 
ATOM      8  C   UNL     1       5.519   2.414  11.774  0.00  0.00    +0.000 C 
ATOM      9  C   UNL     1       6.183   3.602  13.876  0.00  0.00    +0.000 A 
ATOM     10  C   UNL     1       6.874   4.605  14.556  0.00  0.00    +0.000 A 
ATOM     11  C   UNL     1       7.663   5.528  13.857  0.00  0.00    +0.000 A 
ENDBRANCH   1  10
BRANCH   1  12
ATOM     12  N   UNL     1       5.504   3.502  16.643  0.00  0.00    +0.000 NA
ATOM     13  H   UNL     1       5.836   2.824  17.330  0.00  0.00    +0.000 HD
BRANCH  12  14
ATOM     14  C   UNL     1       4.159   4.038  16.913  0.00  0.00    +0.000 C 
BRANCH  14  15
ATOM     15  C   UNL     1       3.411   3.227  17.977  0.00  0.00    +0.000 C 
ATOM     16  C   UNL     1       4.217   3.308  19.293  0.00  0.00    +0.000 C 
ATOM     17  N   UNL     1       3.647   2.556  20.415  0.00  0.00    +0.000 NA
ATOM     18  C   UNL     1       2.450   3.223  20.943  0.00  0.00    +0.000 C 
ATOM     19  C   UNL     1       1.144   2.829  20.235  0.00  0.00    +0.000 C 
ATOM     20  O   UNL     1       1.201   2.714  18.817  0.00  0.00    +0.000 OA
ATOM     21  C   UNL     1       1.968   3.714  18.157  0.00  0.00    +0.000 C 
ATOM     22  H   UNL     1       4.342   2.501  21.159  0.00  0.00    +0.000 HD
ENDBRANCH  14  15
ENDBRANCH  12  14
ENDBRANCH   1  12
TORSDOF 4
ENDMDL
MODEL 3
REMARK VINA RESULT:      -7.0      3.505      4.809
REMARK  Name = 
REMARK  6 active torsions:
REMARK  status: ('A' for Active; 'I' for Inactive)
REMARK    1  A    between atoms: C_1  and  C_2
REMARK    2  A    between atoms: C_4  and  C_5
REMARK    3  A    between atoms: C_7  and  S_8
REMARK    4  A    between atoms: S_8  and  N_11
REMARK    5  A    between atoms: N_11  and  C_12
REMARK    6  A    between atoms: C_12  and  C_13
REMARK                            x       y       z     vdW  Elec       q    Type
REMARK                         _______ _______ _______ _____ _____    ______ ____
ROOT
ATOM      1  S   UNL     1       4.145   3.214  18.606  0.00  0.00    +0.000 S 
ATOM      2  O   UNL     1       3.728   2.029  17.876  0.00  0.00    +0.000 OA
ATOM      3  O   UNL     1       4.762   3.153  19.904  0.00  0.00    +0.000 OA
ENDROOT
BRANCH   1  10
ATOM      4  C   UNL     1       7.545   7.163  17.621  0.00  0.00    +0.000 C 
ATOM      5  C   UNL     1       6.781   5.964  17.133  0.00  0.00    +0.000 A 
ATOM      6  C   UNL     1       6.877   5.556  15.793  0.00  0.00    +0.000 A 
ATOM      7  C   UNL     1       6.162   4.445  15.328  0.00  0.00    +0.000 A 
ATOM      8  C   UNL     1       6.264   3.992  13.901  0.00  0.00    +0.000 C 
ATOM      9  C   UNL     1       5.337   3.747  16.214  0.00  0.00    +0.000 A 
ATOM     10  C   UNL     1       5.236   4.146  17.547  0.00  0.00    +0.000 A 
ATOM     11  C   UNL     1       5.959   5.248  18.020  0.00  0.00    +0.000 A 
ENDBRANCH   1  10
BRANCH   1  12
ATOM     12  N   UNL     1       2.776   4.217  18.730  0.00  0.00    +0.000 NA
ATOM     13  H   UNL     1       1.932   3.705  18.467  0.00  0.00    +0.000 HD
BRANCH  12  14
ATOM     14  C   UNL     1       2.665   4.976  19.986  0.00  0.00    +0.000 C 
BRANCH  14  15
ATOM     15  C   UNL     1       2.666   6.492  19.753  0.00  0.00    +0.000 C 
ATOM     16  C   UNL     1       2.653   6.741  18.229  0.00  0.00    +0.000 C 
ATOM     17  N   UNL     1       2.679   8.151  17.831  0.00  0.00    +0.000 NA
ATOM     18  C   UNL     1       1.385   8.797  18.090  0.00  0.00    +0.000 C 
ATOM     19  C   UNL     1       1.239   9.373  19.507  0.00  0.00    +0.000 C 
ATOM     20  O   UNL     1       1.744   8.573  20.572  0.00  0.00    +0.000 OA
ATOM     21  C   UNL     1       1.490   7.178  20.458  0.00  0.00    +0.000 C 
ATOM     22  H   UNL     1       2.875   8.207  16.832  0.00  0.00    +0.000 HD
ENDBRANCH  14  15
ENDBRANCH  12  14
ENDBRANCH   1  12
TORSDOF 4
ENDMDL
MODEL 4
REMARK VINA RESULT:      -6.9      3.933      5.312
REMARK  Name = 
REMARK  6 active torsions:
REMARK  status: ('A' for Active; 'I' for Inactive)
REMARK    1  A    between atoms: C_1  and  C_2
REMARK    2  A    between atoms: C_4  and  C_5
REMARK    3  A    between atoms: C_7  and  S_8
REMARK    4  A    between atoms: S_8  and  N_11
REMARK    5  A    between atoms: N_11  and  C_12
REMARK    6  A    between atoms: C_12  and  C_13
REMARK                            x       y       z     vdW  Elec       q    Type
REMARK                         _______ _______ _______ _____ _____    ______ ____
ROOT
ATOM      1  S   UNL     1       3.147   3.588  18.737  0.00  0.00    +0.000 S 
ATOM      2  O   UNL     1       2.462   2.676  17.835  0.00  0.00    +0.000 OA
ATOM      3  O   UNL     1       3.468   3.244  20.095  0.00  0.00    +0.000 OA
ENDROOT
BRANCH   1  10
ATOM      4  C   UNL     1       6.380   4.035  14.558  0.00  0.00    +0.000 C 
ATOM      5  C   UNL     1       6.116   4.275  16.017  0.00  0.00    +0.000 A 
ATOM      6  C   UNL     1       7.089   4.882  16.827  0.00  0.00    +0.000 A 
ATOM      7  C   UNL     1       6.854   5.101  18.191  0.00  0.00    +0.000 A 
ATOM      8  C   UNL     1       7.882   5.758  19.064  0.00  0.00    +0.000 C 
ATOM      9  C   UNL     1       5.636   4.697  18.745  0.00  0.00    +0.000 A 
ATOM     10  C   UNL     1       4.664   4.092  17.947  0.00  0.00    +0.000 A 
ATOM     11  C   UNL     1       4.890   3.884  16.581  0.00  0.00    +0.000 A 
ENDBRANCH   1  10
BRANCH   1  12
ATOM     12  N   UNL     1       2.232   5.022  18.767  0.00  0.00    +0.000 NA
ATOM     13  H   UNL     1       1.292   4.856  18.401  0.00  0.00    +0.000 HD
BRANCH  12  14
ATOM     14  C   UNL     1       2.272   5.765  20.037  0.00  0.00    +0.000 C 
BRANCH  14  15
ATOM     15  C   UNL     1       2.282   7.284  19.823  0.00  0.00    +0.000 C 
ATOM     16  C   UNL     1       2.275   7.552  18.302  0.00  0.00    +0.000 C 
ATOM     17  N   UNL     1       2.311   8.967  17.922  0.00  0.00    +0.000 NA
ATOM     18  C   UNL     1       1.021   9.617  18.184  0.00  0.00    +0.000 C 
ATOM     19  C   UNL     1       0.873  10.176  19.608  0.00  0.00    +0.000 C 
ATOM     20  O   UNL     1       1.369   9.360  20.665  0.00  0.00    +0.000 OA
ATOM     21  C   UNL     1       1.107   7.968  20.532  0.00  0.00    +0.000 C 
ATOM     22  H   UNL     1       2.511   9.034  16.924  0.00  0.00    +0.000 HD
ENDBRANCH  14  15
ENDBRANCH  12  14
ENDBRANCH   1  12
TORSDOF 4
ENDMDL
MODEL 5
REMARK VINA RESULT:      -6.9      1.205      1.300
REMARK  Name = 
REMARK  6 active torsions:
REMARK  status: ('A' for Active; 'I' for Inactive)
REMARK    1  A    between atoms: C_1  and  C_2
REMARK    2  A    between atoms: C_4  and  C_5
REMARK    3  A    between atoms: C_7  and  S_8
REMARK    4  A    between atoms: S_8  and  N_11
REMARK    5  A    between atoms: N_11  and  C_12
REMARK    6  A    between atoms: C_12  and  C_13
REMARK                            x       y       z     vdW  Elec       q    Type
REMARK                         _______ _______ _______ _____ _____    ______ ____
ROOT
ATOM      1  S   UNL     1       6.005   4.741  16.420  0.00  0.00    +0.000 S 
ATOM      2  O   UNL     1       7.252   4.630  17.159  0.00  0.00    +0.000 OA
ATOM      3  O   UNL     1       5.128   5.875  16.536  0.00  0.00    +0.000 OA
ENDROOT
BRANCH   1  10
ATOM      4  C   UNL     1       5.408   2.422  11.689  0.00  0.00    +0.000 C 
ATOM      5  C   UNL     1       6.085   3.454  12.545  0.00  0.00    +0.000 A 
ATOM      6  C   UNL     1       7.081   4.284  12.005  0.00  0.00    +0.000 A 
ATOM      7  C   UNL     1       7.724   5.243  12.798  0.00  0.00    +0.000 A 
ATOM      8  C   UNL     1       8.783   6.143  12.231  0.00  0.00    +0.000 C 
ATOM      9  C   UNL     1       7.370   5.362  14.145  0.00  0.00    +0.000 A 
ATOM     10  C   UNL     1       6.382   4.540  14.689  0.00  0.00    +0.000 A 
ATOM     11  C   UNL     1       5.727   3.589  13.897  0.00  0.00    +0.000 A 
ENDBRANCH   1  10
BRANCH   1  12
ATOM     12  N   UNL     1       5.099   3.347  16.782  0.00  0.00    +0.000 NA
ATOM     13  H   UNL     1       5.632   2.721  17.389  0.00  0.00    +0.000 HD
BRANCH  12  14
ATOM     14  C   UNL     1       3.715   3.594  17.221  0.00  0.00    +0.000 C 
BRANCH  14  15
ATOM     15  C   UNL     1       3.604   3.740  18.743  0.00  0.00    +0.000 C 
ATOM     16  C   UNL     1       2.995   5.127  19.047  0.00  0.00    +0.000 C 
ATOM     17  N   UNL     1       2.844   5.439  20.471  0.00  0.00    +0.000 NA
ATOM     18  C   UNL     1       1.744   4.670  21.066  0.00  0.00    +0.000 C 
ATOM     19  C   UNL     1       2.152   3.283  21.586  0.00  0.00    +0.000 C 
ATOM     20  O   UNL     1       3.042   2.534  20.764  0.00  0.00    +0.000 OA
ATOM     21  C   UNL     1       2.784   2.604  19.367  0.00  0.00    +0.000 C 
ATOM     22  H   UNL     1       2.636   6.433  20.568  0.00  0.00    +0.000 HD
ENDBRANCH  14  15
ENDBRANCH  12  14
ENDBRANCH   1  12
TORSDOF 4
ENDMDL
MODEL 6
REMARK VINA RESULT:      -6.9      4.057      5.443
REMARK  Name = 
REMARK  6 active torsions:
REMARK  status: ('A' for Active; 'I' for Inactive)
REMARK    1  A    between atoms: C_1  and  C_2
REMARK    2  A    between atoms: C_4  and  C_5
REMARK    3  A    between atoms: C_7  and  S_8
REMARK    4  A    between atoms: S_8  and  N_11
REMARK    5  A    between atoms: N_11  and  C_12
REMARK    6  A    between atoms: C_12  and  C_13
REMARK                            x       y       z     vdW  Elec       q    Type
REMARK                         _______ _______ _______ _____ _____    ______ ____
ROOT
ATOM      1  S   UNL     1       3.588   4.220  18.874  0.00  0.00    +0.000 S 
ATOM      2  O   UNL     1       2.317   4.200  18.168  0.00  0.00    +0.000 OA
ATOM      3  O   UNL     1       4.136   3.061  19.525  0.00  0.00    +0.000 OA
ENDROOT
BRANCH   1  10
ATOM      4  C   UNL     1       7.546   7.467  17.491  0.00  0.00    +0.000 C 
ATOM      5  C   UNL     1       6.629   6.328  17.145  0.00  0.00    +0.000 A 
ATOM      6  C   UNL     1       6.696   5.719  15.882  0.00  0.00    +0.000 A 
ATOM      7  C   UNL     1       5.838   4.663  15.547  0.00  0.00    +0.000 A 
ATOM      8  C   UNL     1       5.908   3.997  14.205  0.00  0.00    +0.000 C 
ATOM      9  C   UNL     1       4.901   4.224  16.486  0.00  0.00    +0.000 A 
ATOM     10  C   UNL     1       4.826   4.825  17.743  0.00  0.00    +0.000 A 
ATOM     11  C   UNL     1       5.691   5.872  18.087  0.00  0.00    +0.000 A 
ENDBRANCH   1  10
BRANCH   1  12
ATOM     12  N   UNL     1       3.481   5.463  20.031  0.00  0.00    +0.000 NA
ATOM     13  H   UNL     1       4.251   6.125  19.919  0.00  0.00    +0.000 HD
BRANCH  12  14
ATOM     14  C   UNL     1       2.153   6.085  20.163  0.00  0.00    +0.000 C 
BRANCH  14  15
ATOM     15  C   UNL     1       2.186   7.593  19.889  0.00  0.00    +0.000 C 
ATOM     16  C   UNL     1       2.136   7.802  18.359  0.00  0.00    +0.000 C 
ATOM     17  N   UNL     1       2.187   9.200  17.922  0.00  0.00    +0.000 NA
ATOM     18  C   UNL     1       0.918   9.886  18.198  0.00  0.00    +0.000 C 
ATOM     19  C   UNL     1       0.827  10.503  19.602  0.00  0.00    +0.000 C 
ATOM     20  O   UNL     1       1.340   9.719  20.675  0.00  0.00    +0.000 OA
ATOM     21  C   UNL     1       1.047   8.329  20.606  0.00  0.00    +0.000 C 
ATOM     22  H   UNL     1       2.357   9.223  16.917  0.00  0.00    +0.000 HD
ENDBRANCH  14  15
ENDBRANCH  12  14
ENDBRANCH   1  12
TORSDOF 4
ENDMDL
MODEL 7
REMARK VINA RESULT:      -6.9      4.267      5.688
REMARK  Name = 
REMARK  6 active torsions:
REMARK  status: ('A' for Active; 'I' for Inactive)
REMARK    1  A    between atoms: C_1  and  C_2
REMARK    2  A    between atoms: C_4  and  C_5
REMARK    3  A    between atoms: C_7  and  S_8
REMARK    4  A    between atoms: S_8  and  N_11
REMARK    5  A    between atoms: N_11  and  C_12
REMARK    6  A    between atoms: C_12  and  C_13
REMARK                            x       y       z     vdW  Elec       q    Type
REMARK                         _______ _______ _______ _____ _____    ______ ____
ROOT
ATOM      1  S   UNL     1       2.811   4.120  18.464  0.00  0.00    +0.000 S 
ATOM      2  O   UNL     1       1.955   3.867  17.316  0.00  0.00    +0.000 OA
ATOM      3  O   UNL     1       2.900   3.221  19.582  0.00  0.00    +0.000 OA
ENDROOT
BRANCH   1  10
ATOM      4  C   UNL     1       7.866   5.623  19.012  0.00  0.00    +0.000 C 
ATOM      5  C   UNL     1       6.769   5.074  18.145  0.00  0.00    +0.000 A 
ATOM      6  C   UNL     1       7.011   4.775  16.795  0.00  0.00    +0.000 A 
ATOM      7  C   UNL     1       5.991   4.272  15.976  0.00  0.00    +0.000 A 
ATOM      8  C   UNL     1       6.241   3.938  14.535  0.00  0.00    +0.000 C 
ATOM      9  C   UNL     1       4.718   4.079  16.517  0.00  0.00    +0.000 A 
ATOM     10  C   UNL     1       4.468   4.375  17.858  0.00  0.00    +0.000 A 
ATOM     11  C   UNL     1       5.488   4.865  18.683  0.00  0.00    +0.000 A 
ENDBRANCH   1  10
BRANCH   1  12
ATOM     12  N   UNL     1       2.379   5.653  19.064  0.00  0.00    +0.000 NA
ATOM     13  H   UNL     1       2.736   5.780  20.012  0.00  0.00    +0.000 HD
BRANCH  12  14
ATOM     14  C   UNL     1       2.643   6.780  18.154  0.00  0.00    +0.000 C 
BRANCH  14  15
ATOM     15  C   UNL     1       2.276   8.131  18.778  0.00  0.00    +0.000 C 
ATOM     16  C   UNL     1       1.531   8.965  17.712  0.00  0.00    +0.000 C 
ATOM     17  N   UNL     1       1.131  10.307  18.143  0.00  0.00    +0.000 NA
ATOM     18  C   UNL     1       0.004  10.245  19.084  0.00  0.00    +0.000 C 
ATOM     19  C   UNL     1       0.419  10.079  20.554  0.00  0.00    +0.000 C 
ATOM     20  O   UNL     1       1.480   9.166  20.815  0.00  0.00    +0.000 OA
ATOM     21  C   UNL     1       1.447   7.963  20.057  0.00  0.00    +0.000 C 
ATOM     22  H   UNL     1       0.840  10.841  17.324  0.00  0.00    +0.000 HD
ENDBRANCH  14  15
ENDBRANCH  12  14
ENDBRANCH   1  12
TORSDOF 4
ENDMDL
MODEL 8
REMARK VINA RESULT:      -6.8      3.320      4.395
REMARK  Name = 
REMARK  6 active torsions:
REMARK  status: ('A' for Active; 'I' for Inactive)
REMARK    1  A    between atoms: C_1  and  C_2
REMARK    2  A    between atoms: C_4  and  C_5
REMARK    3  A    between atoms: C_7  and  S_8
REMARK    4  A    between atoms: S_8  and  N_11
REMARK    5  A    between atoms: N_11  and  C_12
REMARK    6  A    between atoms: C_12  and  C_13
REMARK                            x       y       z     vdW  Elec       q    Type
REMARK                         _______ _______ _______ _____ _____    ______ ____
ROOT
ATOM      1  S   UNL     1       5.813   5.073  15.773  0.00  0.00    +0.000 S 
ATOM      2  O   UNL     1       5.364   6.105  14.853  0.00  0.00    +0.000 OA
ATOM      3  O   UNL     1       6.531   3.904  15.342  0.00  0.00    +0.000 OA
ENDROOT
BRANCH   1  10
ATOM      4  C   UNL     1       8.553   5.092  20.313  0.00  0.00    +0.000 C 
ATOM      5  C   UNL     1       8.039   5.834  19.112  0.00  0.00    +0.000 A 
ATOM      6  C   UNL     1       8.292   7.207  18.961  0.00  0.00    +0.000 A 
ATOM      7  C   UNL     1       7.808   7.908  17.849  0.00  0.00    +0.000 A 
ATOM      8  C   UNL     1       8.081   9.373  17.671  0.00  0.00    +0.000 C 
ATOM      9  C   UNL     1       7.056   7.227  16.889  0.00  0.00    +0.000 A 
ATOM     10  C   UNL     1       6.799   5.862  17.032  0.00  0.00    +0.000 A 
ATOM     11  C   UNL     1       7.292   5.155  18.135  0.00  0.00    +0.000 A 
ENDBRANCH   1  10
BRANCH   1  12
ATOM     12  N   UNL     1       4.438   4.552  16.629  0.00  0.00    +0.000 NA
ATOM     13  H   UNL     1       4.586   3.616  17.010  0.00  0.00    +0.000 HD
BRANCH  12  14
ATOM     14  C   UNL     1       3.891   5.525  17.589  0.00  0.00    +0.000 C 
BRANCH  14  15
ATOM     15  C   UNL     1       3.754   4.938  18.999  0.00  0.00    +0.000 C 
ATOM     16  C   UNL     1       2.612   5.687  19.720  0.00  0.00    +0.000 C 
ATOM     17  N   UNL     1       2.366   5.262  21.101  0.00  0.00    +0.000 NA
ATOM     18  C   UNL     1       1.716   3.945  21.140  0.00  0.00    +0.000 C 
ATOM     19  C   UNL     1       2.692   2.759  21.126  0.00  0.00    +0.000 C 
ATOM     20  O   UNL     1       3.804   2.862  20.241  0.00  0.00    +0.000 OA
ATOM     21  C   UNL     1       3.516   3.423  18.966  0.00  0.00    +0.000 C 
ATOM     22  H   UNL     1       1.751   5.941  21.549  0.00  0.00    +0.000 HD
ENDBRANCH  14  15
ENDBRANCH  12  14
ENDBRANCH   1  12
TORSDOF 4
ENDMDL
MODEL 9
REMARK VINA RESULT:      -6.8      3.397      4.708
REMARK  Name = 
REMARK  6 active torsions:
REMARK  status: ('A' for Active; 'I' for Inactive)
REMARK    1  A    between atoms: C_1  and  C_2
REMARK    2  A    between atoms: C_4  and  C_5
REMARK    3  A    between atoms: C_7  and  S_8
REMARK    4  A    between atoms: S_8  and  N_11
REMARK    5  A    between atoms: N_11  and  C_12
REMARK    6  A    between atoms: C_12  and  C_13
REMARK                            x       y       z     vdW  Elec       q    Type
REMARK                         _______ _______ _______ _____ _____    ______ ____
ROOT
ATOM      1  S   UNL     1       5.883   5.198  15.840  0.00  0.00    +0.000 S 
ATOM      2  O   UNL     1       5.372   6.184  14.901  0.00  0.00    +0.000 OA
ATOM      3  O   UNL     1       6.657   4.058  15.428  0.00  0.00    +0.000 OA
ENDROOT
BRANCH   1  10
ATOM      4  C   UNL     1       8.287   9.505  17.787  0.00  0.00    +0.000 C 
ATOM      5  C   UNL     1       7.927   8.053  17.926  0.00  0.00    +0.000 A 
ATOM      6  C   UNL     1       8.373   7.313  19.032  0.00  0.00    +0.000 A 
ATOM      7  C   UNL     1       8.050   5.956  19.166  0.00  0.00    +0.000 A 
ATOM      8  C   UNL     1       8.510   5.157  20.349  0.00  0.00    +0.000 C 
ATOM      9  C   UNL     1       7.283   5.338  18.174  0.00  0.00    +0.000 A 
ATOM     10  C   UNL     1       6.838   6.067  17.070  0.00  0.00    +0.000 A 
ATOM     11  C   UNL     1       7.147   7.426  16.940  0.00  0.00    +0.000 A 
ENDBRANCH   1  10
BRANCH   1  12
ATOM     12  N   UNL     1       4.545   4.627  16.722  0.00  0.00    +0.000 NA
ATOM     13  H   UNL     1       4.794   3.787  17.248  0.00  0.00    +0.000 HD
BRANCH  12  14
ATOM     14  C   UNL     1       3.825   5.647  17.501  0.00  0.00    +0.000 C 
BRANCH  14  15
ATOM     15  C   UNL     1       2.579   5.081  18.192  0.00  0.00    +0.000 C 
ATOM     16  C   UNL     1       2.322   3.666  17.628  0.00  0.00    +0.000 C 
ATOM     17  N   UNL     1       1.140   2.989  18.169  0.00  0.00    +0.000 NA
ATOM     18  C   UNL     1       1.370   2.549  19.551  0.00  0.00    +0.000 C 
ATOM     19  C   UNL     1       1.041   3.609  20.614  0.00  0.00    +0.000 C 
ATOM     20  O   UNL     1       1.446   4.944  20.325  0.00  0.00    +0.000 OA
ATOM     21  C   UNL     1       2.726   5.073  19.718  0.00  0.00    +0.000 C 
ATOM     22  H   UNL     1       0.941   2.169  17.597  0.00  0.00    +0.000 HD
ENDBRANCH  14  15
ENDBRANCH  12  14
ENDBRANCH   1  12
TORSDOF 4
ENDMDL
