MODEL 1
REMARK VINA RESULT:      -7.6      0.000      0.000
REMARK  Name = 
REMARK  4 active torsions:
REMARK  status: ('A' for Active; 'I' for Inactive)
REMARK    1  A    between atoms: C_1  and  O_2
REMARK    2  A    between atoms: O_2  and  C_3
REMARK    3  A    between atoms: C_6  and  C_7
REMARK    4  A    between atoms: N_13  and  C_14
REMARK                            x       y       z     vdW  Elec       q    Type
REMARK                         _______ _______ _______ _____ _____    ______ ____
ROOT
ATOM      1  C   UNL     1       2.182   7.810  18.716  0.00  0.00    +0.000 A 
ATOM      2  N   UNL     1       1.852   7.783  20.065  0.00  0.00    +0.000 NA
ATOM      3  C   UNL     1       1.236   8.917  20.226  0.00  0.00    +0.000 A 
ATOM      4  C   UNL     1       0.649   9.551  21.390  0.00  0.00    +0.000 A 
ATOM      5  C   UNL     1       0.492   9.270  22.737  0.00  0.00    +0.000 A 
ATOM      6  N   UNL     1      -0.153  10.266  23.359  0.00  0.00    +0.000 NA
ATOM      7  N   UNL     1      -0.390  11.174  22.376  0.00  0.00    +0.000 N 
ATOM      8  C   UNL     1      -1.087  12.399  22.686  0.00  0.00    +0.000 C 
ATOM      9  C   UNL     1       0.085  10.786  21.147  0.00  0.00    +0.000 A 
ATOM     10  N   UNL     1       0.012  11.478  19.964  0.00  0.00    +0.000 NA
ATOM     11  C   UNL     1       0.564  10.865  18.934  0.00  0.00    +0.000 A 
ATOM     12  N   UNL     1       1.171   9.604  19.051  0.00  0.00    +0.000 N 
ATOM     13  N   UNL     1       1.771   8.918  18.057  0.00  0.00    +0.000 NA
ENDROOT
BRANCH   1  17
ATOM     14  C   UNL     1       4.427   4.657  16.894  0.00  0.00    +0.000 A 
ATOM     15  C   UNL     1       4.858   5.978  16.815  0.00  0.00    +0.000 A 
ATOM     16  C   UNL     1       4.130   6.995  17.437  0.00  0.00    +0.000 A 
ATOM     17  C   UNL     1       2.945   6.710  18.130  0.00  0.00    +0.000 A 
ATOM     18  C   UNL     1       2.516   5.379  18.205  0.00  0.00    +0.000 A 
ATOM     19  C   UNL     1       3.253   4.356  17.588  0.00  0.00    +0.000 A 
BRANCH  14  21
ATOM     20  C   UNL     1       6.362   4.296  15.585  0.00  0.00    +0.000 C 
ATOM     21  O   UNL     1       5.207   3.762  16.217  0.00  0.00    +0.000 OA
ENDBRANCH  14  21
ENDBRANCH   1  17
TORSDOF 2
ENDMDL
MODEL 2
REMARK VINA RESULT:      -7.6      0.216      1.073
REMARK  Name = 
REMARK  4 active torsions:
REMARK  status: ('A' for Active; 'I' for Inactive)
REMARK    1  A    between atoms: C_1  and  O_2
REMARK    2  A    between atoms: O_2  and  C_3
REMARK    3  A    between atoms: C_6  and  C_7
REMARK    4  A    between atoms: N_13  and  C_14
REMARK                            x       y       z     vdW  Elec       q    Type
REMARK                         _______ _______ _______ _____ _____    ______ ____
ROOT
ATOM      1  C   UNL     1       2.122   7.980  18.696  0.00  0.00    +0.000 A 
ATOM      2  N   UNL     1       1.795   7.905  20.044  0.00  0.00    +0.000 NA
ATOM      3  C   UNL     1       1.163   9.023  20.243  0.00  0.00    +0.000 A 
ATOM      4  C   UNL     1       0.569   9.611  21.428  0.00  0.00    +0.000 A 
ATOM      5  C   UNL     1       0.419   9.283  22.765  0.00  0.00    +0.000 A 
ATOM      6  N   UNL     1      -0.239  10.249  23.421  0.00  0.00    +0.000 NA
ATOM      7  N   UNL     1      -0.491  11.186  22.467  0.00  0.00    +0.000 N 
ATOM      8  C   UNL     1      -1.205  12.389  22.818  0.00  0.00    +0.000 C 
ATOM      9  C   UNL     1      -0.013  10.844  21.226  0.00  0.00    +0.000 A 
ATOM     10  N   UNL     1      -0.099  11.574  20.066  0.00  0.00    +0.000 NA
ATOM     11  C   UNL     1       0.461  11.003  19.016  0.00  0.00    +0.000 A 
ATOM     12  N   UNL     1       1.086   9.747  19.091  0.00  0.00    +0.000 N 
ATOM     13  N   UNL     1       1.694   9.103  18.074  0.00  0.00    +0.000 NA
ENDROOT
BRANCH   1  17
ATOM     14  C   UNL     1       4.389   4.781  16.985  0.00  0.00    +0.000 A 
ATOM     15  C   UNL     1       3.206   4.530  17.674  0.00  0.00    +0.000 A 
ATOM     16  C   UNL     1       2.462   5.585  18.205  0.00  0.00    +0.000 A 
ATOM     17  C   UNL     1       2.900   6.911  18.074  0.00  0.00    +0.000 A 
ATOM     18  C   UNL     1       4.091   7.158  17.380  0.00  0.00    +0.000 A 
ATOM     19  C   UNL     1       4.834   6.097  16.839  0.00  0.00    +0.000 A 
BRANCH  14  21
ATOM     20  C   UNL     1       5.995   3.866  15.511  0.00  0.00    +0.000 C 
ATOM     21  O   UNL     1       5.040   3.664  16.544  0.00  0.00    +0.000 OA
ENDBRANCH  14  21
ENDBRANCH   1  17
TORSDOF 2
ENDMDL
MODEL 3
REMARK VINA RESULT:      -7.2      1.284      2.526
REMARK  Name = 
REMARK  4 active torsions:
REMARK  status: ('A' for Active; 'I' for Inactive)
REMARK    1  A    between atoms: C_1  and  O_2
REMARK    2  A    between atoms: O_2  and  C_3
REMARK    3  A    between atoms: C_6  and  C_7
REMARK    4  A    between atoms: N_13  and  C_14
REMARK                            x       y       z     vdW  Elec       q    Type
REMARK                         _______ _______ _______ _____ _____    ______ ____
ROOT
ATOM      1  C   UNL     1       2.966   7.002  18.399  0.00  0.00    +0.000 A 
ATOM      2  N   UNL     1       2.480   8.231  17.973  0.00  0.00    +0.000 NA
ATOM      3  C   UNL     1       1.794   8.634  19.001  0.00  0.00    +0.000 A 
ATOM      4  C   UNL     1       0.998   9.823  19.239  0.00  0.00    +0.000 A 
ATOM      5  C   UNL     1       0.635  10.964  18.544  0.00  0.00    +0.000 A 
ATOM      6  N   UNL     1      -0.155  11.746  19.293  0.00  0.00    +0.000 NA
ATOM      7  N   UNL     1      -0.279  11.068  20.465  0.00  0.00    +0.000 N 
ATOM      8  C   UNL     1      -1.072  11.625  21.533  0.00  0.00    +0.000 C 
ATOM      9  C   UNL     1       0.407   9.878  20.483  0.00  0.00    +0.000 A 
ATOM     10  N   UNL     1       0.474   8.966  21.507  0.00  0.00    +0.000 NA
ATOM     11  C   UNL     1       1.204   7.898  21.244  0.00  0.00    +0.000 A 
ATOM     12  N   UNL     1       1.858   7.724  20.013  0.00  0.00    +0.000 N 
ATOM     13  N   UNL     1       2.607   6.659  19.658  0.00  0.00    +0.000 NA
ENDROOT
BRANCH   1  17
ATOM     14  C   UNL     1       5.339   4.522  15.846  0.00  0.00    +0.000 A 
ATOM     15  C   UNL     1       4.400   3.966  16.710  0.00  0.00    +0.000 A 
ATOM     16  C   UNL     1       3.614   4.788  17.519  0.00  0.00    +0.000 A 
ATOM     17  C   UNL     1       3.767   6.182  17.493  0.00  0.00    +0.000 A 
ATOM     18  C   UNL     1       4.713   6.735  16.621  0.00  0.00    +0.000 A 
ATOM     19  C   UNL     1       5.497   5.909  15.802  0.00  0.00    +0.000 A 
BRANCH  14  21
ATOM     20  C   UNL     1       6.212   3.878  13.745  0.00  0.00    +0.000 C 
ATOM     21  O   UNL     1       6.067   3.611  15.133  0.00  0.00    +0.000 OA
ENDBRANCH  14  21
ENDBRANCH   1  17
TORSDOF 2
ENDMDL
MODEL 4
REMARK VINA RESULT:      -7.1      1.394      2.458
REMARK  Name = 
REMARK  4 active torsions:
REMARK  status: ('A' for Active; 'I' for Inactive)
REMARK    1  A    between atoms: C_1  and  O_2
REMARK    2  A    between atoms: O_2  and  C_3
REMARK    3  A    between atoms: C_6  and  C_7
REMARK    4  A    between atoms: N_13  and  C_14
REMARK                            x       y       z     vdW  Elec       q    Type
REMARK                         _______ _______ _______ _____ _____    ______ ____
ROOT
ATOM      1  C   UNL     1       3.111   6.810  18.386  0.00  0.00    +0.000 A 
ATOM      2  N   UNL     1       2.634   8.018  17.893  0.00  0.00    +0.000 NA
ATOM      3  C   UNL     1       1.919   8.463  18.884  0.00  0.00    +0.000 A 
ATOM      4  C   UNL     1       1.114   9.659  19.047  0.00  0.00    +0.000 A 
ATOM      5  C   UNL     1       0.768  10.768  18.293  0.00  0.00    +0.000 A 
ATOM      6  N   UNL     1      -0.044  11.579  18.985  0.00  0.00    +0.000 NA
ATOM      7  N   UNL     1      -0.199  10.952  20.181  0.00  0.00    +0.000 N 
ATOM      8  C   UNL     1      -1.022  11.553  21.202  0.00  0.00    +0.000 C 
ATOM      9  C   UNL     1       0.488   9.767  20.271  0.00  0.00    +0.000 A 
ATOM     10  N   UNL     1       0.529   8.900  21.335  0.00  0.00    +0.000 NA
ATOM     11  C   UNL     1       1.269   7.824  21.139  0.00  0.00    +0.000 A 
ATOM     12  N   UNL     1       1.957   7.598  19.936  0.00  0.00    +0.000 N 
ATOM     13  N   UNL     1       2.717   6.522  19.648  0.00  0.00    +0.000 NA
ENDROOT
BRANCH   1  17
ATOM     14  C   UNL     1       5.507   4.380  15.808  0.00  0.00    +0.000 A 
ATOM     15  C   UNL     1       5.623   5.767  15.793  0.00  0.00    +0.000 A 
ATOM     16  C   UNL     1       4.854   6.547  16.658  0.00  0.00    +0.000 A 
ATOM     17  C   UNL     1       3.939   5.954  17.540  0.00  0.00    +0.000 A 
ATOM     18  C   UNL     1       3.826   4.558  17.550  0.00  0.00    +0.000 A 
ATOM     19  C   UNL     1       4.606   3.774  16.686  0.00  0.00    +0.000 A 
BRANCH  14  21
ATOM     20  C   UNL     1       5.946   3.935  13.528  0.00  0.00    +0.000 C 
ATOM     21  O   UNL     1       6.288   3.733  14.892  0.00  0.00    +0.000 OA
ENDBRANCH  14  21
ENDBRANCH   1  17
TORSDOF 2
ENDMDL
MODEL 5
REMARK VINA RESULT:      -7.1      3.640      7.805
REMARK  Name = 
REMARK  4 active torsions:
REMARK  status: ('A' for Active; 'I' for Inactive)
REMARK    1  A    between atoms: C_1  and  O_2
REMARK    2  A    between atoms: O_2  and  C_3
REMARK    3  A    between atoms: C_6  and  C_7
REMARK    4  A    between atoms: N_13  and  C_14
REMARK                            x       y       z     vdW  Elec       q    Type
REMARK                         _______ _______ _______ _____ _____    ______ ____
ROOT
ATOM      1  C   UNL     1       1.278   8.283  20.664  0.00  0.00    +0.000 A 
ATOM      2  N   UNL     1       1.256   7.043  21.290  0.00  0.00    +0.000 NA
ATOM      3  C   UNL     1       1.882   6.287  20.436  0.00  0.00    +0.000 A 
ATOM      4  C   UNL     1       2.196   4.871  20.433  0.00  0.00    +0.000 A 
ATOM      5  C   UNL     1       1.991   3.778  21.259  0.00  0.00    +0.000 A 
ATOM      6  N   UNL     1       2.520   2.670  20.720  0.00  0.00    +0.000 NA
ATOM      7  N   UNL     1       3.053   3.094  19.543  0.00  0.00    +0.000 N 
ATOM      8  C   UNL     1       3.724   2.152  18.681  0.00  0.00    +0.000 C 
ATOM      9  C   UNL     1       2.879   4.437  19.317  0.00  0.00    +0.000 A 
ATOM     10  N   UNL     1       3.289   5.163  18.226  0.00  0.00    +0.000 NA
ATOM     11  C   UNL     1       2.977   6.445  18.270  0.00  0.00    +0.000 A 
ATOM     12  N   UNL     1       2.282   7.009  19.353  0.00  0.00    +0.000 N 
ATOM     13  N   UNL     1       1.910   8.300  19.468  0.00  0.00    +0.000 NA
ENDROOT
BRANCH   1  17
ATOM     14  C   UNL     1      -0.752  11.558  22.522  0.00  0.00    +0.000 A 
ATOM     15  C   UNL     1      -0.748  10.295  23.108  0.00  0.00    +0.000 A 
ATOM     16  C   UNL     1      -0.059   9.241  22.505  0.00  0.00    +0.000 A 
ATOM     17  C   UNL     1       0.620   9.427  21.292  0.00  0.00    +0.000 A 
ATOM     18  C   UNL     1       0.612  10.699  20.708  0.00  0.00    +0.000 A 
ATOM     19  C   UNL     1      -0.073  11.760  21.319  0.00  0.00    +0.000 A 
BRANCH  14  21
ATOM     20  C   UNL     1      -2.886  12.250  23.269  0.00  0.00    +0.000 C 
ATOM     21  O   UNL     1      -1.489  12.494  23.192  0.00  0.00    +0.000 OA
ENDBRANCH  14  21
ENDBRANCH   1  17
TORSDOF 2
ENDMDL
MODEL 6
REMARK VINA RESULT:      -7.1      1.630      2.205
REMARK  Name = 
REMARK  4 active torsions:
REMARK  status: ('A' for Active; 'I' for Inactive)
REMARK    1  A    between atoms: C_1  and  O_2
REMARK    2  A    between atoms: O_2  and  C_3
REMARK    3  A    between atoms: C_6  and  C_7
REMARK    4  A    between atoms: N_13  and  C_14
REMARK                            x       y       z     vdW  Elec       q    Type
REMARK                         _______ _______ _______ _____ _____    ______ ____
ROOT
ATOM      1  C   UNL     1       1.863   7.508  19.891  0.00  0.00    +0.000 A 
ATOM      2  N   UNL     1       1.188   7.778  21.075  0.00  0.00    +0.000 NA
ATOM      3  C   UNL     1       0.828   9.017  20.916  0.00  0.00    +0.000 A 
ATOM      4  C   UNL     1       0.112   9.943  21.773  0.00  0.00    +0.000 A 
ATOM      5  C   UNL     1      -0.458   9.934  23.035  0.00  0.00    +0.000 A 
ATOM      6  N   UNL     1      -1.000  11.126  23.320  0.00  0.00    +0.000 NA
ATOM      7  N   UNL     1      -0.752  11.877  22.214  0.00  0.00    +0.000 N 
ATOM      8  C   UNL     1      -1.207  13.245  22.161  0.00  0.00    +0.000 C 
ATOM      9  C   UNL     1      -0.069  11.199  21.235  0.00  0.00    +0.000 A 
ATOM     10  N   UNL     1       0.337  11.676  20.013  0.00  0.00    +0.000 NA
ATOM     11  C   UNL     1       0.988  10.801  19.270  0.00  0.00    +0.000 A 
ATOM     12  N   UNL     1       1.237   9.489  19.705  0.00  0.00    +0.000 N 
ATOM     13  N   UNL     1       1.907   8.541  19.019  0.00  0.00    +0.000 NA
ENDROOT
BRANCH   1  17
ATOM     14  C   UNL     1       3.681   3.663  19.425  0.00  0.00    +0.000 A 
ATOM     15  C   UNL     1       2.626   3.852  20.313  0.00  0.00    +0.000 A 
ATOM     16  C   UNL     1       2.024   5.105  20.436  0.00  0.00    +0.000 A 
ATOM     17  C   UNL     1       2.482   6.199  19.688  0.00  0.00    +0.000 A 
ATOM     18  C   UNL     1       3.544   6.004  18.797  0.00  0.00    +0.000 A 
ATOM     19  C   UNL     1       4.142   4.741  18.667  0.00  0.00    +0.000 A 
BRANCH  14  21
ATOM     20  C   UNL     1       3.585   1.472  18.543  0.00  0.00    +0.000 C 
ATOM     21  O   UNL     1       4.204   2.401  19.421  0.00  0.00    +0.000 OA
ENDBRANCH  14  21
ENDBRANCH   1  17
TORSDOF 2
ENDMDL
MODEL 7
REMARK VINA RESULT:      -7.1      1.801      2.160
REMARK  Name = 
REMARK  4 active torsions:
REMARK  status: ('A' for Active; 'I' for Inactive)
REMARK    1  A    between atoms: C_1  and  O_2
REMARK    2  A    between atoms: O_2  and  C_3
REMARK    3  A    between atoms: C_6  and  C_7
REMARK    4  A    between atoms: N_13  and  C_14
REMARK                            x       y       z     vdW  Elec       q    Type
REMARK                         _______ _______ _______ _____ _____    ______ ____
ROOT
ATOM      1  C   UNL     1       1.860   7.297  20.084  0.00  0.00    +0.000 A 
ATOM      2  N   UNL     1       1.213   7.718  21.240  0.00  0.00    +0.000 NA
ATOM      3  C   UNL     1       0.902   8.948  20.955  0.00  0.00    +0.000 A 
ATOM      4  C   UNL     1       0.238   9.988  21.717  0.00  0.00    +0.000 A 
ATOM      5  C   UNL     1      -0.314  10.135  22.978  0.00  0.00    +0.000 A 
ATOM      6  N   UNL     1      -0.802  11.373  23.141  0.00  0.00    +0.000 NA
ATOM      7  N   UNL     1      -0.539  11.993  21.961  0.00  0.00    +0.000 N 
ATOM      8  C   UNL     1      -0.937  13.366  21.769  0.00  0.00    +0.000 C 
ATOM      9  C   UNL     1       0.102  11.188  21.051  0.00  0.00    +0.000 A 
ATOM     10  N   UNL     1       0.510  11.517  19.782  0.00  0.00    +0.000 NA
ATOM     11  C   UNL     1       1.114  10.542  19.129  0.00  0.00    +0.000 A 
ATOM     12  N   UNL     1       1.314   9.273  19.697  0.00  0.00    +0.000 N 
ATOM     13  N   UNL     1       1.935   8.230  19.108  0.00  0.00    +0.000 NA
ENDROOT
BRANCH   1  17
ATOM     14  C   UNL     1       3.494   3.358  19.749  0.00  0.00    +0.000 A 
ATOM     15  C   UNL     1       3.969   4.398  18.956  0.00  0.00    +0.000 A 
ATOM     16  C   UNL     1       3.445   5.685  19.094  0.00  0.00    +0.000 A 
ATOM     17  C   UNL     1       2.421   5.949  20.014  0.00  0.00    +0.000 A 
ATOM     18  C   UNL     1       1.947   4.899  20.809  0.00  0.00    +0.000 A 
ATOM     19  C   UNL     1       2.480   3.607  20.676  0.00  0.00    +0.000 A 
BRANCH  14  21
ATOM     20  C   UNL     1       3.587   1.459  18.344  0.00  0.00    +0.000 C 
ATOM     21  O   UNL     1       4.063   2.141  19.495  0.00  0.00    +0.000 OA
ENDBRANCH  14  21
ENDBRANCH   1  17
TORSDOF 2
ENDMDL
MODEL 8
REMARK VINA RESULT:      -7.1      3.467      7.954
REMARK  Name = 
REMARK  4 active torsions:
REMARK  status: ('A' for Active; 'I' for Inactive)
REMARK    1  A    between atoms: C_1  and  O_2
REMARK    2  A    between atoms: O_2  and  C_3
REMARK    3  A    between atoms: C_6  and  C_7
REMARK    4  A    between atoms: N_13  and  C_14
REMARK                            x       y       z     vdW  Elec       q    Type
REMARK                         _______ _______ _______ _____ _____    ______ ____
ROOT
ATOM      1  C   UNL     1       2.183   7.406  19.500  0.00  0.00    +0.000 A 
ATOM      2  N   UNL     1       2.890   7.738  18.351  0.00  0.00    +0.000 NA
ATOM      3  C   UNL     1       3.446   6.608  18.028  0.00  0.00    +0.000 A 
ATOM      4  C   UNL     1       4.343   6.235  16.951  0.00  0.00    +0.000 A 
ATOM      5  C   UNL     1       4.962   6.852  15.877  0.00  0.00    +0.000 A 
ATOM      6  N   UNL     1       5.715   5.978  15.195  0.00  0.00    +0.000 NA
ATOM      7  N   UNL     1       5.556   4.807  15.868  0.00  0.00    +0.000 N 
ATOM      8  C   UNL     1       6.231   3.619  15.405  0.00  0.00    +0.000 C 
ATOM      9  C   UNL     1       4.726   4.910  16.956  0.00  0.00    +0.000 A 
ATOM     10  N   UNL     1       4.373   3.918  17.838  0.00  0.00    +0.000 NA
ATOM     11  C   UNL     1       3.561   4.305  18.804  0.00  0.00    +0.000 A 
ATOM     12  N   UNL     1       3.099   5.628  18.908  0.00  0.00    +0.000 N 
ATOM     13  N   UNL     1       2.285   6.109  19.870  0.00  0.00    +0.000 NA
ENDROOT
BRANCH   1  17
ATOM     14  C   UNL     1       0.075  10.514  21.549  0.00  0.00    +0.000 A 
ATOM     15  C   UNL     1       0.295  10.585  20.176  0.00  0.00    +0.000 A 
ATOM     16  C   UNL     1       0.961   9.551  19.515  0.00  0.00    +0.000 A 
ATOM     17  C   UNL     1       1.439   8.437  20.221  0.00  0.00    +0.000 A 
ATOM     18  C   UNL     1       1.215   8.372  21.601  0.00  0.00    +0.000 A 
ATOM     19  C   UNL     1       0.537   9.407  22.264  0.00  0.00    +0.000 A 
BRANCH  14  21
ATOM     20  C   UNL     1      -1.509  11.332  23.102  0.00  0.00    +0.000 C 
ATOM     21  O   UNL     1      -0.558  11.602  22.081  0.00  0.00    +0.000 OA
ENDBRANCH  14  21
ENDBRANCH   1  17
TORSDOF 2
ENDMDL
MODEL 9
REMARK VINA RESULT:      -7.0      3.445      7.952
REMARK  Name = 
REMARK  4 active torsions:
REMARK  status: ('A' for Active; 'I' for Inactive)
REMARK    1  A    between atoms: C_1  and  O_2
REMARK    2  A    between atoms: O_2  and  C_3
REMARK    3  A    between atoms: C_6  and  C_7
REMARK    4  A    between atoms: N_13  and  C_14
REMARK                            x       y       z     vdW  Elec       q    Type
REMARK                         _______ _______ _______ _____ _____    ______ ____
ROOT
ATOM      1  C   UNL     1       2.075   7.521  19.644  0.00  0.00    +0.000 A 
ATOM      2  N   UNL     1       2.777   7.847  18.490  0.00  0.00    +0.000 NA
ATOM      3  C   UNL     1       3.335   6.717  18.172  0.00  0.00    +0.000 A 
ATOM      4  C   UNL     1       4.229   6.340  17.093  0.00  0.00    +0.000 A 
ATOM      5  C   UNL     1       4.841   6.952  16.013  0.00  0.00    +0.000 A 
ATOM      6  N   UNL     1       5.594   6.075  15.334  0.00  0.00    +0.000 NA
ATOM      7  N   UNL     1       5.442   4.909  16.015  0.00  0.00    +0.000 N 
ATOM      8  C   UNL     1       6.118   3.720  15.557  0.00  0.00    +0.000 C 
ATOM      9  C   UNL     1       4.615   5.017  17.106  0.00  0.00    +0.000 A 
ATOM     10  N   UNL     1       4.270   4.029  17.996  0.00  0.00    +0.000 NA
ATOM     11  C   UNL     1       3.460   4.420  18.962  0.00  0.00    +0.000 A 
ATOM     12  N   UNL     1       2.994   5.742  19.060  0.00  0.00    +0.000 N 
ATOM     13  N   UNL     1       2.183   6.226  20.022  0.00  0.00    +0.000 NA
ENDROOT
BRANCH   1  17
ATOM     14  C   UNL     1      -0.169  10.453  21.803  0.00  0.00    +0.000 A 
ATOM     15  C   UNL     1       0.407   9.369  22.459  0.00  0.00    +0.000 A 
ATOM     16  C   UNL     1       1.159   8.434  21.747  0.00  0.00    +0.000 A 
ATOM     17  C   UNL     1       1.331   8.554  20.360  0.00  0.00    +0.000 A 
ATOM     18  C   UNL     1       0.748   9.647  19.706  0.00  0.00    +0.000 A 
ATOM     19  C   UNL     1      -0.001  10.592  20.424  0.00  0.00    +0.000 A 
BRANCH  14  21
ATOM     20  C   UNL     1      -0.788  12.670  22.346  0.00  0.00    +0.000 C 
ATOM     21  O   UNL     1      -0.907  11.278  22.605  0.00  0.00    +0.000 OA
ENDBRANCH  14  21
ENDBRANCH   1  17
TORSDOF 2
ENDMDL
