MODEL 1
REMARK VINA RESULT:      -7.7      0.000      0.000
REMARK  Name = 
REMARK  4 active torsions:
REMARK  status: ('A' for Active; 'I' for Inactive)
REMARK    1  A    between atoms: C_2  and  C_3
REMARK    2  A    between atoms: C_11  and  C_12
REMARK    3  A    between atoms: N_21  and  C_22
REMARK    4  A    between atoms: C_22  and  C_23
REMARK                            x       y       z     vdW  Elec       q    Type
REMARK                         _______ _______ _______ _____ _____    ______ ____
ROOT
ATOM      1  O   UNL     1       4.006   3.130  17.599  0.00  0.00    +0.000 OA
ATOM      2  C   UNL     1       3.398   3.890  18.355  0.00  0.00    +0.000 C 
ATOM      3  N   UNL     1       3.447   5.266  18.077  0.00  0.00    +0.000 N 
ATOM      4  N   UNL     1       2.543   6.124  18.628  0.00  0.00    +0.000 NA
ATOM      5  C   UNL     1       2.928   7.303  18.129  0.00  0.00    +0.000 A 
ATOM      6  N   UNL     1       4.013   7.244  17.297  0.00  0.00    +0.000 NA
ATOM      7  C   UNL     1       4.314   5.968  17.248  0.00  0.00    +0.000 A 
ATOM      8  N   UNL     1       5.336   5.395  16.567  0.00  0.00    +0.000 N 
ATOM      9  H   UNL     1       5.330   4.375  16.474  0.00  0.00    +0.000 HD
ENDROOT
BRANCH   5  10
ATOM     10  C   UNL     1       2.268   8.563  18.427  0.00  0.00    +0.000 A 
ATOM     11  C   UNL     1       1.434   8.665  19.549  0.00  0.00    +0.000 A 
ATOM     12  C   UNL     1       0.818   9.881  19.861  0.00  0.00    +0.000 A 
ATOM     13  C   UNL     1       1.049  10.998  19.059  0.00  0.00    +0.000 A 
ATOM     14 CL   UNL     1       0.315  12.501  19.461  0.00  0.00    +0.000 Cl
ATOM     15  C   UNL     1       1.875  10.907  17.940  0.00  0.00    +0.000 A 
ATOM     16  C   UNL     1       2.477   9.688  17.618  0.00  0.00    +0.000 A 
ENDBRANCH   5  10
BRANCH   2  17
ATOM     17  C   UNL     1       2.679   3.313  19.523  0.00  0.00    +0.000 A 
ATOM     18  C   UNL     1       1.280   3.392  19.605  0.00  0.00    +0.000 A 
ATOM     19  C   UNL     1       0.617   2.910  20.733  0.00  0.00    +0.000 A 
ATOM     20  C   UNL     1       1.343   2.354  21.785  0.00  0.00    +0.000 A 
ATOM     21  C   UNL     1       2.735   2.279  21.712  0.00  0.00    +0.000 A 
ATOM     22  C   UNL     1       3.407   2.765  20.587  0.00  0.00    +0.000 A 
ENDBRANCH   2  17
BRANCH   8  23
ATOM     23  C   UNL     1       5.826   6.063  15.367  0.00  0.00    +0.000 C 
BRANCH  23  24
ATOM     24  C   UNL     1       6.139   5.127  14.250  0.00  0.00    +0.000 A 
ATOM     25  C   UNL     1       5.502   4.017  13.736  0.00  0.00    +0.000 A 
ATOM     26  C   UNL     1       6.322   3.539  12.684  0.00  0.00    +0.000 A 
ATOM     27  C   UNL     1       7.406   4.383  12.630  0.00  0.00    +0.000 A 
ATOM     28  O   UNL     1       7.306   5.349  13.578  0.00  0.00    +0.000 OA
ENDBRANCH  23  24
ENDBRANCH   8  23
TORSDOF 4
ENDMDL
MODEL 2
REMARK VINA RESULT:      -7.4      3.275      4.368
REMARK  Name = 
REMARK  4 active torsions:
REMARK  status: ('A' for Active; 'I' for Inactive)
REMARK    1  A    between atoms: C_2  and  C_3
REMARK    2  A    between atoms: C_11  and  C_12
REMARK    3  A    between atoms: N_21  and  C_22
REMARK    4  A    between atoms: C_22  and  C_23
REMARK                            x       y       z     vdW  Elec       q    Type
REMARK                         _______ _______ _______ _____ _____    ______ ____
ROOT
ATOM      1  O   UNL     1       3.606   3.514  16.567  0.00  0.00    +0.000 OA
ATOM      2  C   UNL     1       4.064   4.237  17.454  0.00  0.00    +0.000 C 
ATOM      3  N   UNL     1       5.201   5.003  17.151  0.00  0.00    +0.000 N 
ATOM      4  N   UNL     1       5.556   6.066  17.926  0.00  0.00    +0.000 NA
ATOM      5  C   UNL     1       6.662   6.507  17.316  0.00  0.00    +0.000 A 
ATOM      6  N   UNL     1       7.025   5.794  16.206  0.00  0.00    +0.000 NA
ATOM      7  C   UNL     1       6.095   4.874  16.094  0.00  0.00    +0.000 A 
ATOM      8  N   UNL     1       6.019   3.900  15.156  0.00  0.00    +0.000 N 
ATOM      9  H   UNL     1       5.140   3.378  15.086  0.00  0.00    +0.000 HD
ENDROOT
BRANCH   5  10
ATOM     10  C   UNL     1       7.436   7.648  17.772  0.00  0.00    +0.000 A 
ATOM     11  C   UNL     1       7.227   8.909  17.197  0.00  0.00    +0.000 A 
ATOM     12  C   UNL     1       7.946  10.019  17.649  0.00  0.00    +0.000 A 
ATOM     13  C   UNL     1       8.864   9.871  18.688  0.00  0.00    +0.000 A 
ATOM     14 CL   UNL     1       9.726  11.243  19.266  0.00  0.00    +0.000 Cl
ATOM     15  C   UNL     1       9.082   8.621  19.266  0.00  0.00    +0.000 A 
ATOM     16  C   UNL     1       8.376   7.508  18.803  0.00  0.00    +0.000 A 
ENDBRANCH   5  10
BRANCH   2  17
ATOM     17  C   UNL     1       3.408   4.232  18.790  0.00  0.00    +0.000 A 
ATOM     18  C   UNL     1       3.666   3.199  19.704  0.00  0.00    +0.000 A 
ATOM     19  C   UNL     1       2.997   3.164  20.927  0.00  0.00    +0.000 A 
ATOM     20  C   UNL     1       2.066   4.152  21.242  0.00  0.00    +0.000 A 
ATOM     21  C   UNL     1       1.800   5.178  20.334  0.00  0.00    +0.000 A 
ATOM     22  C   UNL     1       2.463   5.217  19.104  0.00  0.00    +0.000 A 
ENDBRANCH   2  17
BRANCH   8  23
ATOM     23  C   UNL     1       6.628   4.146  13.854  0.00  0.00    +0.000 C 
BRANCH  23  24
ATOM     24  C   UNL     1       5.957   3.424  12.736  0.00  0.00    +0.000 A 
ATOM     25  C   UNL     1       6.344   2.394  11.904  0.00  0.00    +0.000 A 
ATOM     26  C   UNL     1       5.262   2.171  11.017  0.00  0.00    +0.000 A 
ATOM     27  C   UNL     1       4.290   3.081  11.362  0.00  0.00    +0.000 A 
ATOM     28  O   UNL     1       4.703   3.848  12.403  0.00  0.00    +0.000 OA
ENDBRANCH  23  24
ENDBRANCH   8  23
TORSDOF 4
ENDMDL
MODEL 3
REMARK VINA RESULT:      -7.3      0.191      1.325
REMARK  Name = 
REMARK  4 active torsions:
REMARK  status: ('A' for Active; 'I' for Inactive)
REMARK    1  A    between atoms: C_2  and  C_3
REMARK    2  A    between atoms: C_11  and  C_12
REMARK    3  A    between atoms: N_21  and  C_22
REMARK    4  A    between atoms: C_22  and  C_23
REMARK                            x       y       z     vdW  Elec       q    Type
REMARK                         _______ _______ _______ _____ _____    ______ ____
ROOT
ATOM      1  O   UNL     1       4.052   3.211  17.717  0.00  0.00    +0.000 OA
ATOM      2  C   UNL     1       3.429   3.992  18.439  0.00  0.00    +0.000 C 
ATOM      3  N   UNL     1       3.485   5.360  18.125  0.00  0.00    +0.000 N 
ATOM      4  N   UNL     1       2.571   6.233  18.633  0.00  0.00    +0.000 NA
ATOM      5  C   UNL     1       2.968   7.398  18.110  0.00  0.00    +0.000 A 
ATOM      6  N   UNL     1       4.070   7.316  17.302  0.00  0.00    +0.000 NA
ATOM      7  C   UNL     1       4.371   6.038  17.295  0.00  0.00    +0.000 A 
ATOM      8  N   UNL     1       5.406   5.446  16.651  0.00  0.00    +0.000 N 
ATOM      9  H   UNL     1       5.400   4.424  16.586  0.00  0.00    +0.000 HD
ENDROOT
BRANCH   5  10
ATOM     10  C   UNL     1       2.304   8.665  18.360  0.00  0.00    +0.000 A 
ATOM     11  C   UNL     1       2.676   9.805  17.633  0.00  0.00    +0.000 A 
ATOM     12  C   UNL     1       2.022  11.022  17.845  0.00  0.00    +0.000 A 
ATOM     13  C   UNL     1       0.985  11.096  18.774  0.00  0.00    +0.000 A 
ATOM     14 CL   UNL     1       0.159  12.586  19.013  0.00  0.00    +0.000 Cl
ATOM     15  C   UNL     1       0.607   9.970  19.504  0.00  0.00    +0.000 A 
ATOM     16  C   UNL     1       1.272   8.757  19.304  0.00  0.00    +0.000 A 
ENDBRANCH   5  10
BRANCH   2  17
ATOM     17  C   UNL     1       2.685   3.447  19.608  0.00  0.00    +0.000 A 
ATOM     18  C   UNL     1       3.378   2.878  20.687  0.00  0.00    +0.000 A 
ATOM     19  C   UNL     1       2.674   2.308  21.747  0.00  0.00    +0.000 A 
ATOM     20  C   UNL     1       1.281   2.298  21.735  0.00  0.00    +0.000 A 
ATOM     21  C   UNL     1       0.587   2.856  20.660  0.00  0.00    +0.000 A 
ATOM     22  C   UNL     1       1.286   3.424  19.591  0.00  0.00    +0.000 A 
ENDBRANCH   2  17
BRANCH   8  23
ATOM     23  C   UNL     1       5.921   6.080  15.443  0.00  0.00    +0.000 C 
BRANCH  23  24
ATOM     24  C   UNL     1       6.166   5.124  14.327  0.00  0.00    +0.000 A 
ATOM     25  C   UNL     1       5.526   3.979  13.900  0.00  0.00    +0.000 A 
ATOM     26  C   UNL     1       6.265   3.500  12.791  0.00  0.00    +0.000 A 
ATOM     27  C   UNL     1       7.309   4.378  12.618  0.00  0.00    +0.000 A 
ATOM     28  O   UNL     1       7.260   5.366  13.547  0.00  0.00    +0.000 OA
ENDBRANCH  23  24
ENDBRANCH   8  23
TORSDOF 4
ENDMDL
MODEL 4
REMARK VINA RESULT:      -7.3      3.310      4.204
REMARK  Name = 
REMARK  4 active torsions:
REMARK  status: ('A' for Active; 'I' for Inactive)
REMARK    1  A    between atoms: C_2  and  C_3
REMARK    2  A    between atoms: C_11  and  C_12
REMARK    3  A    between atoms: N_21  and  C_22
REMARK    4  A    between atoms: C_22  and  C_23
REMARK                            x       y       z     vdW  Elec       q    Type
REMARK                         _______ _______ _______ _____ _____    ______ ____
ROOT
ATOM      1  O   UNL     1       3.526   3.360  16.518  0.00  0.00    +0.000 OA
ATOM      2  C   UNL     1       3.971   4.082  17.413  0.00  0.00    +0.000 C 
ATOM      3  N   UNL     1       5.101   4.863  17.123  0.00  0.00    +0.000 N 
ATOM      4  N   UNL     1       5.440   5.925  17.908  0.00  0.00    +0.000 NA
ATOM      5  C   UNL     1       6.543   6.382  17.308  0.00  0.00    +0.000 A 
ATOM      6  N   UNL     1       6.921   5.682  16.194  0.00  0.00    +0.000 NA
ATOM      7  C   UNL     1       6.002   4.753  16.070  0.00  0.00    +0.000 A 
ATOM      8  N   UNL     1       5.942   3.785  15.123  0.00  0.00    +0.000 N 
ATOM      9  H   UNL     1       5.070   3.254  15.045  0.00  0.00    +0.000 HD
ENDROOT
BRANCH   5  10
ATOM     10  C   UNL     1       7.302   7.529  17.776  0.00  0.00    +0.000 A 
ATOM     11  C   UNL     1       8.286   7.361  18.760  0.00  0.00    +0.000 A 
ATOM     12  C   UNL     1       9.042   8.453  19.196  0.00  0.00    +0.000 A 
ATOM     13  C   UNL     1       8.824   9.711  18.637  0.00  0.00    +0.000 A 
ATOM     14 CL   UNL     1       9.775  11.049  19.151  0.00  0.00    +0.000 Cl
ATOM     15  C   UNL     1       7.847   9.891  17.659  0.00  0.00    +0.000 A 
ATOM     16  C   UNL     1       7.080   8.803  17.235  0.00  0.00    +0.000 A 
ENDBRANCH   5  10
BRANCH   2  17
ATOM     17  C   UNL     1       3.308   4.060  18.746  0.00  0.00    +0.000 A 
ATOM     18  C   UNL     1       2.443   5.098  19.125  0.00  0.00    +0.000 A 
ATOM     19  C   UNL     1       1.878   5.107  20.400  0.00  0.00    +0.000 A 
ATOM     20  C   UNL     1       2.176   4.087  21.302  0.00  0.00    +0.000 A 
ATOM     21  C   UNL     1       3.041   3.057  20.933  0.00  0.00    +0.000 A 
ATOM     22  C   UNL     1       3.616   3.044  19.659  0.00  0.00    +0.000 A 
ENDBRANCH   2  17
BRANCH   8  23
ATOM     23  C   UNL     1       6.556   4.048  13.827  0.00  0.00    +0.000 C 
BRANCH  23  24
ATOM     24  C   UNL     1       5.834   3.414  12.687  0.00  0.00    +0.000 A 
ATOM     25  C   UNL     1       4.614   3.650  12.088  0.00  0.00    +0.000 A 
ATOM     26  C   UNL     1       4.482   2.683  11.062  0.00  0.00    +0.000 A 
ATOM     27  C   UNL     1       5.625   1.918  11.106  0.00  0.00    +0.000 A 
ATOM     28  O   UNL     1       6.451   2.353  12.091  0.00  0.00    +0.000 OA
ENDBRANCH  23  24
ENDBRANCH   8  23
TORSDOF 4
ENDMDL
MODEL 5
REMARK VINA RESULT:      -7.2      3.198      7.096
REMARK  Name = 
REMARK  4 active torsions:
REMARK  status: ('A' for Active; 'I' for Inactive)
REMARK    1  A    between atoms: C_2  and  C_3
REMARK    2  A    between atoms: C_11  and  C_12
REMARK    3  A    between atoms: N_21  and  C_22
REMARK    4  A    between atoms: C_22  and  C_23
REMARK                            x       y       z     vdW  Elec       q    Type
REMARK                         _______ _______ _______ _____ _____    ______ ____
ROOT
ATOM      1  O   UNL     1       0.743   7.700  21.087  0.00  0.00    +0.000 OA
ATOM      2  C   UNL     1       1.474   8.004  20.142  0.00  0.00    +0.000 C 
ATOM      3  N   UNL     1       2.303   7.004  19.608  0.00  0.00    +0.000 N 
ATOM      4  N   UNL     1       2.865   7.145  18.375  0.00  0.00    +0.000 NA
ATOM      5  C   UNL     1       3.562   6.011  18.248  0.00  0.00    +0.000 A 
ATOM      6  N   UNL     1       3.473   5.163  19.318  0.00  0.00    +0.000 NA
ATOM      7  C   UNL     1       2.666   5.777  20.151  0.00  0.00    +0.000 A 
ATOM      8  N   UNL     1       2.277   5.349  21.377  0.00  0.00    +0.000 N 
ATOM      9  H   UNL     1       1.500   5.843  21.826  0.00  0.00    +0.000 HD
ENDROOT
BRANCH   5  10
ATOM     10  C   UNL     1       4.358   5.677  17.079  0.00  0.00    +0.000 A 
ATOM     11  C   UNL     1       4.864   6.699  16.264  0.00  0.00    +0.000 A 
ATOM     12  C   UNL     1       5.655   6.390  15.154  0.00  0.00    +0.000 A 
ATOM     13  C   UNL     1       5.954   5.058  14.869  0.00  0.00    +0.000 A 
ATOM     14 CL   UNL     1       6.954   4.678  13.521  0.00  0.00    +0.000 Cl
ATOM     15  C   UNL     1       5.455   4.033  15.672  0.00  0.00    +0.000 A 
ATOM     16  C   UNL     1       4.649   4.342  16.771  0.00  0.00    +0.000 A 
ENDBRANCH   5  10
BRANCH   2  17
ATOM     17  C   UNL     1       1.456   9.408  19.647  0.00  0.00    +0.000 A 
ATOM     18  C   UNL     1       1.947   9.716  18.370  0.00  0.00    +0.000 A 
ATOM     19  C   UNL     1       1.991  11.041  17.938  0.00  0.00    +0.000 A 
ATOM     20  C   UNL     1       1.552  12.063  18.777  0.00  0.00    +0.000 A 
ATOM     21  C   UNL     1       1.070  11.763  20.052  0.00  0.00    +0.000 A 
ATOM     22  C   UNL     1       1.029  10.438  20.494  0.00  0.00    +0.000 A 
ENDBRANCH   2  17
BRANCH   8  23
ATOM     23  C   UNL     1       2.247   3.913  21.630  0.00  0.00    +0.000 C 
BRANCH  23  24
ATOM     24  C   UNL     1       1.801   3.111  20.455  0.00  0.00    +0.000 A 
ATOM     25  C   UNL     1       0.602   3.001  19.782  0.00  0.00    +0.000 A 
ATOM     26  C   UNL     1       0.807   2.042  18.760  0.00  0.00    +0.000 A 
ATOM     27  C   UNL     1       2.112   1.626  18.880  0.00  0.00    +0.000 A 
ATOM     28  O   UNL     1       2.723   2.267  19.909  0.00  0.00    +0.000 OA
ENDBRANCH  23  24
ENDBRANCH   8  23
TORSDOF 4
ENDMDL
MODEL 6
REMARK VINA RESULT:      -7.2      3.203      7.053
REMARK  Name = 
REMARK  4 active torsions:
REMARK  status: ('A' for Active; 'I' for Inactive)
REMARK    1  A    between atoms: C_2  and  C_3
REMARK    2  A    between atoms: C_11  and  C_12
REMARK    3  A    between atoms: N_21  and  C_22
REMARK    4  A    between atoms: C_22  and  C_23
REMARK                            x       y       z     vdW  Elec       q    Type
REMARK                         _______ _______ _______ _____ _____    ______ ____
ROOT
ATOM      1  O   UNL     1       0.759   7.679  21.107  0.00  0.00    +0.000 OA
ATOM      2  C   UNL     1       1.510   7.991  20.182  0.00  0.00    +0.000 C 
ATOM      3  N   UNL     1       2.342   6.992  19.650  0.00  0.00    +0.000 N 
ATOM      4  N   UNL     1       2.929   7.145  18.429  0.00  0.00    +0.000 NA
ATOM      5  C   UNL     1       3.619   6.008  18.299  0.00  0.00    +0.000 A 
ATOM      6  N   UNL     1       3.503   5.145  19.356  0.00  0.00    +0.000 NA
ATOM      7  C   UNL     1       2.684   5.754  20.182  0.00  0.00    +0.000 A 
ATOM      8  N   UNL     1       2.269   5.312  21.393  0.00  0.00    +0.000 N 
ATOM      9  H   UNL     1       1.487   5.806  21.834  0.00  0.00    +0.000 HD
ENDROOT
BRANCH   5  10
ATOM     10  C   UNL     1       4.435   5.684  17.142  0.00  0.00    +0.000 A 
ATOM     11  C   UNL     1       4.757   4.348  16.865  0.00  0.00    +0.000 A 
ATOM     12  C   UNL     1       5.516   4.025  15.737  0.00  0.00    +0.000 A 
ATOM     13  C   UNL     1       5.941   5.037  14.877  0.00  0.00    +0.000 A 
ATOM     14 CL   UNL     1       6.850   4.636  13.472  0.00  0.00    +0.000 Cl
ATOM     15  C   UNL     1       5.628   6.369  15.143  0.00  0.00    +0.000 A 
ATOM     16  C   UNL     1       4.884   6.694  16.280  0.00  0.00    +0.000 A 
ENDBRANCH   5  10
BRANCH   2  17
ATOM     17  C   UNL     1       1.513   9.401  19.707  0.00  0.00    +0.000 A 
ATOM     18  C   UNL     1       1.076  10.435  20.549  0.00  0.00    +0.000 A 
ATOM     19  C   UNL     1       1.017  11.745  20.077  0.00  0.00    +0.000 A 
ATOM     20  C   UNL     1       1.386  12.031  18.764  0.00  0.00    +0.000 A 
ATOM     21  C   UNL     1       1.814  11.005  17.919  0.00  0.00    +0.000 A 
ATOM     22  C   UNL     1       1.870   9.689  18.384  0.00  0.00    +0.000 A 
ENDBRANCH   2  17
BRANCH   8  23
ATOM     23  C   UNL     1       2.223   3.873  21.625  0.00  0.00    +0.000 C 
BRANCH  23  24
ATOM     24  C   UNL     1       1.780   3.092  20.436  0.00  0.00    +0.000 A 
ATOM     25  C   UNL     1       0.595   3.026  19.732  0.00  0.00    +0.000 A 
ATOM     26  C   UNL     1       0.793   2.066  18.710  0.00  0.00    +0.000 A 
ATOM     27  C   UNL     1       2.080   1.606  18.860  0.00  0.00    +0.000 A 
ATOM     28  O   UNL     1       2.687   2.221  19.906  0.00  0.00    +0.000 OA
ENDBRANCH  23  24
ENDBRANCH   8  23
TORSDOF 4
ENDMDL
MODEL 7
REMARK VINA RESULT:      -7.2      5.513      9.494
REMARK  Name = 
REMARK  4 active torsions:
REMARK  status: ('A' for Active; 'I' for Inactive)
REMARK    1  A    between atoms: C_2  and  C_3
REMARK    2  A    between atoms: C_11  and  C_12
REMARK    3  A    between atoms: N_21  and  C_22
REMARK    4  A    between atoms: C_22  and  C_23
REMARK                            x       y       z     vdW  Elec       q    Type
REMARK                         _______ _______ _______ _____ _____    ______ ____
ROOT
ATOM      1  O   UNL     1      -0.076  14.490  18.499  0.00  0.00    +0.000 OA
ATOM      2  C   UNL     1       0.851  13.727  18.777  0.00  0.00    +0.000 C 
ATOM      3  N   UNL     1       0.546  12.371  18.973  0.00  0.00    +0.000 N 
ATOM      4  N   UNL     1       1.522  11.420  18.932  0.00  0.00    +0.000 NA
ATOM      5  C   UNL     1       0.835  10.296  19.164  0.00  0.00    +0.000 A 
ATOM      6  N   UNL     1      -0.509  10.475  19.344  0.00  0.00    +0.000 NA
ATOM      7  C   UNL     1      -0.686  11.767  19.197  0.00  0.00    +0.000 A 
ATOM      8  N   UNL     1      -1.852  12.450  19.305  0.00  0.00    +0.000 N 
ATOM      9  H   UNL     1      -1.863  13.421  18.979  0.00  0.00    +0.000 HD
ENDROOT
BRANCH   5  10
ATOM     10  C   UNL     1       1.440   8.977  19.224  0.00  0.00    +0.000 A 
ATOM     11  C   UNL     1       1.399   8.243  20.418  0.00  0.00    +0.000 A 
ATOM     12  C   UNL     1       1.952   6.961  20.478  0.00  0.00    +0.000 A 
ATOM     13  C   UNL     1       2.533   6.406  19.339  0.00  0.00    +0.000 A 
ATOM     14 CL   UNL     1       3.186   4.816  19.404  0.00  0.00    +0.000 Cl
ATOM     15  C   UNL     1       2.582   7.127  18.146  0.00  0.00    +0.000 A 
ATOM     16  C   UNL     1       2.045   8.415  18.091  0.00  0.00    +0.000 A 
ENDBRANCH   5  10
BRANCH   2  17
ATOM     17  C   UNL     1       2.223  14.289  18.915  0.00  0.00    +0.000 A 
ATOM     18  C   UNL     1       2.738  14.598  20.183  0.00  0.00    +0.000 A 
ATOM     19  C   UNL     1       3.996  15.188  20.302  0.00  0.00    +0.000 A 
ATOM     20  C   UNL     1       4.742  15.477  19.161  0.00  0.00    +0.000 A 
ATOM     21  C   UNL     1       4.231  15.178  17.897  0.00  0.00    +0.000 A 
ATOM     22  C   UNL     1       2.968  14.593  17.770  0.00  0.00    +0.000 A 
ENDBRANCH   2  17
BRANCH   8  23
ATOM     23  C   UNL     1      -3.094  11.746  19.008  0.00  0.00    +0.000 C 
BRANCH  23  24
ATOM     24  C   UNL     1      -3.067  11.011  17.712  0.00  0.00    +0.000 A 
ATOM     25  C   UNL     1      -3.251   9.689  17.367  0.00  0.00    +0.000 A 
ATOM     26  C   UNL     1      -3.070   9.614  15.965  0.00  0.00    +0.000 A 
ATOM     27  C   UNL     1      -2.782  10.893  15.547  0.00  0.00    +0.000 A 
ATOM     28  O   UNL     1      -2.775  11.748  16.601  0.00  0.00    +0.000 OA
ENDBRANCH  23  24
ENDBRANCH   8  23
TORSDOF 4
ENDMDL
MODEL 8
REMARK VINA RESULT:      -7.2      3.351      7.053
REMARK  Name = 
REMARK  4 active torsions:
REMARK  status: ('A' for Active; 'I' for Inactive)
REMARK    1  A    between atoms: C_2  and  C_3
REMARK    2  A    between atoms: C_11  and  C_12
REMARK    3  A    between atoms: N_21  and  C_22
REMARK    4  A    between atoms: C_22  and  C_23
REMARK                            x       y       z     vdW  Elec       q    Type
REMARK                         _______ _______ _______ _____ _____    ______ ____
ROOT
ATOM      1  O   UNL     1       0.723   7.550  21.092  0.00  0.00    +0.000 OA
ATOM      2  C   UNL     1       1.464   7.873  20.162  0.00  0.00    +0.000 C 
ATOM      3  N   UNL     1       2.322   6.892  19.638  0.00  0.00    +0.000 N 
ATOM      4  N   UNL     1       2.902   7.050  18.415  0.00  0.00    +0.000 NA
ATOM      5  C   UNL     1       3.624   5.930  18.295  0.00  0.00    +0.000 A 
ATOM      6  N   UNL     1       3.534   5.076  19.360  0.00  0.00    +0.000 NA
ATOM      7  C   UNL     1       2.700   5.669  20.181  0.00  0.00    +0.000 A 
ATOM      8  N   UNL     1       2.298   5.229  21.398  0.00  0.00    +0.000 N 
ATOM      9  H   UNL     1       1.504   5.705  21.836  0.00  0.00    +0.000 HD
ENDROOT
BRANCH   5  10
ATOM     10  C   UNL     1       4.446   5.618  17.139  0.00  0.00    +0.000 A 
ATOM     11  C   UNL     1       4.795   4.288  16.869  0.00  0.00    +0.000 A 
ATOM     12  C   UNL     1       5.562   3.974  15.743  0.00  0.00    +0.000 A 
ATOM     13  C   UNL     1       5.966   4.991  14.878  0.00  0.00    +0.000 A 
ATOM     14 CL   UNL     1       6.883   4.601  13.475  0.00  0.00    +0.000 Cl
ATOM     15  C   UNL     1       5.627   6.317  15.138  0.00  0.00    +0.000 A 
ATOM     16  C   UNL     1       4.875   6.633  16.273  0.00  0.00    +0.000 A 
ENDBRANCH   5  10
BRANCH   2  17
ATOM     17  C   UNL     1       1.427   9.278  19.673  0.00  0.00    +0.000 A 
ATOM     18  C   UNL     1       1.888   9.594  18.385  0.00  0.00    +0.000 A 
ATOM     19  C   UNL     1       1.914  10.921  17.958  0.00  0.00    +0.000 A 
ATOM     20  C   UNL     1       1.488  11.937  18.810  0.00  0.00    +0.000 A 
ATOM     21  C   UNL     1       1.036  11.630  20.095  0.00  0.00    +0.000 A 
ATOM     22  C   UNL     1       1.012  10.303  20.532  0.00  0.00    +0.000 A 
ENDBRANCH   2  17
BRANCH   8  23
ATOM     23  C   UNL     1       2.292   3.791  21.644  0.00  0.00    +0.000 C 
BRANCH  23  24
ATOM     24  C   UNL     1       1.952   2.982  20.440  0.00  0.00    +0.000 A 
ATOM     25  C   UNL     1       2.658   2.077  19.676  0.00  0.00    +0.000 A 
ATOM     26  C   UNL     1       1.785   1.667  18.638  0.00  0.00    +0.000 A 
ATOM     27  C   UNL     1       0.609   2.352  18.833  0.00  0.00    +0.000 A 
ATOM     28  O   UNL     1       0.701   3.156  19.923  0.00  0.00    +0.000 OA
ENDBRANCH  23  24
ENDBRANCH   8  23
TORSDOF 4
ENDMDL
MODEL 9
REMARK VINA RESULT:      -7.1      5.382      9.461
REMARK  Name = 
REMARK  4 active torsions:
REMARK  status: ('A' for Active; 'I' for Inactive)
REMARK    1  A    between atoms: C_2  and  C_3
REMARK    2  A    between atoms: C_11  and  C_12
REMARK    3  A    between atoms: N_21  and  C_22
REMARK    4  A    between atoms: C_22  and  C_23
REMARK                            x       y       z     vdW  Elec       q    Type
REMARK                         _______ _______ _______ _____ _____    ______ ____
ROOT
ATOM      1  O   UNL     1      -0.141  14.489  18.359  0.00  0.00    +0.000 OA
ATOM      2  C   UNL     1       0.779  13.745  18.703  0.00  0.00    +0.000 C 
ATOM      3  N   UNL     1       0.493  12.380  18.864  0.00  0.00    +0.000 N 
ATOM      4  N   UNL     1       1.491  11.453  18.893  0.00  0.00    +0.000 NA
ATOM      5  C   UNL     1       0.815  10.311  19.060  0.00  0.00    +0.000 A 
ATOM      6  N   UNL     1      -0.543  10.457  19.134  0.00  0.00    +0.000 NA
ATOM      7  C   UNL     1      -0.739  11.746  18.984  0.00  0.00    +0.000 A 
ATOM      8  N   UNL     1      -1.925  12.400  19.005  0.00  0.00    +0.000 N 
ATOM      9  H   UNL     1      -1.934  13.374  18.687  0.00  0.00    +0.000 HD
ENDROOT
BRANCH   5  10
ATOM     10  C   UNL     1       1.445   9.006  19.158  0.00  0.00    +0.000 A 
ATOM     11  C   UNL     1       2.134   8.478  18.057  0.00  0.00    +0.000 A 
ATOM     12  C   UNL     1       2.768   7.236  18.151  0.00  0.00    +0.000 A 
ATOM     13  C   UNL     1       2.727   6.529  19.352  0.00  0.00    +0.000 A 
ATOM     14 CL   UNL     1       3.534   5.014  19.477  0.00  0.00    +0.000 Cl
ATOM     15  C   UNL     1       2.044   7.043  20.453  0.00  0.00    +0.000 A 
ATOM     16  C   UNL     1       1.395   8.276  20.354  0.00  0.00    +0.000 A 
ENDBRANCH   5  10
BRANCH   2  17
ATOM     17  C   UNL     1       2.122  14.338  18.954  0.00  0.00    +0.000 A 
ATOM     18  C   UNL     1       2.975  14.641  17.883  0.00  0.00    +0.000 A 
ATOM     19  C   UNL     1       4.257  15.133  18.127  0.00  0.00    +0.000 A 
ATOM     20  C   UNL     1       4.695  15.319  19.437  0.00  0.00    +0.000 A 
ATOM     21  C   UNL     1       3.853  15.011  20.506  0.00  0.00    +0.000 A 
ATOM     22  C   UNL     1       2.569  14.513  20.269  0.00  0.00    +0.000 A 
ENDBRANCH   2  17
BRANCH   8  23
ATOM     23  C   UNL     1      -3.123  11.670  18.604  0.00  0.00    +0.000 C 
BRANCH  23  24
ATOM     24  C   UNL     1      -3.027  11.069  17.244  0.00  0.00    +0.000 A 
ATOM     25  C   UNL     1      -2.947  11.603  15.975  0.00  0.00    +0.000 A 
ATOM     26  C   UNL     1      -2.909  10.504  15.083  0.00  0.00    +0.000 A 
ATOM     27  C   UNL     1      -2.975   9.374  15.864  0.00  0.00    +0.000 A 
ATOM     28  O   UNL     1      -3.050   9.707  17.177  0.00  0.00    +0.000 OA
ENDBRANCH  23  24
ENDBRANCH   8  23
TORSDOF 4
ENDMDL
