MODEL 1
REMARK VINA RESULT:      -6.4      0.000      0.000
REMARK  Name = 
REMARK  11 active torsions:
REMARK  status: ('A' for Active; 'I' for Inactive)
REMARK    1  A    between atoms: C_1  and  O_2
REMARK    2  A    between atoms: O_2  and  C_3
REMARK    3  A    between atoms: C_3  and  CA_5
REMARK    4  A    between atoms: CA_5  and  C_6
REMARK    5  A    between atoms: CA_5  and  N_8
REMARK    6  A    between atoms: C_6  and  O_7
REMARK    7  A    between atoms: C_11  and  O_12
REMARK    8  A    between atoms: O_12  and  C_13
REMARK    9  A    between atoms: C_15  and  N_16
REMARK   10  A    between atoms: N_19  and  C_20
REMARK   11  A    between atoms: C_20  and  C_21
REMARK                            x       y       z     vdW  Elec       q    Type
REMARK                         _______ _______ _______ _____ _____    ______ ____
ROOT
ATOM      1  N   UNL     1       3.209   4.901  20.782  0.00  0.00    +0.000 N 
ATOM      2  C   UNL     1       3.409   5.830  19.787  0.00  0.00    +0.000 A 
ATOM      3  N   UNL     1       2.419   6.605  19.353  0.00  0.00    +0.000 NA
ATOM      4  C   UNL     1       2.700   7.375  18.304  0.00  0.00    +0.000 A 
ATOM      5  N   UNL     1       3.795   7.319  17.574  0.00  0.00    +0.000 NA
ATOM      6  C   UNL     1       4.648   6.433  18.013  0.00  0.00    +0.000 A 
ATOM      7  N   UNL     1       4.559   5.734  19.141  0.00  0.00    +0.000 NA
ATOM      8  H   UNL     1       3.972   4.230  20.869  0.00  0.00    +0.000 HD
ENDROOT
BRANCH   6   9
ATOM      9  N   UNL     1       5.307   5.669  16.946  0.00  0.00    +0.000 NA
ATOM     10  C   UNL     1       6.833   5.526  17.083  0.00  0.00    +0.000 C 
ATOM     11  C   UNL     1       7.347   4.725  15.815  0.00  0.00    +0.000 C 
ATOM     12  N   UNL     1       6.152   4.463  14.790  0.00  0.00    +0.000 N 
ATOM     13  C   UNL     1       5.560   5.838  14.413  0.00  0.00    +0.000 C 
ATOM     14  C   UNL     1       5.055   6.545  15.679  0.00  0.00    +0.000 C 
ATOM     15  C   UNL     1       5.013   3.652  15.534  0.00  0.00    +0.000 C 
ATOM     16  C   UNL     1       4.739   4.256  16.919  0.00  0.00    +0.000 C 
BRANCH  12  17
ATOM     17  C   UNL     1       6.504   3.634  13.526  0.00  0.00    +0.000 C 
BRANCH  17  18
ATOM     18  C   UNL     1       5.416   3.456  12.467  0.00  0.00    +0.000 C 
ATOM     19 CL   UNL     1       5.648   1.982  11.514  0.00  0.00    +0.000 Cl
ENDBRANCH  17  18
ENDBRANCH  12  17
ENDBRANCH   6   9
BRANCH   4  20
ATOM     20  O   UNL     1       1.720   8.122  17.698  0.00  0.00    +0.000 OA
ATOM     21  C   UNL     1       1.438   9.351  18.347  0.00  0.00    +0.000 C 
ENDBRANCH   4  20
BRANCH   1  22
ATOM     22  CA  UNL     1       1.881   4.251  20.914  0.00  0.00    +0.000 C 
BRANCH  22  23
ATOM     23  C   UNL     1       1.982   2.932  21.702  0.00  0.00    +0.000 C 
ATOM     24  O   UNL     1       1.050   2.387  22.279  0.00  0.00    +0.000 OA
BRANCH  23  26
ATOM     25  C   UNL     1       3.779   1.993  20.469  0.00  0.00    +0.000 C 
ATOM     26  O   UNL     1       3.278   2.499  21.714  0.00  0.00    +0.000 OA
ENDBRANCH  23  26
ENDBRANCH  22  23
BRANCH  22  27
ATOM     27  C   UNL     1       1.249   3.926  19.537  0.00  0.00    +0.000 C 
BRANCH  27  28
ATOM     28  O   UNL     1       0.299   2.849  19.584  0.00  0.00    +0.000 OA
ATOM     29  H   UNL     1       0.208   2.611  20.529  0.00  0.00    +0.000 HD
ENDBRANCH  27  28
ENDBRANCH  22  27
ENDBRANCH   1  22
TORSDOF 9
ENDMDL
MODEL 2
REMARK VINA RESULT:      -6.2      2.903      5.933
REMARK  Name = 
REMARK  11 active torsions:
REMARK  status: ('A' for Active; 'I' for Inactive)
REMARK    1  A    between atoms: C_1  and  O_2
REMARK    2  A    between atoms: O_2  and  C_3
REMARK    3  A    between atoms: C_3  and  CA_5
REMARK    4  A    between atoms: CA_5  and  C_6
REMARK    5  A    between atoms: CA_5  and  N_8
REMARK    6  A    between atoms: C_6  and  O_7
REMARK    7  A    between atoms: C_11  and  O_12
REMARK    8  A    between atoms: O_12  and  C_13
REMARK    9  A    between atoms: C_15  and  N_16
REMARK   10  A    between atoms: N_19  and  C_20
REMARK   11  A    between atoms: C_20  and  C_21
REMARK                            x       y       z     vdW  Elec       q    Type
REMARK                         _______ _______ _______ _____ _____    ______ ____
ROOT
ATOM      1  N   UNL     1       1.664  10.342  17.811  0.00  0.00    +0.000 N 
ATOM      2  C   UNL     1       1.589   9.165  18.521  0.00  0.00    +0.000 A 
ATOM      3  N   UNL     1       1.345   9.159  19.828  0.00  0.00    +0.000 NA
ATOM      4  C   UNL     1       1.421   7.973  20.428  0.00  0.00    +0.000 A 
ATOM      5  N   UNL     1       1.866   6.858  19.886  0.00  0.00    +0.000 NA
ATOM      6  C   UNL     1       2.201   7.007  18.632  0.00  0.00    +0.000 A 
ATOM      7  N   UNL     1       2.006   8.086  17.880  0.00  0.00    +0.000 NA
ATOM      8  H   UNL     1       2.067  10.229  16.881  0.00  0.00    +0.000 HD
ENDROOT
BRANCH   6   9
ATOM      9  N   UNL     1       3.428   6.294  18.260  0.00  0.00    +0.000 NA
ATOM     10  C   UNL     1       4.416   6.034  19.412  0.00  0.00    +0.000 C 
ATOM     11  C   UNL     1       5.684   5.310  18.792  0.00  0.00    +0.000 C 
ATOM     12  N   UNL     1       5.562   5.222  17.203  0.00  0.00    +0.000 N 
ATOM     13  C   UNL     1       5.392   6.661  16.674  0.00  0.00    +0.000 C 
ATOM     14  C   UNL     1       4.134   7.290  17.288  0.00  0.00    +0.000 C 
ATOM     15  C   UNL     1       4.239   4.431  16.838  0.00  0.00    +0.000 C 
ATOM     16  C   UNL     1       3.061   4.931  17.687  0.00  0.00    +0.000 C 
BRANCH  12  17
ATOM     17  C   UNL     1       6.712   4.481  16.470  0.00  0.00    +0.000 C 
BRANCH  17  18
ATOM     18  C   UNL     1       7.007   4.882  15.024  0.00  0.00    +0.000 C 
ATOM     19 CL   UNL     1       6.261   3.777  13.860  0.00  0.00    +0.000 Cl
ENDBRANCH  17  18
ENDBRANCH  12  17
ENDBRANCH   6   9
BRANCH   4  20
ATOM     20  O   UNL     1       1.308   7.867  21.793  0.00  0.00    +0.000 OA
ATOM     21  C   UNL     1       0.947   9.074  22.444  0.00  0.00    +0.000 C 
ENDBRANCH   4  20
BRANCH   1  22
ATOM     22  CA  UNL     1       2.156  11.568  18.486  0.00  0.00    +0.000 C 
BRANCH  22  23
ATOM     23  C   UNL     1       0.987  12.445  18.970  0.00  0.00    +0.000 C 
ATOM     24  O   UNL     1      -0.031  12.673  18.329  0.00  0.00    +0.000 OA
BRANCH  23  26
ATOM     25  C   UNL     1       0.373  12.665  21.251  0.00  0.00    +0.000 C 
ATOM     26  O   UNL     1       1.286  12.981  20.191  0.00  0.00    +0.000 OA
ENDBRANCH  23  26
ENDBRANCH  22  23
BRANCH  22  27
ATOM     27  C   UNL     1       3.036  12.437  17.551  0.00  0.00    +0.000 C 
BRANCH  27  28
ATOM     28  O   UNL     1       2.733  13.839  17.621  0.00  0.00    +0.000 OA
ATOM     29  H   UNL     1       2.932  14.113  18.540  0.00  0.00    +0.000 HD
ENDBRANCH  27  28
ENDBRANCH  22  27
ENDBRANCH   1  22
TORSDOF 9
ENDMDL
MODEL 3
REMARK VINA RESULT:      -6.1      8.530     10.239
REMARK  Name = 
REMARK  11 active torsions:
REMARK  status: ('A' for Active; 'I' for Inactive)
REMARK    1  A    between atoms: C_1  and  O_2
REMARK    2  A    between atoms: O_2  and  C_3
REMARK    3  A    between atoms: C_3  and  CA_5
REMARK    4  A    between atoms: CA_5  and  C_6
REMARK    5  A    between atoms: CA_5  and  N_8
REMARK    6  A    between atoms: C_6  and  O_7
REMARK    7  A    between atoms: C_11  and  O_12
REMARK    8  A    between atoms: O_12  and  C_13
REMARK    9  A    between atoms: C_15  and  N_16
REMARK   10  A    between atoms: N_19  and  C_20
REMARK   11  A    between atoms: C_20  and  C_21
REMARK                            x       y       z     vdW  Elec       q    Type
REMARK                         _______ _______ _______ _____ _____    ______ ____
ROOT
ATOM      1  N   UNL     1       2.261  14.037  20.407  0.00  0.00    +0.000 N 
ATOM      2  C   UNL     1       2.831  15.155  19.842  0.00  0.00    +0.000 A 
ATOM      3  N   UNL     1       2.248  15.797  18.834  0.00  0.00    +0.000 NA
ATOM      4  C   UNL     1       2.953  16.785  18.288  0.00  0.00    +0.000 A 
ATOM      5  N   UNL     1       4.213  17.070  18.543  0.00  0.00    +0.000 NA
ATOM      6  C   UNL     1       4.729  16.293  19.458  0.00  0.00    +0.000 A 
ATOM      7  N   UNL     1       4.083  15.395  20.196  0.00  0.00    +0.000 NA
ATOM      8  H   UNL     1       2.898  13.517  21.009  0.00  0.00    +0.000 HD
ENDROOT
BRANCH   6   9
ATOM      9  N   UNL     1       6.106  15.876  19.169  0.00  0.00    +0.000 NA
ATOM     10  C   UNL     1       7.030  16.978  18.623  0.00  0.00    +0.000 C 
ATOM     11  C   UNL     1       8.439  16.311  18.329  0.00  0.00    +0.000 C 
ATOM     12  N   UNL     1       8.377  14.735  18.569  0.00  0.00    +0.000 N 
ATOM     13  C   UNL     1       7.263  14.174  17.660  0.00  0.00    +0.000 C 
ATOM     14  C   UNL     1       5.926  14.838  18.017  0.00  0.00    +0.000 C 
ATOM     15  C   UNL     1       7.938  14.465  20.067  0.00  0.00    +0.000 C 
ATOM     16  C   UNL     1       6.752  15.362  20.450  0.00  0.00    +0.000 C 
BRANCH  12  17
ATOM     17  C   UNL     1       9.708  13.961  18.374  0.00  0.00    +0.000 C 
BRANCH  17  18
ATOM     18  C   UNL     1       9.651  12.624  17.635  0.00  0.00    +0.000 C 
ATOM     19 CL   UNL     1      10.998  11.562  18.074  0.00  0.00    +0.000 Cl
ENDBRANCH  17  18
ENDBRANCH  12  17
ENDBRANCH   6   9
BRANCH   4  20
ATOM     20  O   UNL     1       2.500  17.435  17.165  0.00  0.00    +0.000 OA
ATOM     21  C   UNL     1       1.215  18.018  17.307  0.00  0.00    +0.000 C 
ENDBRANCH   4  20
BRANCH   1  22
ATOM     22  CA  UNL     1       1.433  13.138  19.565  0.00  0.00    +0.000 C 
BRANCH  22  23
ATOM     23  C   UNL     1       0.665  12.119  20.426  0.00  0.00    +0.000 C 
ATOM     24  O   UNL     1       1.144  11.488  21.359  0.00  0.00    +0.000 OA
BRANCH  23  26
ATOM     25  C   UNL     1      -0.930  10.694  19.399  0.00  0.00    +0.000 C 
ATOM     26  O   UNL     1      -0.609  11.978  19.950  0.00  0.00    +0.000 OA
ENDBRANCH  23  26
ENDBRANCH  22  23
BRANCH  22  27
ATOM     27  C   UNL     1       2.287  12.341  18.546  0.00  0.00    +0.000 C 
BRANCH  27  28
ATOM     28  O   UNL     1       2.417  12.994  17.274  0.00  0.00    +0.000 OA
ATOM     29  H   UNL     1       2.690  12.299  16.640  0.00  0.00    +0.000 HD
ENDBRANCH  27  28
ENDBRANCH  22  27
ENDBRANCH   1  22
TORSDOF 9
ENDMDL
MODEL 4
REMARK VINA RESULT:      -6.1      3.907      6.885
REMARK  Name = 
REMARK  11 active torsions:
REMARK  status: ('A' for Active; 'I' for Inactive)
REMARK    1  A    between atoms: C_1  and  O_2
REMARK    2  A    between atoms: O_2  and  C_3
REMARK    3  A    between atoms: C_3  and  CA_5
REMARK    4  A    between atoms: CA_5  and  C_6
REMARK    5  A    between atoms: CA_5  and  N_8
REMARK    6  A    between atoms: C_6  and  O_7
REMARK    7  A    between atoms: C_11  and  O_12
REMARK    8  A    between atoms: O_12  and  C_13
REMARK    9  A    between atoms: C_15  and  N_16
REMARK   10  A    between atoms: N_19  and  C_20
REMARK   11  A    between atoms: C_20  and  C_21
REMARK                            x       y       z     vdW  Elec       q    Type
REMARK                         _______ _______ _______ _____ _____    ______ ____
ROOT
ATOM      1  N   UNL     1       2.068   4.813  19.212  0.00  0.00    +0.000 N 
ATOM      2  C   UNL     1       2.503   5.864  18.438  0.00  0.00    +0.000 A 
ATOM      3  N   UNL     1       3.790   6.026  18.148  0.00  0.00    +0.000 NA
ATOM      4  C   UNL     1       4.105   7.146  17.500  0.00  0.00    +0.000 A 
ATOM      5  N   UNL     1       3.297   8.160  17.271  0.00  0.00    +0.000 NA
ATOM      6  C   UNL     1       2.086   7.949  17.712  0.00  0.00    +0.000 A 
ATOM      7  N   UNL     1       1.609   6.813  18.213  0.00  0.00    +0.000 NA
ATOM      8  H   UNL     1       1.109   4.922  19.541  0.00  0.00    +0.000 HD
ENDROOT
BRANCH   6   9
ATOM      9  N   UNL     1       1.474   9.125  18.342  0.00  0.00    +0.000 NA
ATOM     10  C   UNL     1       2.252  10.443  18.176  0.00  0.00    +0.000 C 
ATOM     11  C   UNL     1       1.456  11.563  18.969  0.00  0.00    +0.000 C 
ATOM     12  N   UNL     1       0.223  10.927  19.759  0.00  0.00    +0.000 N 
ATOM     13  C   UNL     1       0.789   9.838  20.694  0.00  0.00    +0.000 C 
ATOM     14  C   UNL     1       1.517   8.773  19.862  0.00  0.00    +0.000 C 
ATOM     15  C   UNL     1      -0.727  10.203  18.719  0.00  0.00    +0.000 C 
ATOM     16  C   UNL     1       0.095   9.355  17.738  0.00  0.00    +0.000 C 
BRANCH  12  17
ATOM     17  C   UNL     1      -0.680  11.924  20.533  0.00  0.00    +0.000 C 
BRANCH  17  18
ATOM     18  C   UNL     1      -1.561  12.867  19.714  0.00  0.00    +0.000 C 
ATOM     19 CL   UNL     1      -3.286  12.570  19.983  0.00  0.00    +0.000 Cl
ENDBRANCH  17  18
ENDBRANCH  12  17
ENDBRANCH   6   9
BRANCH   4  20
ATOM     20  O   UNL     1       5.417   7.473  17.258  0.00  0.00    +0.000 OA
ATOM     21  C   UNL     1       6.214   6.391  16.803  0.00  0.00    +0.000 C 
ENDBRANCH   4  20
BRANCH   1  22
ATOM     22  CA  UNL     1       2.959   4.269  20.267  0.00  0.00    +0.000 C 
BRANCH  22  23
ATOM     23  C   UNL     1       3.696   3.008  19.778  0.00  0.00    +0.000 C 
ATOM     24  O   UNL     1       4.887   2.782  19.948  0.00  0.00    +0.000 OA
BRANCH  23  26
ATOM     25  C   UNL     1       3.263   1.851  17.753  0.00  0.00    +0.000 C 
ATOM     26  O   UNL     1       2.836   2.215  19.072  0.00  0.00    +0.000 OA
ENDBRANCH  23  26
ENDBRANCH  22  23
BRANCH  22  27
ATOM     27  C   UNL     1       2.181   3.887  21.551  0.00  0.00    +0.000 C 
BRANCH  27  28
ATOM     28  O   UNL     1       2.591   2.632  22.117  0.00  0.00    +0.000 OA
ATOM     29  H   UNL     1       3.146   2.854  22.892  0.00  0.00    +0.000 HD
ENDBRANCH  27  28
ENDBRANCH  22  27
ENDBRANCH   1  22
TORSDOF 9
ENDMDL
MODEL 5
REMARK VINA RESULT:      -6.0      2.650      4.757
REMARK  Name = 
REMARK  11 active torsions:
REMARK  status: ('A' for Active; 'I' for Inactive)
REMARK    1  A    between atoms: C_1  and  O_2
REMARK    2  A    between atoms: O_2  and  C_3
REMARK    3  A    between atoms: C_3  and  CA_5
REMARK    4  A    between atoms: CA_5  and  C_6
REMARK    5  A    between atoms: CA_5  and  N_8
REMARK    6  A    between atoms: C_6  and  O_7
REMARK    7  A    between atoms: C_11  and  O_12
REMARK    8  A    between atoms: O_12  and  C_13
REMARK    9  A    between atoms: C_15  and  N_16
REMARK   10  A    between atoms: N_19  and  C_20
REMARK   11  A    between atoms: C_20  and  C_21
REMARK                            x       y       z     vdW  Elec       q    Type
REMARK                         _______ _______ _______ _____ _____    ______ ____
ROOT
ATOM      1  N   UNL     1       1.185   8.012  20.050  0.00  0.00    +0.000 N 
ATOM      2  C   UNL     1       1.538   6.683  19.995  0.00  0.00    +0.000 A 
ATOM      3  N   UNL     1       1.516   5.914  21.079  0.00  0.00    +0.000 NA
ATOM      4  C   UNL     1       1.998   4.682  20.928  0.00  0.00    +0.000 A 
ATOM      5  N   UNL     1       2.629   4.222  19.868  0.00  0.00    +0.000 NA
ATOM      6  C   UNL     1       2.709   5.104  18.908  0.00  0.00    +0.000 A 
ATOM      7  N   UNL     1       2.118   6.295  18.871  0.00  0.00    +0.000 NA
ATOM      8  H   UNL     1       1.451   8.537  19.217  0.00  0.00    +0.000 HD
ENDROOT
BRANCH   6   9
ATOM      9  N   UNL     1       4.006   5.114  18.221  0.00  0.00    +0.000 NA
ATOM     10  C   UNL     1       5.239   5.192  19.139  0.00  0.00    +0.000 C 
ATOM     11  C   UNL     1       6.519   5.246  18.205  0.00  0.00    +0.000 C 
ATOM     12  N   UNL     1       6.094   5.333  16.669  0.00  0.00    +0.000 N 
ATOM     13  C   UNL     1       5.200   6.581  16.509  0.00  0.00    +0.000 C 
ATOM     14  C   UNL     1       3.968   6.450  17.415  0.00  0.00    +0.000 C 
ATOM     15  C   UNL     1       5.204   4.072  16.315  0.00  0.00    +0.000 C 
ATOM     16  C   UNL     1       4.150   3.834  17.407  0.00  0.00    +0.000 C 
BRANCH  12  17
ATOM     17  C   UNL     1       7.254   5.333  15.638  0.00  0.00    +0.000 C 
BRANCH  17  18
ATOM     18  C   UNL     1       6.995   4.686  14.277  0.00  0.00    +0.000 C 
ATOM     19 CL   UNL     1       7.961   5.427  12.992  0.00  0.00    +0.000 Cl
ENDBRANCH  17  18
ENDBRANCH  12  17
ENDBRANCH   6   9
BRANCH   4  20
ATOM     20  O   UNL     1       2.137   3.845  22.008  0.00  0.00    +0.000 OA
ATOM     21  C   UNL     1       2.548   2.528  21.676  0.00  0.00    +0.000 C 
ENDBRANCH   4  20
BRANCH   1  22
ATOM     22  CA  UNL     1       1.437   8.780  21.295  0.00  0.00    +0.000 C 
BRANCH  22  23
ATOM     23  C   UNL     1       0.149   8.933  22.125  0.00  0.00    +0.000 C 
ATOM     24  O   UNL     1      -0.845   8.227  22.014  0.00  0.00    +0.000 OA
BRANCH  23  26
ATOM     25  C   UNL     1      -0.944  10.765  23.164  0.00  0.00    +0.000 C 
ATOM     26  O   UNL     1       0.259  10.014  22.954  0.00  0.00    +0.000 OA
ENDBRANCH  23  26
ENDBRANCH  22  23
BRANCH  22  27
ATOM     27  C   UNL     1       1.978  10.203  21.005  0.00  0.00    +0.000 C 
BRANCH  27  28
ATOM     28  O   UNL     1       1.061  11.024  20.263  0.00  0.00    +0.000 OA
ATOM     29  H   UNL     1       0.974  10.603  19.383  0.00  0.00    +0.000 HD
ENDBRANCH  27  28
ENDBRANCH  22  27
ENDBRANCH   1  22
TORSDOF 9
ENDMDL
MODEL 6
REMARK VINA RESULT:      -6.0      3.952      6.826
REMARK  Name = 
REMARK  11 active torsions:
REMARK  status: ('A' for Active; 'I' for Inactive)
REMARK    1  A    between atoms: C_1  and  O_2
REMARK    2  A    between atoms: O_2  and  C_3
REMARK    3  A    between atoms: C_3  and  CA_5
REMARK    4  A    between atoms: CA_5  and  C_6
REMARK    5  A    between atoms: CA_5  and  N_8
REMARK    6  A    between atoms: C_6  and  O_7
REMARK    7  A    between atoms: C_11  and  O_12
REMARK    8  A    between atoms: O_12  and  C_13
REMARK    9  A    between atoms: C_15  and  N_16
REMARK   10  A    between atoms: N_19  and  C_20
REMARK   11  A    between atoms: C_20  and  C_21
REMARK                            x       y       z     vdW  Elec       q    Type
REMARK                         _______ _______ _______ _____ _____    ______ ____
ROOT
ATOM      1  N   UNL     1       2.051   4.835  19.292  0.00  0.00    +0.000 N 
ATOM      2  C   UNL     1       2.474   5.880  18.503  0.00  0.00    +0.000 A 
ATOM      3  N   UNL     1       3.748   6.008  18.146  0.00  0.00    +0.000 NA
ATOM      4  C   UNL     1       4.059   7.124  17.490  0.00  0.00    +0.000 A 
ATOM      5  N   UNL     1       3.270   8.162  17.311  0.00  0.00    +0.000 NA
ATOM      6  C   UNL     1       2.078   7.982  17.815  0.00  0.00    +0.000 A 
ATOM      7  N   UNL     1       1.596   6.855  18.333  0.00  0.00    +0.000 NA
ATOM      8  H   UNL     1       1.114   4.967  19.672  0.00  0.00    +0.000 HD
ENDROOT
BRANCH   6   9
ATOM      9  N   UNL     1       1.535   9.169  18.485  0.00  0.00    +0.000 NA
ATOM     10  C   UNL     1       1.358   9.045  20.009  0.00  0.00    +0.000 C 
ATOM     11  C   UNL     1       0.715  10.401  20.521  0.00  0.00    +0.000 C 
ATOM     12  N   UNL     1       0.355  11.355  19.293  0.00  0.00    +0.000 N 
ATOM     13  C   UNL     1      -0.594  10.570  18.364  0.00  0.00    +0.000 C 
ATOM     14  C   UNL     1       0.100   9.289  17.881  0.00  0.00    +0.000 C 
ATOM     15  C   UNL     1       1.678  11.645  18.472  0.00  0.00    +0.000 C 
ATOM     16  C   UNL     1       2.470  10.348  18.250  0.00  0.00    +0.000 C 
BRANCH  12  17
ATOM     17  C   UNL     1      -0.230  12.745  19.655  0.00  0.00    +0.000 C 
BRANCH  17  18
ATOM     18  C   UNL     1      -0.279  13.805  18.554  0.00  0.00    +0.000 C 
ATOM     19 CL   UNL     1       0.755  15.194  18.919  0.00  0.00    +0.000 Cl
ENDBRANCH  17  18
ENDBRANCH  12  17
ENDBRANCH   6   9
BRANCH   4  20
ATOM     20  O   UNL     1       5.365   7.416  17.181  0.00  0.00    +0.000 OA
ATOM     21  C   UNL     1       6.284   6.381  17.491  0.00  0.00    +0.000 C 
ENDBRANCH   4  20
BRANCH   1  22
ATOM     22  CA  UNL     1       2.981   4.257  20.293  0.00  0.00    +0.000 C 
BRANCH  22  23
ATOM     23  C   UNL     1       3.709   3.023  19.731  0.00  0.00    +0.000 C 
ATOM     24  O   UNL     1       4.916   2.828  19.801  0.00  0.00    +0.000 OA
BRANCH  23  26
ATOM     25  C   UNL     1       3.079   1.976  17.697  0.00  0.00    +0.000 C 
ATOM     26  O   UNL     1       2.816   2.213  19.086  0.00  0.00    +0.000 OA
ENDBRANCH  23  26
ENDBRANCH  22  23
BRANCH  22  27
ATOM     27  C   UNL     1       2.249   3.818  21.587  0.00  0.00    +0.000 C 
BRANCH  27  28
ATOM     28  O   UNL     1       2.665   2.531  22.071  0.00  0.00    +0.000 OA
ATOM     29  H   UNL     1       3.147   2.700  22.907  0.00  0.00    +0.000 HD
ENDBRANCH  27  28
ENDBRANCH  22  27
ENDBRANCH   1  22
TORSDOF 9
ENDMDL
MODEL 7
REMARK VINA RESULT:      -6.0      4.144      7.036
REMARK  Name = 
REMARK  11 active torsions:
REMARK  status: ('A' for Active; 'I' for Inactive)
REMARK    1  A    between atoms: C_1  and  O_2
REMARK    2  A    between atoms: O_2  and  C_3
REMARK    3  A    between atoms: C_3  and  CA_5
REMARK    4  A    between atoms: CA_5  and  C_6
REMARK    5  A    between atoms: CA_5  and  N_8
REMARK    6  A    between atoms: C_6  and  O_7
REMARK    7  A    between atoms: C_11  and  O_12
REMARK    8  A    between atoms: O_12  and  C_13
REMARK    9  A    between atoms: C_15  and  N_16
REMARK   10  A    between atoms: N_19  and  C_20
REMARK   11  A    between atoms: C_20  and  C_21
REMARK                            x       y       z     vdW  Elec       q    Type
REMARK                         _______ _______ _______ _____ _____    ______ ____
ROOT
ATOM      1  N   UNL     1       2.034   4.864  19.215  0.00  0.00    +0.000 N 
ATOM      2  C   UNL     1       2.476   5.924  18.458  0.00  0.00    +0.000 A 
ATOM      3  N   UNL     1       3.765   6.085  18.175  0.00  0.00    +0.000 NA
ATOM      4  C   UNL     1       4.086   7.212  17.545  0.00  0.00    +0.000 A 
ATOM      5  N   UNL     1       3.283   8.233  17.327  0.00  0.00    +0.000 NA
ATOM      6  C   UNL     1       2.070   8.021  17.761  0.00  0.00    +0.000 A 
ATOM      7  N   UNL     1       1.586   6.879  18.243  0.00  0.00    +0.000 NA
ATOM      8  H   UNL     1       1.074   4.971  19.542  0.00  0.00    +0.000 HD
ENDROOT
BRANCH   6   9
ATOM      9  N   UNL     1       1.460   9.190  18.405  0.00  0.00    +0.000 NA
ATOM     10  C   UNL     1       2.225  10.514  18.231  0.00  0.00    +0.000 C 
ATOM     11  C   UNL     1       1.434  11.625  19.041  0.00  0.00    +0.000 C 
ATOM     12  N   UNL     1       0.220  10.978  19.849  0.00  0.00    +0.000 N 
ATOM     13  C   UNL     1       0.809   9.889  20.771  0.00  0.00    +0.000 C 
ATOM     14  C   UNL     1       1.532   8.833  19.923  0.00  0.00    +0.000 C 
ATOM     15  C   UNL     1      -0.743  10.250  18.824  0.00  0.00    +0.000 C 
ATOM     16  C   UNL     1       0.069   9.412  17.825  0.00  0.00    +0.000 C 
BRANCH  12  17
ATOM     17  C   UNL     1      -0.677  11.965  20.642  0.00  0.00    +0.000 C 
BRANCH  17  18
ATOM     18  C   UNL     1      -0.746  11.800  22.161  0.00  0.00    +0.000 C 
ATOM     19 CL   UNL     1      -0.959  13.349  22.991  0.00  0.00    +0.000 Cl
ENDBRANCH  17  18
ENDBRANCH  12  17
ENDBRANCH   6   9
BRANCH   4  20
ATOM     20  O   UNL     1       5.400   7.538  17.313  0.00  0.00    +0.000 OA
ATOM     21  C   UNL     1       6.247   6.422  17.088  0.00  0.00    +0.000 C 
ENDBRANCH   4  20
BRANCH   1  22
ATOM     22  CA  UNL     1       2.919   4.301  20.265  0.00  0.00    +0.000 C 
BRANCH  22  23
ATOM     23  C   UNL     1       3.814   3.183  19.699  0.00  0.00    +0.000 C 
ATOM     24  O   UNL     1       5.029   3.255  19.572  0.00  0.00    +0.000 OA
BRANCH  23  26
ATOM     25  C   UNL     1       3.023   1.865  17.892  0.00  0.00    +0.000 C 
ATOM     26  O   UNL     1       3.041   2.128  19.301  0.00  0.00    +0.000 OA
ENDBRANCH  23  26
ENDBRANCH  22  23
BRANCH  22  27
ATOM     27  C   UNL     1       2.116   3.702  21.448  0.00  0.00    +0.000 C 
BRANCH  27  28
ATOM     28  O   UNL     1       0.891   3.068  21.046  0.00  0.00    +0.000 OA
ATOM     29  H   UNL     1       1.145   2.378  20.399  0.00  0.00    +0.000 HD
ENDBRANCH  27  28
ENDBRANCH  22  27
ENDBRANCH   1  22
TORSDOF 9
ENDMDL
MODEL 8
REMARK VINA RESULT:      -6.0      8.370     10.304
REMARK  Name = 
REMARK  11 active torsions:
REMARK  status: ('A' for Active; 'I' for Inactive)
REMARK    1  A    between atoms: C_1  and  O_2
REMARK    2  A    between atoms: O_2  and  C_3
REMARK    3  A    between atoms: C_3  and  CA_5
REMARK    4  A    between atoms: CA_5  and  C_6
REMARK    5  A    between atoms: CA_5  and  N_8
REMARK    6  A    between atoms: C_6  and  O_7
REMARK    7  A    between atoms: C_11  and  O_12
REMARK    8  A    between atoms: O_12  and  C_13
REMARK    9  A    between atoms: C_15  and  N_16
REMARK   10  A    between atoms: N_19  and  C_20
REMARK   11  A    between atoms: C_20  and  C_21
REMARK                            x       y       z     vdW  Elec       q    Type
REMARK                         _______ _______ _______ _____ _____    ______ ____
ROOT
ATOM      1  N   UNL     1       2.212  13.906  20.085  0.00  0.00    +0.000 N 
ATOM      2  C   UNL     1       2.829  15.036  19.601  0.00  0.00    +0.000 A 
ATOM      3  N   UNL     1       2.286  15.759  18.626  0.00  0.00    +0.000 NA
ATOM      4  C   UNL     1       3.033  16.755  18.155  0.00  0.00    +0.000 A 
ATOM      5  N   UNL     1       4.297  16.982  18.450  0.00  0.00    +0.000 NA
ATOM      6  C   UNL     1       4.770  16.133  19.323  0.00  0.00    +0.000 A 
ATOM      7  N   UNL     1       4.081  15.213  19.992  0.00  0.00    +0.000 NA
ATOM      8  H   UNL     1       2.821  13.328  20.664  0.00  0.00    +0.000 HD
ENDROOT
BRANCH   6   9
ATOM      9  N   UNL     1       6.138  15.689  19.032  0.00  0.00    +0.000 NA
ATOM     10  C   UNL     1       6.274  14.674  17.883  0.00  0.00    +0.000 C 
ATOM     11  C   UNL     1       7.808  14.289  17.772  0.00  0.00    +0.000 C 
ATOM     12  N   UNL     1       8.646  14.966  18.949  0.00  0.00    +0.000 N 
ATOM     13  C   UNL     1       8.022  14.506  20.283  0.00  0.00    +0.000 C 
ATOM     14  C   UNL     1       6.550  14.937  20.337  0.00  0.00    +0.000 C 
ATOM     15  C   UNL     1       8.463  16.537  18.864  0.00  0.00    +0.000 C 
ATOM     16  C   UNL     1       6.985  16.896  18.649  0.00  0.00    +0.000 C 
BRANCH  12  17
ATOM     17  C   UNL     1      10.178  14.719  18.927  0.00  0.00    +0.000 C 
BRANCH  17  18
ATOM     18  C   UNL     1      10.797  14.207  17.626  0.00  0.00    +0.000 C 
ATOM     19 CL   UNL     1      11.078  12.460  17.663  0.00  0.00    +0.000 Cl
ENDBRANCH  17  18
ENDBRANCH  12  17
ENDBRANCH   6   9
BRANCH   4  20
ATOM     20  O   UNL     1       2.624  17.488  17.068  0.00  0.00    +0.000 OA
ATOM     21  C   UNL     1       1.324  18.042  17.194  0.00  0.00    +0.000 C 
ENDBRANCH   4  20
BRANCH   1  22
ATOM     22  CA  UNL     1       1.373  13.089  19.174  0.00  0.00    +0.000 C 
BRANCH  22  23
ATOM     23  C   UNL     1       0.468  12.125  19.964  0.00  0.00    +0.000 C 
ATOM     24  O   UNL     1      -0.705  11.893  19.702  0.00  0.00    +0.000 OA
BRANCH  23  26
ATOM     25  C   UNL     1       0.754  10.316  21.471  0.00  0.00    +0.000 C 
ATOM     26  O   UNL     1       1.152  11.623  21.035  0.00  0.00    +0.000 OA
ENDBRANCH  23  26
ENDBRANCH  22  23
BRANCH  22  27
ATOM     27  C   UNL     1       2.225  12.236  18.200  0.00  0.00    +0.000 C 
BRANCH  27  28
ATOM     28  O   UNL     1       1.762  10.882  18.069  0.00  0.00    +0.000 OA
ATOM     29  H   UNL     1       1.031  10.785  18.713  0.00  0.00    +0.000 HD
ENDBRANCH  27  28
ENDBRANCH  22  27
ENDBRANCH   1  22
TORSDOF 9
ENDMDL
MODEL 9
REMARK VINA RESULT:      -5.9      8.061     11.102
REMARK  Name = 
REMARK  11 active torsions:
REMARK  status: ('A' for Active; 'I' for Inactive)
REMARK    1  A    between atoms: C_1  and  O_2
REMARK    2  A    between atoms: O_2  and  C_3
REMARK    3  A    between atoms: C_3  and  CA_5
REMARK    4  A    between atoms: CA_5  and  C_6
REMARK    5  A    between atoms: CA_5  and  N_8
REMARK    6  A    between atoms: C_6  and  O_7
REMARK    7  A    between atoms: C_11  and  O_12
REMARK    8  A    between atoms: O_12  and  C_13
REMARK    9  A    between atoms: C_15  and  N_16
REMARK   10  A    between atoms: N_19  and  C_20
REMARK   11  A    between atoms: C_20  and  C_21
REMARK                            x       y       z     vdW  Elec       q    Type
REMARK                         _______ _______ _______ _____ _____    ______ ____
ROOT
ATOM      1  N   UNL     1      -4.744  13.538  22.481  0.00  0.00    +0.000 N 
ATOM      2  C   UNL     1      -4.679  13.080  21.185  0.00  0.00    +0.000 A 
ATOM      3  N   UNL     1      -5.635  12.311  20.673  0.00  0.00    +0.000 NA
ATOM      4  C   UNL     1      -5.402  11.827  19.455  0.00  0.00    +0.000 A 
ATOM      5  N   UNL     1      -4.266  11.907  18.795  0.00  0.00    +0.000 NA
ATOM      6  C   UNL     1      -3.351  12.574  19.446  0.00  0.00    +0.000 A 
ATOM      7  N   UNL     1      -3.516  13.250  20.580  0.00  0.00    +0.000 NA
ATOM      8  H   UNL     1      -3.863  13.924  22.819  0.00  0.00    +0.000 HD
ENDROOT
BRANCH   6   9
ATOM      9  N   UNL     1      -2.010  11.986  19.348  0.00  0.00    +0.000 NA
ATOM     10  C   UNL     1      -0.903  12.941  18.865  0.00  0.00    +0.000 C 
ATOM     11  C   UNL     1       0.439  12.101  18.779  0.00  0.00    +0.000 C 
ATOM     12  N   UNL     1       0.163  10.560  19.087  0.00  0.00    +0.000 N 
ATOM     13  C   UNL     1      -0.898  10.072  18.078  0.00  0.00    +0.000 C 
ATOM     14  C   UNL     1      -2.179  10.904  18.236  0.00  0.00    +0.000 C 
ATOM     15  C   UNL     1      -0.475  10.438  20.531  0.00  0.00    +0.000 C 
ATOM     16  C   UNL     1      -1.582  11.485  20.722  0.00  0.00    +0.000 C 
BRANCH  12  17
ATOM     17  C   UNL     1       1.405   9.631  19.095  0.00  0.00    +0.000 C 
BRANCH  17  18
ATOM     18  C   UNL     1       1.922   9.125  17.748  0.00  0.00    +0.000 C 
ATOM     19 CL   UNL     1       2.925   7.676  17.921  0.00  0.00    +0.000 Cl
ENDBRANCH  17  18
ENDBRANCH  12  17
ENDBRANCH   6   9
BRANCH   4  20
ATOM     20  O   UNL     1      -6.264  10.925  18.880  0.00  0.00    +0.000 OA
ATOM     21  C   UNL     1      -7.140  10.289  19.797  0.00  0.00    +0.000 C 
ENDBRANCH   4  20
BRANCH   1  22
ATOM     22  CA  UNL     1      -5.419  12.711  23.512  0.00  0.00    +0.000 C 
BRANCH  22  23
ATOM     23  C   UNL     1      -6.751  13.347  23.952  0.00  0.00    +0.000 C 
ATOM     24  O   UNL     1      -7.766  12.723  24.234  0.00  0.00    +0.000 OA
BRANCH  23  26
ATOM     25  C   UNL     1      -7.836  15.415  23.536  0.00  0.00    +0.000 C 
ATOM     26  O   UNL     1      -6.647  14.709  23.915  0.00  0.00    +0.000 OA
ENDBRANCH  23  26
ENDBRANCH  22  23
BRANCH  22  27
ATOM     27  C   UNL     1      -4.547  12.529  24.780  0.00  0.00    +0.000 C 
BRANCH  27  28
ATOM     28  O   UNL     1      -4.035  13.765  25.305  0.00  0.00    +0.000 OA
ATOM     29  H   UNL     1      -3.924  14.359  24.534  0.00  0.00    +0.000 HD
ENDBRANCH  27  28
ENDBRANCH  22  27
ENDBRANCH   1  22
TORSDOF 9
ENDMDL
