MODEL 1
REMARK VINA RESULT:      -7.5      0.000      0.000
REMARK  Name = 
REMARK  4 active torsions:
REMARK  status: ('A' for Active; 'I' for Inactive)
REMARK    1  A    between atoms: C_2  and  C_3
REMARK    2  A    between atoms: C_3  and  O_4
REMARK    3  A    between atoms: O_4  and  C_5
REMARK    4  A    between atoms: C_16  and  C_17
REMARK                            x       y       z     vdW  Elec       q    Type
REMARK                         _______ _______ _______ _____ _____    ______ ____
ROOT
ATOM      1  O   UNL     1       7.841   7.770  17.172  0.00  0.00    +0.000 OA
ATOM      2  C   UNL     1       6.846   7.038  17.117  0.00  0.00    +0.000 C 
ATOM      3  N   UNL     1       5.643   7.575  17.451  0.00  0.00    +0.000 N 
ATOM      4  C   UNL     1       4.455   6.933  17.601  0.00  0.00    +0.000 A 
ATOM      5  N   UNL     1       3.277   7.501  17.716  0.00  0.00    +0.000 NA
ATOM      6  N   UNL     1       2.370   6.481  17.899  0.00  0.00    +0.000 NA
ATOM      7  C   UNL     1       3.064   5.357  17.938  0.00  0.00    +0.000 A 
ATOM      8  O   UNL     1       4.403   5.578  17.723  0.00  0.00    +0.000 OA
ATOM      9  H   UNL     1       5.632   8.571  17.620  0.00  0.00    +0.000 HD
ENDROOT
BRANCH   7  10
ATOM     10  C   UNL     1       2.499   4.073  18.216  0.00  0.00    +0.000 A 
ATOM     11  C   UNL     1       2.969   2.826  17.834  0.00  0.00    +0.000 A 
ATOM     12  C   UNL     1       2.043   1.865  18.305  0.00  0.00    +0.000 A 
ATOM     13  C   UNL     1       1.063   2.573  18.955  0.00  0.00    +0.000 A 
ATOM     14  O   UNL     1       1.329   3.902  18.914  0.00  0.00    +0.000 OA
ENDBRANCH   7  10
BRANCH   2  15
ATOM     15  C   UNL     1       6.963   5.616  16.577  0.00  0.00    +0.000 C 
BRANCH  15  16
ATOM     16  O   UNL     1       7.675   5.575  15.350  0.00  0.00    +0.000 OA
BRANCH  16  17
ATOM     17  C   UNL     1       7.044   4.912  14.330  0.00  0.00    +0.000 A 
ATOM     18  C   UNL     1       7.558   4.728  13.044  0.00  0.00    +0.000 A 
ATOM     19  C   UNL     1       6.819   4.041  12.076  0.00  0.00    +0.000 A 
ATOM     20  C   UNL     1       5.564   3.531  12.400  0.00  0.00    +0.000 A 
ATOM     21 CL   UNL     1       4.652   2.698  11.204  0.00  0.00    +0.000 Cl
ATOM     22  C   UNL     1       5.050   3.690  13.683  0.00  0.00    +0.000 A 
ATOM     23  C   UNL     1       5.796   4.374  14.650  0.00  0.00    +0.000 A 
ENDBRANCH  16  17
ENDBRANCH  15  16
ENDBRANCH   2  15
TORSDOF 4
ENDMDL
MODEL 2
REMARK VINA RESULT:      -7.4      3.885      5.476
REMARK  Name = 
REMARK  4 active torsions:
REMARK  status: ('A' for Active; 'I' for Inactive)
REMARK    1  A    between atoms: C_2  and  C_3
REMARK    2  A    between atoms: C_3  and  O_4
REMARK    3  A    between atoms: O_4  and  C_5
REMARK    4  A    between atoms: C_16  and  C_17
REMARK                            x       y       z     vdW  Elec       q    Type
REMARK                         _______ _______ _______ _____ _____    ______ ____
ROOT
ATOM      1  O   UNL     1       3.677   1.365  18.170  0.00  0.00    +0.000 OA
ATOM      2  C   UNL     1       3.615   2.579  18.393  0.00  0.00    +0.000 C 
ATOM      3  N   UNL     1       2.903   2.991  19.476  0.00  0.00    +0.000 N 
ATOM      4  C   UNL     1       2.581   4.263  19.829  0.00  0.00    +0.000 A 
ATOM      5  N   UNL     1       2.078   4.642  20.981  0.00  0.00    +0.000 NA
ATOM      6  N   UNL     1       1.862   5.999  20.881  0.00  0.00    +0.000 NA
ATOM      7  C   UNL     1       2.198   6.350  19.653  0.00  0.00    +0.000 A 
ATOM      8  O   UNL     1       2.695   5.285  18.939  0.00  0.00    +0.000 OA
ATOM      9  H   UNL     1       2.561   2.262  20.086  0.00  0.00    +0.000 HD
ENDROOT
BRANCH   7  10
ATOM     10  C   UNL     1       2.024   7.663  19.115  0.00  0.00    +0.000 A 
ATOM     11  C   UNL     1       2.497   8.170  17.915  0.00  0.00    +0.000 A 
ATOM     12  C   UNL     1       2.108   9.530  17.851  0.00  0.00    +0.000 A 
ATOM     13  C   UNL     1       1.414   9.779  19.009  0.00  0.00    +0.000 A 
ATOM     14  O   UNL     1       1.351   8.662  19.775  0.00  0.00    +0.000 OA
ENDBRANCH   7  10
BRANCH   2  15
ATOM     15  C   UNL     1       4.414   3.563  17.543  0.00  0.00    +0.000 C 
BRANCH  15  16
ATOM     16  O   UNL     1       5.723   3.758  18.053  0.00  0.00    +0.000 OA
BRANCH  16  17
ATOM     17  C   UNL     1       6.213   5.032  17.933  0.00  0.00    +0.000 A 
ATOM     18  C   UNL     1       5.636   6.053  17.176  0.00  0.00    +0.000 A 
ATOM     19  C   UNL     1       6.232   7.318  17.117  0.00  0.00    +0.000 A 
ATOM     20  C   UNL     1       7.405   7.560  17.826  0.00  0.00    +0.000 A 
ATOM     21 CL   UNL     1       8.143   9.111  17.741  0.00  0.00    +0.000 Cl
ATOM     22  C   UNL     1       7.979   6.557  18.600  0.00  0.00    +0.000 A 
ATOM     23  C   UNL     1       7.377   5.295  18.660  0.00  0.00    +0.000 A 
ENDBRANCH  16  17
ENDBRANCH  15  16
ENDBRANCH   2  15
TORSDOF 4
ENDMDL
MODEL 3
REMARK VINA RESULT:      -7.4      3.994      5.527
REMARK  Name = 
REMARK  4 active torsions:
REMARK  status: ('A' for Active; 'I' for Inactive)
REMARK    1  A    between atoms: C_2  and  C_3
REMARK    2  A    between atoms: C_3  and  O_4
REMARK    3  A    between atoms: O_4  and  C_5
REMARK    4  A    between atoms: C_16  and  C_17
REMARK                            x       y       z     vdW  Elec       q    Type
REMARK                         _______ _______ _______ _____ _____    ______ ____
ROOT
ATOM      1  O   UNL     1       3.929   1.427  18.561  0.00  0.00    +0.000 OA
ATOM      2  C   UNL     1       3.805   2.643  18.746  0.00  0.00    +0.000 C 
ATOM      3  N   UNL     1       2.944   3.054  19.714  0.00  0.00    +0.000 N 
ATOM      4  C   UNL     1       2.545   4.323  19.992  0.00  0.00    +0.000 A 
ATOM      5  N   UNL     1       1.883   4.710  21.057  0.00  0.00    +0.000 NA
ATOM      6  N   UNL     1       1.646   6.057  20.898  0.00  0.00    +0.000 NA
ATOM      7  C   UNL     1       2.133   6.394  19.717  0.00  0.00    +0.000 A 
ATOM      8  O   UNL     1       2.749   5.331  19.101  0.00  0.00    +0.000 OA
ATOM      9  H   UNL     1       2.543   2.328  20.291  0.00  0.00    +0.000 HD
ENDROOT
BRANCH   7  10
ATOM     10  C   UNL     1       1.997   7.691  19.131  0.00  0.00    +0.000 A 
ATOM     11  C   UNL     1       2.490   8.140  17.916  0.00  0.00    +0.000 A 
ATOM     12  C   UNL     1       2.137   9.506  17.799  0.00  0.00    +0.000 A 
ATOM     13  C   UNL     1       1.445   9.817  18.943  0.00  0.00    +0.000 A 
ATOM     14  O   UNL     1       1.348   8.730  19.749  0.00  0.00    +0.000 OA
ENDBRANCH   7  10
BRANCH   2  15
ATOM     15  C   UNL     1       4.683   3.632  17.986  0.00  0.00    +0.000 C 
BRANCH  15  16
ATOM     16  O   UNL     1       5.930   3.834  18.633  0.00  0.00    +0.000 OA
BRANCH  16  17
ATOM     17  C   UNL     1       6.505   5.061  18.423  0.00  0.00    +0.000 A 
ATOM     18  C   UNL     1       7.662   5.530  19.049  0.00  0.00    +0.000 A 
ATOM     19  C   UNL     1       8.154   6.808  18.765  0.00  0.00    +0.000 A 
ATOM     20  C   UNL     1       7.488   7.615  17.845  0.00  0.00    +0.000 A 
ATOM     21 CL   UNL     1       8.088   9.190  17.508  0.00  0.00    +0.000 Cl
ATOM     22  C   UNL     1       6.347   7.151  17.200  0.00  0.00    +0.000 A 
ATOM     23  C   UNL     1       5.860   5.869  17.484  0.00  0.00    +0.000 A 
ENDBRANCH  16  17
ENDBRANCH  15  16
ENDBRANCH   2  15
TORSDOF 4
ENDMDL
MODEL 4
REMARK VINA RESULT:      -7.3      1.429      1.592
REMARK  Name = 
REMARK  4 active torsions:
REMARK  status: ('A' for Active; 'I' for Inactive)
REMARK    1  A    between atoms: C_2  and  C_3
REMARK    2  A    between atoms: C_3  and  O_4
REMARK    3  A    between atoms: O_4  and  C_5
REMARK    4  A    between atoms: C_16  and  C_17
REMARK                            x       y       z     vdW  Elec       q    Type
REMARK                         _______ _______ _______ _____ _____    ______ ____
ROOT
ATOM      1  O   UNL     1       7.822   7.443  16.756  0.00  0.00    +0.000 OA
ATOM      2  C   UNL     1       6.910   6.712  17.158  0.00  0.00    +0.000 C 
ATOM      3  N   UNL     1       5.656   7.234  17.217  0.00  0.00    +0.000 N 
ATOM      4  C   UNL     1       4.542   6.671  17.753  0.00  0.00    +0.000 A 
ATOM      5  N   UNL     1       3.311   7.103  17.609  0.00  0.00    +0.000 NA
ATOM      6  N   UNL     1       2.516   6.267  18.362  0.00  0.00    +0.000 NA
ATOM      7  C   UNL     1       3.324   5.410  18.960  0.00  0.00    +0.000 A 
ATOM      8  O   UNL     1       4.633   5.599  18.586  0.00  0.00    +0.000 OA
ATOM      9  H   UNL     1       5.540   8.157  16.824  0.00  0.00    +0.000 HD
ENDROOT
BRANCH   7  10
ATOM     10  C   UNL     1       2.896   4.435  19.916  0.00  0.00    +0.000 A 
ATOM     11  C   UNL     1       1.845   4.517  20.815  0.00  0.00    +0.000 A 
ATOM     12  C   UNL     1       1.852   3.325  21.579  0.00  0.00    +0.000 A 
ATOM     13  C   UNL     1       2.900   2.578  21.103  0.00  0.00    +0.000 A 
ATOM     14  O   UNL     1       3.532   3.232  20.096  0.00  0.00    +0.000 OA
ENDBRANCH   7  10
BRANCH   2  15
ATOM     15  C   UNL     1       7.177   5.240  17.460  0.00  0.00    +0.000 C 
BRANCH  15  16
ATOM     16  O   UNL     1       7.892   4.608  16.411  0.00  0.00    +0.000 OA
BRANCH  16  17
ATOM     17  C   UNL     1       7.172   4.379  15.268  0.00  0.00    +0.000 A 
ATOM     18  C   UNL     1       7.581   4.706  13.973  0.00  0.00    +0.000 A 
ATOM     19  C   UNL     1       6.755   4.434  12.877  0.00  0.00    +0.000 A 
ATOM     20  C   UNL     1       5.520   3.824  13.080  0.00  0.00    +0.000 A 
ATOM     21 CL   UNL     1       4.502   3.502  11.732  0.00  0.00    +0.000 Cl
ATOM     22  C   UNL     1       5.110   3.474  14.362  0.00  0.00    +0.000 A 
ATOM     23  C   UNL     1       5.941   3.744  15.455  0.00  0.00    +0.000 A 
ENDBRANCH  16  17
ENDBRANCH  15  16
ENDBRANCH   2  15
TORSDOF 4
ENDMDL
MODEL 5
REMARK VINA RESULT:      -7.2      3.855      7.373
REMARK  Name = 
REMARK  4 active torsions:
REMARK  status: ('A' for Active; 'I' for Inactive)
REMARK    1  A    between atoms: C_2  and  C_3
REMARK    2  A    between atoms: C_3  and  O_4
REMARK    3  A    between atoms: O_4  and  C_5
REMARK    4  A    between atoms: C_16  and  C_17
REMARK                            x       y       z     vdW  Elec       q    Type
REMARK                         _______ _______ _______ _____ _____    ______ ____
ROOT
ATOM      1  O   UNL     1       2.357   2.749  17.748  0.00  0.00    +0.000 OA
ATOM      2  C   UNL     1       3.169   3.655  17.530  0.00  0.00    +0.000 C 
ATOM      3  N   UNL     1       4.373   3.315  16.998  0.00  0.00    +0.000 N 
ATOM      4  C   UNL     1       5.458   4.111  16.812  0.00  0.00    +0.000 A 
ATOM      5  N   UNL     1       6.525   3.813  16.108  0.00  0.00    +0.000 NA
ATOM      6  N   UNL     1       7.386   4.881  16.237  0.00  0.00    +0.000 NA
ATOM      7  C   UNL     1       6.807   5.740  17.057  0.00  0.00    +0.000 A 
ATOM      8  O   UNL     1       5.556   5.317  17.436  0.00  0.00    +0.000 OA
ATOM      9  H   UNL     1       4.479   2.351  16.717  0.00  0.00    +0.000 HD
ENDROOT
BRANCH   7  10
ATOM     10  C   UNL     1       7.424   6.940  17.530  0.00  0.00    +0.000 A 
ATOM     11  C   UNL     1       8.229   7.110  18.645  0.00  0.00    +0.000 A 
ATOM     12  C   UNL     1       8.556   8.486  18.721  0.00  0.00    +0.000 A 
ATOM     13  C   UNL     1       7.941   9.080  17.648  0.00  0.00    +0.000 A 
ATOM     14  O   UNL     1       7.262   8.159  16.919  0.00  0.00    +0.000 OA
ENDBRANCH   7  10
BRANCH   2  15
ATOM     15  C   UNL     1       2.775   5.113  17.747  0.00  0.00    +0.000 C 
BRANCH  15  16
ATOM     16  O   UNL     1       2.772   5.459  19.123  0.00  0.00    +0.000 OA
BRANCH  16  17
ATOM     17  C   UNL     1       2.260   6.697  19.412  0.00  0.00    +0.000 A 
ATOM     18  C   UNL     1       1.756   7.095  20.653  0.00  0.00    +0.000 A 
ATOM     19  C   UNL     1       1.248   8.386  20.832  0.00  0.00    +0.000 A 
ATOM     20  C   UNL     1       1.254   9.283  19.766  0.00  0.00    +0.000 A 
ATOM     21 CL   UNL     1       0.616  10.864  19.985  0.00  0.00    +0.000 Cl
ATOM     22  C   UNL     1       1.772   8.905  18.532  0.00  0.00    +0.000 A 
ATOM     23  C   UNL     1       2.283   7.614  18.359  0.00  0.00    +0.000 A 
ENDBRANCH  16  17
ENDBRANCH  15  16
ENDBRANCH   2  15
TORSDOF 4
ENDMDL
MODEL 6
REMARK VINA RESULT:      -7.2      3.677      5.428
REMARK  Name = 
REMARK  4 active torsions:
REMARK  status: ('A' for Active; 'I' for Inactive)
REMARK    1  A    between atoms: C_2  and  C_3
REMARK    2  A    between atoms: C_3  and  O_4
REMARK    3  A    between atoms: O_4  and  C_5
REMARK    4  A    between atoms: C_16  and  C_17
REMARK                            x       y       z     vdW  Elec       q    Type
REMARK                         _______ _______ _______ _____ _____    ______ ____
ROOT
ATOM      1  O   UNL     1       2.579   1.549  17.977  0.00  0.00    +0.000 OA
ATOM      2  C   UNL     1       2.694   2.766  18.160  0.00  0.00    +0.000 C 
ATOM      3  N   UNL     1       2.278   3.272  19.351  0.00  0.00    +0.000 N 
ATOM      4  C   UNL     1       2.175   4.578  19.713  0.00  0.00    +0.000 A 
ATOM      5  N   UNL     1       1.974   5.030  20.929  0.00  0.00    +0.000 NA
ATOM      6  N   UNL     1       1.886   6.400  20.823  0.00  0.00    +0.000 NA
ATOM      7  C   UNL     1       1.986   6.691  19.539  0.00  0.00    +0.000 A 
ATOM      8  O   UNL     1       2.203   5.567  18.779  0.00  0.00    +0.000 OA
ATOM      9  H   UNL     1       2.000   2.596  20.049  0.00  0.00    +0.000 HD
ENDROOT
BRANCH   7  10
ATOM     10  C   UNL     1       1.839   8.007  18.998  0.00  0.00    +0.000 A 
ATOM     11  C   UNL     1       2.461   8.553  17.886  0.00  0.00    +0.000 A 
ATOM     12  C   UNL     1       2.032   9.898  17.783  0.00  0.00    +0.000 A 
ATOM     13  C   UNL     1       1.169  10.100  18.831  0.00  0.00    +0.000 A 
ATOM     14  O   UNL     1       1.039   8.967  19.566  0.00  0.00    +0.000 OA
ENDBRANCH   7  10
BRANCH   2  15
ATOM     15  C   UNL     1       3.391   3.640  17.121  0.00  0.00    +0.000 C 
BRANCH  15  16
ATOM     16  O   UNL     1       4.790   3.406  17.089  0.00  0.00    +0.000 OA
BRANCH  16  17
ATOM     17  C   UNL     1       5.572   4.516  17.274  0.00  0.00    +0.000 A 
ATOM     18  C   UNL     1       6.738   4.567  18.042  0.00  0.00    +0.000 A 
ATOM     19  C   UNL     1       7.453   5.762  18.169  0.00  0.00    +0.000 A 
ATOM     20  C   UNL     1       7.004   6.907  17.516  0.00  0.00    +0.000 A 
ATOM     21 CL   UNL     1       7.879   8.377  17.684  0.00  0.00    +0.000 Cl
ATOM     22  C   UNL     1       5.857   6.864  16.731  0.00  0.00    +0.000 A 
ATOM     23  C   UNL     1       5.146   5.665  16.603  0.00  0.00    +0.000 A 
ENDBRANCH  16  17
ENDBRANCH  15  16
ENDBRANCH   2  15
TORSDOF 4
ENDMDL
MODEL 7
REMARK VINA RESULT:      -7.1      1.463      1.841
REMARK  Name = 
REMARK  4 active torsions:
REMARK  status: ('A' for Active; 'I' for Inactive)
REMARK    1  A    between atoms: C_2  and  C_3
REMARK    2  A    between atoms: C_3  and  O_4
REMARK    3  A    between atoms: O_4  and  C_5
REMARK    4  A    between atoms: C_16  and  C_17
REMARK                            x       y       z     vdW  Elec       q    Type
REMARK                         _______ _______ _______ _____ _____    ______ ____
ROOT
ATOM      1  O   UNL     1       7.700   7.781  16.983  0.00  0.00    +0.000 OA
ATOM      2  C   UNL     1       6.874   6.948  17.372  0.00  0.00    +0.000 C 
ATOM      3  N   UNL     1       5.556   7.270  17.285  0.00  0.00    +0.000 N 
ATOM      4  C   UNL     1       4.494   6.581  17.777  0.00  0.00    +0.000 A 
ATOM      5  N   UNL     1       3.231   6.804  17.499  0.00  0.00    +0.000 NA
ATOM      6  N   UNL     1       2.504   5.912  18.255  0.00  0.00    +0.000 NA
ATOM      7  C   UNL     1       3.371   5.237  18.988  0.00  0.00    +0.000 A 
ATOM      8  O   UNL     1       4.666   5.600  18.704  0.00  0.00    +0.000 OA
ATOM      9  H   UNL     1       5.341   8.133  16.806  0.00  0.00    +0.000 HD
ENDROOT
BRANCH   7  10
ATOM     10  C   UNL     1       3.008   4.280  19.987  0.00  0.00    +0.000 A 
ATOM     11  C   UNL     1       3.381   2.948  20.076  0.00  0.00    +0.000 A 
ATOM     12  C   UNL     1       2.730   2.404  21.210  0.00  0.00    +0.000 A 
ATOM     13  C   UNL     1       2.002   3.432  21.755  0.00  0.00    +0.000 A 
ATOM     14  O   UNL     1       2.166   4.568  21.032  0.00  0.00    +0.000 OA
ENDBRANCH   7  10
BRANCH   2  15
ATOM     15  C   UNL     1       7.328   5.562  17.821  0.00  0.00    +0.000 C 
BRANCH  15  16
ATOM     16  O   UNL     1       7.950   4.844  16.766  0.00  0.00    +0.000 OA
BRANCH  16  17
ATOM     17  C   UNL     1       7.125   4.502  15.727  0.00  0.00    +0.000 A 
ATOM     18  C   UNL     1       5.896   3.851  15.849  0.00  0.00    +0.000 A 
ATOM     19  C   UNL     1       5.140   3.541  14.714  0.00  0.00    +0.000 A 
ATOM     20  C   UNL     1       5.615   3.893  13.453  0.00  0.00    +0.000 A 
ATOM     21 CL   UNL     1       4.690   3.500  12.058  0.00  0.00    +0.000 Cl
ATOM     22  C   UNL     1       6.827   4.561  13.319  0.00  0.00    +0.000 A 
ATOM     23  C   UNL     1       7.578   4.873  14.458  0.00  0.00    +0.000 A 
ENDBRANCH  16  17
ENDBRANCH  15  16
ENDBRANCH   2  15
TORSDOF 4
ENDMDL
MODEL 8
REMARK VINA RESULT:      -7.1      3.420      6.811
REMARK  Name = 
REMARK  4 active torsions:
REMARK  status: ('A' for Active; 'I' for Inactive)
REMARK    1  A    between atoms: C_2  and  C_3
REMARK    2  A    between atoms: C_3  and  O_4
REMARK    3  A    between atoms: O_4  and  C_5
REMARK    4  A    between atoms: C_16  and  C_17
REMARK                            x       y       z     vdW  Elec       q    Type
REMARK                         _______ _______ _______ _____ _____    ______ ____
ROOT
ATOM      1  O   UNL     1       5.283   5.708  19.031  0.00  0.00    +0.000 OA
ATOM      2  C   UNL     1       5.503   5.105  17.975  0.00  0.00    +0.000 C 
ATOM      3  N   UNL     1       6.387   5.655  17.101  0.00  0.00    +0.000 N 
ATOM      4  C   UNL     1       6.671   5.250  15.836  0.00  0.00    +0.000 A 
ATOM      5  N   UNL     1       7.672   5.668  15.096  0.00  0.00    +0.000 NA
ATOM      6  N   UNL     1       7.544   5.037  13.878  0.00  0.00    +0.000 NA
ATOM      7  C   UNL     1       6.440   4.315  13.937  0.00  0.00    +0.000 A 
ATOM      8  O   UNL     1       5.851   4.387  15.177  0.00  0.00    +0.000 OA
ATOM      9  H   UNL     1       6.885   6.471  17.427  0.00  0.00    +0.000 HD
ENDROOT
BRANCH   7  10
ATOM     10  C   UNL     1       5.896   3.586  12.833  0.00  0.00    +0.000 A 
ATOM     11  C   UNL     1       4.644   3.713  12.253  0.00  0.00    +0.000 A 
ATOM     12  C   UNL     1       4.556   2.741  11.227  0.00  0.00    +0.000 A 
ATOM     13  C   UNL     1       5.758   2.079  11.230  0.00  0.00    +0.000 A 
ATOM     14  O   UNL     1       6.576   2.582  12.189  0.00  0.00    +0.000 OA
ENDBRANCH   7  10
BRANCH   2  15
ATOM     15  C   UNL     1       4.887   3.731  17.728  0.00  0.00    +0.000 C 
BRANCH  15  16
ATOM     16  O   UNL     1       3.474   3.800  17.616  0.00  0.00    +0.000 OA
BRANCH  16  17
ATOM     17  C   UNL     1       2.782   3.485  18.756  0.00  0.00    +0.000 A 
ATOM     18  C   UNL     1       1.436   3.776  18.993  0.00  0.00    +0.000 A 
ATOM     19  C   UNL     1       0.834   3.414  20.203  0.00  0.00    +0.000 A 
ATOM     20  C   UNL     1       1.581   2.752  21.174  0.00  0.00    +0.000 A 
ATOM     21 CL   UNL     1       0.841   2.321  22.665  0.00  0.00    +0.000 Cl
ATOM     22  C   UNL     1       2.915   2.438  20.942  0.00  0.00    +0.000 A 
ATOM     23  C   UNL     1       3.513   2.798  19.728  0.00  0.00    +0.000 A 
ENDBRANCH  16  17
ENDBRANCH  15  16
ENDBRANCH   2  15
TORSDOF 4
ENDMDL
MODEL 9
REMARK VINA RESULT:      -7.1      3.380      6.484
REMARK  Name = 
REMARK  4 active torsions:
REMARK  status: ('A' for Active; 'I' for Inactive)
REMARK    1  A    between atoms: C_2  and  C_3
REMARK    2  A    between atoms: C_3  and  O_4
REMARK    3  A    between atoms: O_4  and  C_5
REMARK    4  A    between atoms: C_16  and  C_17
REMARK                            x       y       z     vdW  Elec       q    Type
REMARK                         _______ _______ _______ _____ _____    ______ ____
ROOT
ATOM      1  O   UNL     1       6.703   6.566  17.994  0.00  0.00    +0.000 OA
ATOM      2  C   UNL     1       6.656   5.784  17.038  0.00  0.00    +0.000 C 
ATOM      3  N   UNL     1       7.396   6.080  15.937  0.00  0.00    +0.000 N 
ATOM      4  C   UNL     1       7.389   5.452  14.732  0.00  0.00    +0.000 A 
ATOM      5  N   UNL     1       8.258   5.624  13.764  0.00  0.00    +0.000 NA
ATOM      6  N   UNL     1       7.836   4.832  12.719  0.00  0.00    +0.000 NA
ATOM      7  C   UNL     1       6.705   4.268  13.100  0.00  0.00    +0.000 A 
ATOM      8  O   UNL     1       6.380   4.603  14.393  0.00  0.00    +0.000 OA
ATOM      9  H   UNL     1       8.020   6.870  16.020  0.00  0.00    +0.000 HD
ENDROOT
BRANCH   7  10
ATOM     10  C   UNL     1       5.891   3.448  12.257  0.00  0.00    +0.000 A 
ATOM     11  C   UNL     1       4.595   3.680  11.825  0.00  0.00    +0.000 A 
ATOM     12  C   UNL     1       4.203   2.561  11.052  0.00  0.00    +0.000 A 
ATOM     13  C   UNL     1       5.280   1.710  11.047  0.00  0.00    +0.000 A 
ATOM     14  O   UNL     1       6.305   2.236  11.764  0.00  0.00    +0.000 OA
ENDBRANCH   7  10
BRANCH   2  15
ATOM     15  C   UNL     1       5.882   4.474  17.151  0.00  0.00    +0.000 C 
BRANCH  15  16
ATOM     16  O   UNL     1       4.487   4.670  16.979  0.00  0.00    +0.000 OA
BRANCH  16  17
ATOM     17  C   UNL     1       3.709   4.295  18.043  0.00  0.00    +0.000 A 
ATOM     18  C   UNL     1       2.526   4.922  18.442  0.00  0.00    +0.000 A 
ATOM     19  C   UNL     1       1.817   4.458  19.554  0.00  0.00    +0.000 A 
ATOM     20  C   UNL     1       2.290   3.357  20.263  0.00  0.00    +0.000 A 
ATOM     21 CL   UNL     1       1.423   2.797  21.638  0.00  0.00    +0.000 Cl
ATOM     22  C   UNL     1       3.455   2.711  19.863  0.00  0.00    +0.000 A 
ATOM     23  C   UNL     1       4.159   3.176  18.747  0.00  0.00    +0.000 A 
ENDBRANCH  16  17
ENDBRANCH  15  16
ENDBRANCH   2  15
TORSDOF 4
ENDMDL
