MODEL 1
REMARK VINA RESULT:      -6.8      0.000      0.000
REMARK  Name = 
REMARK  5 active torsions:
REMARK  status: ('A' for Active; 'I' for Inactive)
REMARK    1  A    between atoms: C_1  and  C_2
REMARK    2  A    between atoms: C_14  and  C_15
REMARK    3  A    between atoms: C_20  and  C_21
REMARK    4  A    between atoms: C_20  and  C_22
REMARK    5  A    between atoms: N_23  and  C_24
REMARK                            x       y       z     vdW  Elec       q    Type
REMARK                         _______ _______ _______ _____ _____    ______ ____
ROOT
ATOM      1  C   UNL     1       1.912   2.434  21.871  0.00  0.00    +0.000 C 
ATOM      2  C   UNL     1       1.837   3.763  21.128  0.00  0.00    +0.000 C 
ATOM      3  O   UNL     1       0.713   3.701  20.239  0.00  0.00    +0.000 OA
ATOM      4  C   UNL     1       1.137   3.316  18.995  0.00  0.00    +0.000 C 
ATOM      5  O   UNL     1       0.376   3.120  18.056  0.00  0.00    +0.000 OA
ATOM      6  C   UNL     1       2.654   3.268  18.968  0.00  0.00    +0.000 C 
ATOM      7  C   UNL     1       3.263   3.753  17.694  0.00  0.00    +0.000 C 
ATOM      8  C   UNL     1       3.979   4.884  17.576  0.00  0.00    +0.000 C 
ATOM      9  C   UNL     1       4.744   5.217  16.320  0.00  0.00    +0.000 C 
ATOM     10  C   UNL     1       6.239   5.277  16.643  0.00  0.00    +0.000 C 
ATOM     11  C   UNL     1       6.534   6.211  17.819  0.00  0.00    +0.000 C 
ATOM     12  C   UNL     1       5.683   5.877  19.056  0.00  0.00    +0.000 C 
ATOM     13  C   UNL     1       4.182   5.864  18.707  0.00  0.00    +0.000 C 
ATOM     14  C   UNL     1       3.265   5.611  19.939  0.00  0.00    +0.000 C 
ATOM     15  C   UNL     1       3.021   4.078  20.210  0.00  0.00    +0.000 C 
ENDROOT
BRANCH  14  16
ATOM     16  C   UNL     1       1.998   6.513  19.910  0.00  0.00    +0.000 C 
ATOM     17  C   UNL     1       1.933   7.705  18.920  0.00  0.00    +0.000 C 
ATOM     18  C   UNL     1       1.688   8.870  19.821  0.00  0.00    +0.000 C 
ATOM     19  C   UNL     1       0.938  10.145  19.590  0.00  0.00    +0.000 C 
ATOM     20  C   UNL     1       0.855  10.674  21.050  0.00  0.00    +0.000 C 
ATOM     21  C   UNL     1       0.971   9.424  22.010  0.00  0.00    +0.000 C 
ATOM     22  C   UNL     1      -0.174   9.342  23.026  0.00  0.00    +0.000 C 
ATOM     23  C   UNL     1       2.305   9.436  22.785  0.00  0.00    +0.000 C 
ATOM     24  N   UNL     1       0.937   8.266  20.981  0.00  0.00    +0.000 N 
ATOM     25  C   UNL     1      -0.510   7.807  20.663  0.00  0.00    +0.000 C 
ATOM     26  O   UNL     1       1.723   7.079  21.253  0.00  0.00    +0.000 OA
ENDBRANCH  14  16
TORSDOF 1
ENDMDL
MODEL 2
REMARK VINA RESULT:      -6.6      8.783     11.340
REMARK  Name = 
REMARK  5 active torsions:
REMARK  status: ('A' for Active; 'I' for Inactive)
REMARK    1  A    between atoms: C_1  and  C_2
REMARK    2  A    between atoms: C_14  and  C_15
REMARK    3  A    between atoms: C_20  and  C_21
REMARK    4  A    between atoms: C_20  and  C_22
REMARK    5  A    between atoms: N_23  and  C_24
REMARK                            x       y       z     vdW  Elec       q    Type
REMARK                         _______ _______ _______ _____ _____    ______ ____
ROOT
ATOM      1  C   UNL     1      11.897  17.203  17.733  0.00  0.00    +0.000 C 
ATOM      2  C   UNL     1      10.597  16.684  18.339  0.00  0.00    +0.000 C 
ATOM      3  O   UNL     1      10.556  17.109  19.708  0.00  0.00    +0.000 OA
ATOM      4  C   UNL     1      11.037  16.108  20.510  0.00  0.00    +0.000 C 
ATOM      5  O   UNL     1      11.175  16.224  21.721  0.00  0.00    +0.000 OA
ATOM      6  C   UNL     1      11.270  14.859  19.679  0.00  0.00    +0.000 C 
ATOM      7  C   UNL     1      10.910  13.585  20.369  0.00  0.00    +0.000 C 
ATOM      8  C   UNL     1       9.880  12.796  20.021  0.00  0.00    +0.000 C 
ATOM      9  C   UNL     1       9.690  11.423  20.613  0.00  0.00    +0.000 C 
ATOM     10  C   UNL     1       9.799  10.376  19.502  0.00  0.00    +0.000 C 
ATOM     11  C   UNL     1       8.864  10.684  18.330  0.00  0.00    +0.000 C 
ATOM     12  C   UNL     1       9.045  12.117  17.802  0.00  0.00    +0.000 C 
ATOM     13  C   UNL     1       8.889  13.149  18.936  0.00  0.00    +0.000 C 
ATOM     14  C   UNL     1       8.983  14.623  18.446  0.00  0.00    +0.000 C 
ATOM     15  C   UNL     1      10.463  15.161  18.417  0.00  0.00    +0.000 C 
ENDROOT
BRANCH  14  16
ATOM     16  C   UNL     1       7.936  15.532  19.150  0.00  0.00    +0.000 C 
ATOM     17  C   UNL     1       7.498  15.208  20.603  0.00  0.00    +0.000 C 
ATOM     18  C   UNL     1       6.017  15.068  20.478  0.00  0.00    +0.000 C 
ATOM     19  C   UNL     1       4.919  15.368  21.452  0.00  0.00    +0.000 C 
ATOM     20  C   UNL     1       3.690  15.279  20.503  0.00  0.00    +0.000 C 
ATOM     21  C   UNL     1       4.204  15.574  19.039  0.00  0.00    +0.000 C 
ATOM     22  C   UNL     1       3.414  16.686  18.340  0.00  0.00    +0.000 C 
ATOM     23  C   UNL     1       4.138  14.308  18.158  0.00  0.00    +0.000 C 
ATOM     24  N   UNL     1       5.673  15.976  19.324  0.00  0.00    +0.000 N 
ATOM     25  C   UNL     1       5.820  17.492  19.611  0.00  0.00    +0.000 C 
ATOM     26  O   UNL     1       6.687  15.613  18.353  0.00  0.00    +0.000 OA
ENDBRANCH  14  16
TORSDOF 1
ENDMDL
MODEL 3
REMARK VINA RESULT:      -6.5      2.141      5.919
REMARK  Name = 
REMARK  5 active torsions:
REMARK  status: ('A' for Active; 'I' for Inactive)
REMARK    1  A    between atoms: C_1  and  C_2
REMARK    2  A    between atoms: C_14  and  C_15
REMARK    3  A    between atoms: C_20  and  C_21
REMARK    4  A    between atoms: C_20  and  C_22
REMARK    5  A    between atoms: N_23  and  C_24
REMARK                            x       y       z     vdW  Elec       q    Type
REMARK                         _______ _______ _______ _____ _____    ______ ____
ROOT
ATOM      1  C   UNL     1       0.424   2.111  18.725  0.00  0.00    +0.000 C 
ATOM      2  C   UNL     1       1.610   3.069  18.706  0.00  0.00    +0.000 C 
ATOM      3  O   UNL     1       2.456   2.735  19.814  0.00  0.00    +0.000 OA
ATOM      4  C   UNL     1       2.147   3.536  20.882  0.00  0.00    +0.000 C 
ATOM      5  O   UNL     1       2.673   3.423  21.982  0.00  0.00    +0.000 OA
ATOM      6  C   UNL     1       1.150   4.596  20.449  0.00  0.00    +0.000 C 
ATOM      7  C   UNL     1       1.378   5.939  21.058  0.00  0.00    +0.000 C 
ATOM      8  C   UNL     1       1.788   7.023  20.378  0.00  0.00    +0.000 C 
ATOM      9  C   UNL     1       1.798   8.398  20.997  0.00  0.00    +0.000 C 
ATOM     10  C   UNL     1       0.827   9.301  20.234  0.00  0.00    +0.000 C 
ATOM     11  C   UNL     1       1.100   9.294  18.727  0.00  0.00    +0.000 C 
ATOM     12  C   UNL     1       1.147   7.868  18.152  0.00  0.00    +0.000 C 
ATOM     13  C   UNL     1       2.163   6.996  18.915  0.00  0.00    +0.000 C 
ATOM     14  C   UNL     1       2.313   5.564  18.324  0.00  0.00    +0.000 C 
ATOM     15  C   UNL     1       1.273   4.546  18.926  0.00  0.00    +0.000 C 
ENDROOT
BRANCH  14  16
ATOM     16  C   UNL     1       3.797   5.100  18.307  0.00  0.00    +0.000 C 
ATOM     17  C   UNL     1       4.858   5.907  19.102  0.00  0.00    +0.000 C 
ATOM     18  C   UNL     1       5.857   6.263  18.052  0.00  0.00    +0.000 C 
ATOM     19  C   UNL     1       7.340   6.459  18.138  0.00  0.00    +0.000 C 
ATOM     20  C   UNL     1       7.693   6.482  16.623  0.00  0.00    +0.000 C 
ATOM     21  C   UNL     1       6.558   5.687  15.864  0.00  0.00    +0.000 C 
ATOM     22  C   UNL     1       7.108   4.576  14.961  0.00  0.00    +0.000 C 
ATOM     23  C   UNL     1       5.697   6.631  14.998  0.00  0.00    +0.000 C 
ATOM     24  N   UNL     1       5.744   5.133  17.060  0.00  0.00    +0.000 N 
ATOM     25  C   UNL     1       6.284   3.766  17.553  0.00  0.00    +0.000 C 
ATOM     26  O   UNL     1       4.306   5.011  16.917  0.00  0.00    +0.000 OA
ENDBRANCH  14  16
TORSDOF 1
ENDMDL
MODEL 4
REMARK VINA RESULT:      -6.4      6.441      9.534
REMARK  Name = 
REMARK  5 active torsions:
REMARK  status: ('A' for Active; 'I' for Inactive)
REMARK    1  A    between atoms: C_1  and  C_2
REMARK    2  A    between atoms: C_14  and  C_15
REMARK    3  A    between atoms: C_20  and  C_21
REMARK    4  A    between atoms: C_20  and  C_22
REMARK    5  A    between atoms: N_23  and  C_24
REMARK                            x       y       z     vdW  Elec       q    Type
REMARK                         _______ _______ _______ _____ _____    ______ ____
ROOT
ATOM      1  C   UNL     1       0.342  17.079  19.390  0.00  0.00    +0.000 C 
ATOM      2  C   UNL     1      -0.315  15.981  20.220  0.00  0.00    +0.000 C 
ATOM      3  O   UNL     1       0.463  15.813  21.412  0.00  0.00    +0.000 OA
ATOM      4  C   UNL     1       1.359  14.792  21.231  0.00  0.00    +0.000 C 
ATOM      5  O   UNL     1       2.194  14.474  22.068  0.00  0.00    +0.000 OA
ATOM      6  C   UNL     1       1.082  14.103  19.907  0.00  0.00    +0.000 C 
ATOM      7  C   UNL     1       1.248  12.619  19.940  0.00  0.00    +0.000 C 
ATOM      8  C   UNL     1       0.239  11.739  19.828  0.00  0.00    +0.000 C 
ATOM      9  C   UNL     1       0.485  10.261  19.656  0.00  0.00    +0.000 C 
ATOM     10  C   UNL     1      -0.065   9.814  18.300  0.00  0.00    +0.000 C 
ATOM     11  C   UNL     1      -1.526  10.230  18.108  0.00  0.00    +0.000 C 
ATOM     12  C   UNL     1      -1.741  11.731  18.359  0.00  0.00    +0.000 C 
ATOM     13  C   UNL     1      -1.214  12.141  19.748  0.00  0.00    +0.000 C 
ATOM     14  C   UNL     1      -1.478  13.636  20.091  0.00  0.00    +0.000 C 
ATOM     15  C   UNL     1      -0.331  14.588  19.584  0.00  0.00    +0.000 C 
ENDROOT
BRANCH  14  16
ATOM     16  C   UNL     1      -1.918  13.819  21.571  0.00  0.00    +0.000 C 
ATOM     17  C   UNL     1      -2.032  12.576  22.493  0.00  0.00    +0.000 C 
ATOM     18  C   UNL     1      -3.445  12.644  22.966  0.00  0.00    +0.000 C 
ATOM     19  C   UNL     1      -4.067  12.212  24.259  0.00  0.00    +0.000 C 
ATOM     20  C   UNL     1      -5.459  12.893  24.125  0.00  0.00    +0.000 C 
ATOM     21  C   UNL     1      -5.290  14.120  23.145  0.00  0.00    +0.000 C 
ATOM     22  C   UNL     1      -5.807  15.436  23.738  0.00  0.00    +0.000 C 
ATOM     23  C   UNL     1      -6.022  13.873  21.809  0.00  0.00    +0.000 C 
ATOM     24  N   UNL     1      -3.754  14.121  22.945  0.00  0.00    +0.000 N 
ATOM     25  C   UNL     1      -3.023  14.963  24.022  0.00  0.00    +0.000 C 
ATOM     26  O   UNL     1      -3.227  14.510  21.651  0.00  0.00    +0.000 OA
ENDBRANCH  14  16
TORSDOF 1
ENDMDL
MODEL 5
REMARK VINA RESULT:      -6.2      7.663     11.289
REMARK  Name = 
REMARK  5 active torsions:
REMARK  status: ('A' for Active; 'I' for Inactive)
REMARK    1  A    between atoms: C_1  and  C_2
REMARK    2  A    between atoms: C_14  and  C_15
REMARK    3  A    between atoms: C_20  and  C_21
REMARK    4  A    between atoms: C_20  and  C_22
REMARK    5  A    between atoms: N_23  and  C_24
REMARK                            x       y       z     vdW  Elec       q    Type
REMARK                         _______ _______ _______ _____ _____    ______ ____
ROOT
ATOM      1  C   UNL     1      -7.032  12.611  17.235  0.00  0.00    +0.000 C 
ATOM      2  C   UNL     1      -6.061  12.517  18.407  0.00  0.00    +0.000 C 
ATOM      3  O   UNL     1      -5.857  11.127  18.692  0.00  0.00    +0.000 OA
ATOM      4  C   UNL     1      -6.709  10.737  19.692  0.00  0.00    +0.000 C 
ATOM      5  O   UNL     1      -6.793   9.583  20.092  0.00  0.00    +0.000 OA
ATOM      6  C   UNL     1      -7.427  11.953  20.249  0.00  0.00    +0.000 C 
ATOM      7  C   UNL     1      -7.623  11.927  21.729  0.00  0.00    +0.000 C 
ATOM      8  C   UNL     1      -7.003  12.748  22.592  0.00  0.00    +0.000 C 
ATOM      9  C   UNL     1      -7.394  12.820  24.047  0.00  0.00    +0.000 C 
ATOM     10  C   UNL     1      -7.916  14.224  24.360  0.00  0.00    +0.000 C 
ATOM     11  C   UNL     1      -6.931  15.312  23.924  0.00  0.00    +0.000 C 
ATOM     12  C   UNL     1      -6.508  15.160  22.453  0.00  0.00    +0.000 C 
ATOM     13  C   UNL     1      -5.950  13.749  22.181  0.00  0.00    +0.000 C 
ATOM     14  C   UNL     1      -5.431  13.562  20.726  0.00  0.00    +0.000 C 
ATOM     15  C   UNL     1      -6.561  13.100  19.731  0.00  0.00    +0.000 C 
ENDROOT
BRANCH  14  16
ATOM     16  C   UNL     1      -4.107  12.747  20.687  0.00  0.00    +0.000 C 
ATOM     17  C   UNL     1      -3.401  12.374  22.017  0.00  0.00    +0.000 C 
ATOM     18  C   UNL     1      -2.038  12.958  21.843  0.00  0.00    +0.000 C 
ATOM     19  C   UNL     1      -0.707  12.508  22.363  0.00  0.00    +0.000 C 
ATOM     20  C   UNL     1       0.230  13.410  21.509  0.00  0.00    +0.000 C 
ATOM     21  C   UNL     1      -0.557  13.792  20.193  0.00  0.00    +0.000 C 
ATOM     22  C   UNL     1       0.225  13.471  18.914  0.00  0.00    +0.000 C 
ATOM     23  C   UNL     1      -0.919  15.292  20.174  0.00  0.00    +0.000 C 
ATOM     24  N   UNL     1      -1.825  12.916  20.350  0.00  0.00    +0.000 N 
ATOM     25  C   UNL     1      -1.637  11.500  19.750  0.00  0.00    +0.000 C 
ATOM     26  O   UNL     1      -3.087  13.437  19.860  0.00  0.00    +0.000 OA
ENDBRANCH  14  16
TORSDOF 1
ENDMDL
MODEL 6
REMARK VINA RESULT:      -6.2      6.073      9.737
REMARK  Name = 
REMARK  5 active torsions:
REMARK  status: ('A' for Active; 'I' for Inactive)
REMARK    1  A    between atoms: C_1  and  C_2
REMARK    2  A    between atoms: C_14  and  C_15
REMARK    3  A    between atoms: C_20  and  C_21
REMARK    4  A    between atoms: C_20  and  C_22
REMARK    5  A    between atoms: N_23  and  C_24
REMARK                            x       y       z     vdW  Elec       q    Type
REMARK                         _______ _______ _______ _____ _____    ______ ____
ROOT
ATOM      1  C   UNL     1      -0.280   9.996  18.050  0.00  0.00    +0.000 C 
ATOM      2  C   UNL     1      -0.148  11.358  18.724  0.00  0.00    +0.000 C 
ATOM      3  O   UNL     1       1.011  11.316  19.566  0.00  0.00    +0.000 OA
ATOM      4  C   UNL     1       0.634  11.000  20.845  0.00  0.00    +0.000 C 
ATOM      5  O   UNL     1       1.431  10.834  21.760  0.00  0.00    +0.000 OA
ATOM      6  C   UNL     1      -0.881  10.984  20.937  0.00  0.00    +0.000 C 
ATOM      7  C   UNL     1      -1.425  11.543  22.210  0.00  0.00    +0.000 C 
ATOM      8  C   UNL     1      -2.114  12.693  22.303  0.00  0.00    +0.000 C 
ATOM      9  C   UNL     1      -2.819  13.101  23.572  0.00  0.00    +0.000 C 
ATOM     10  C   UNL     1      -4.325  13.177  23.310  0.00  0.00    +0.000 C 
ATOM     11  C   UNL     1      -4.653  14.059  22.103  0.00  0.00    +0.000 C 
ATOM     12  C   UNL     1      -3.862  13.648  20.849  0.00  0.00    +0.000 C 
ATOM     13  C   UNL     1      -2.348  13.621  21.135  0.00  0.00    +0.000 C 
ATOM     14  C   UNL     1      -1.490  13.290  19.880  0.00  0.00    +0.000 C 
ATOM     15  C   UNL     1      -1.286  11.742  19.673  0.00  0.00    +0.000 C 
ENDROOT
BRANCH  14  16
ATOM     16  C   UNL     1      -0.207  14.166  19.810  0.00  0.00    +0.000 C 
ATOM     17  C   UNL     1       0.233  14.975  21.060  0.00  0.00    +0.000 C 
ATOM     18  C   UNL     1       0.289  16.374  20.544  0.00  0.00    +0.000 C 
ATOM     19  C   UNL     1       1.167  17.525  20.930  0.00  0.00    +0.000 C 
ATOM     20  C   UNL     1       0.859  18.500  19.757  0.00  0.00    +0.000 C 
ATOM     21  C   UNL     1       0.375  17.626  18.534  0.00  0.00    +0.000 C 
ATOM     22  C   UNL     1       1.164  17.907  17.249  0.00  0.00    +0.000 C 
ATOM     23  C   UNL     1      -1.122  17.854  18.240  0.00  0.00    +0.000 C 
ATOM     24  N   UNL     1       0.623  16.198  19.083  0.00  0.00    +0.000 N 
ATOM     25  C   UNL     1       2.061  15.699  18.790  0.00  0.00    +0.000 C 
ATOM     26  O   UNL     1      -0.295  15.143  18.699  0.00  0.00    +0.000 OA
ENDBRANCH  14  16
TORSDOF 1
ENDMDL
MODEL 7
REMARK VINA RESULT:      -6.1      6.695     11.796
REMARK  Name = 
REMARK  5 active torsions:
REMARK  status: ('A' for Active; 'I' for Inactive)
REMARK    1  A    between atoms: C_1  and  C_2
REMARK    2  A    between atoms: C_14  and  C_15
REMARK    3  A    between atoms: C_20  and  C_21
REMARK    4  A    between atoms: C_20  and  C_22
REMARK    5  A    between atoms: N_23  and  C_24
REMARK                            x       y       z     vdW  Elec       q    Type
REMARK                         _______ _______ _______ _____ _____    ______ ____
ROOT
ATOM      1  C   UNL     1      -1.034  15.817  26.290  0.00  0.00    +0.000 C 
ATOM      2  C   UNL     1      -1.532  15.291  24.948  0.00  0.00    +0.000 C 
ATOM      3  O   UNL     1      -1.542  16.389  24.027  0.00  0.00    +0.000 OA
ATOM      4  C   UNL     1      -2.795  16.941  23.990  0.00  0.00    +0.000 C 
ATOM      5  O   UNL     1      -3.073  17.937  23.333  0.00  0.00    +0.000 OA
ATOM      6  C   UNL     1      -3.751  16.085  24.801  0.00  0.00    +0.000 C 
ATOM      7  C   UNL     1      -5.114  15.953  24.205  0.00  0.00    +0.000 C 
ATOM      8  C   UNL     1      -5.613  14.817  23.692  0.00  0.00    +0.000 C 
ATOM      9  C   UNL     1      -7.063  14.687  23.298  0.00  0.00    +0.000 C 
ATOM     10  C   UNL     1      -7.727  13.618  24.168  0.00  0.00    +0.000 C 
ATOM     11  C   UNL     1      -6.954  12.297  24.143  0.00  0.00    +0.000 C 
ATOM     12  C   UNL     1      -5.466  12.487  24.484  0.00  0.00    +0.000 C 
ATOM     13  C   UNL     1      -4.817  13.539  23.565  0.00  0.00    +0.000 C 
ATOM     14  C   UNL     1      -3.291  13.716  23.811  0.00  0.00    +0.000 C 
ATOM     15  C   UNL     1      -2.974  14.776  24.932  0.00  0.00    +0.000 C 
ENDROOT
BRANCH  14  16
ATOM     16  C   UNL     1      -2.506  13.871  22.477  0.00  0.00    +0.000 C 
ATOM     17  C   UNL     1      -3.236  13.627  21.129  0.00  0.00    +0.000 C 
ATOM     18  C   UNL     1      -2.405  12.562  20.493  0.00  0.00    +0.000 C 
ATOM     19  C   UNL     1      -2.113  12.280  19.051  0.00  0.00    +0.000 C 
ATOM     20  C   UNL     1      -0.952  11.257  19.210  0.00  0.00    +0.000 C 
ATOM     21  C   UNL     1      -0.278  11.525  20.614  0.00  0.00    +0.000 C 
ATOM     22  C   UNL     1       1.238  11.730  20.520  0.00  0.00    +0.000 C 
ATOM     23  C   UNL     1      -0.549  10.365  21.595  0.00  0.00    +0.000 C 
ATOM     24  N   UNL     1      -1.026  12.809  21.053  0.00  0.00    +0.000 N 
ATOM     25  C   UNL     1      -0.328  14.096  20.543  0.00  0.00    +0.000 C 
ATOM     26  O   UNL     1      -1.311  12.993  22.462  0.00  0.00    +0.000 OA
ENDBRANCH  14  16
TORSDOF 1
ENDMDL
MODEL 8
REMARK VINA RESULT:      -6.1      9.239     11.071
REMARK  Name = 
REMARK  5 active torsions:
REMARK  status: ('A' for Active; 'I' for Inactive)
REMARK    1  A    between atoms: C_1  and  C_2
REMARK    2  A    between atoms: C_14  and  C_15
REMARK    3  A    between atoms: C_20  and  C_21
REMARK    4  A    between atoms: C_20  and  C_22
REMARK    5  A    between atoms: N_23  and  C_24
REMARK                            x       y       z     vdW  Elec       q    Type
REMARK                         _______ _______ _______ _____ _____    ______ ____
ROOT
ATOM      1  C   UNL     1       4.957  14.998  17.782  0.00  0.00    +0.000 C 
ATOM      2  C   UNL     1       5.957  15.047  18.932  0.00  0.00    +0.000 C 
ATOM      3  O   UNL     1       6.157  16.425  19.276  0.00  0.00    +0.000 OA
ATOM      4  C   UNL     1       7.264  16.901  18.625  0.00  0.00    +0.000 C 
ATOM      5  O   UNL     1       7.631  18.068  18.687  0.00  0.00    +0.000 OA
ATOM      6  C   UNL     1       7.970  15.756  17.921  0.00  0.00    +0.000 C 
ATOM      7  C   UNL     1       9.460  15.832  17.966  0.00  0.00    +0.000 C 
ATOM      8  C   UNL     1      10.244  14.987  18.656  0.00  0.00    +0.000 C 
ATOM      9  C   UNL     1      11.743  14.980  18.499  0.00  0.00    +0.000 C 
ATOM     10  C   UNL     1      12.184  13.627  17.936  0.00  0.00    +0.000 C 
ATOM     11  C   UNL     1      11.637  12.458  18.761  0.00  0.00    +0.000 C 
ATOM     12  C   UNL     1      10.114  12.543  18.952  0.00  0.00    +0.000 C 
ATOM     13  C   UNL     1       9.707  13.900  19.558  0.00  0.00    +0.000 C 
ATOM     14  C   UNL     1       8.183  14.013  19.850  0.00  0.00    +0.000 C 
ATOM     15  C   UNL     1       7.363  14.535  18.610  0.00  0.00    +0.000 C 
ENDROOT
BRANCH  14  16
ATOM     16  C   UNL     1       7.907  14.726  21.205  0.00  0.00    +0.000 C 
ATOM     17  C   UNL     1       9.100  15.141  22.105  0.00  0.00    +0.000 C 
ATOM     18  C   UNL     1       8.798  14.449  23.393  0.00  0.00    +0.000 C 
ATOM     19  C   UNL     1       9.103  14.837  24.807  0.00  0.00    +0.000 C 
ATOM     20  C   UNL     1       8.210  13.812  25.563  0.00  0.00    +0.000 C 
ATOM     21  C   UNL     1       7.042  13.394  24.584  0.00  0.00    +0.000 C 
ATOM     22  C   UNL     1       5.651  13.565  25.204  0.00  0.00    +0.000 C 
ATOM     23  C   UNL     1       7.191  11.927  24.130  0.00  0.00    +0.000 C 
ATOM     24  N   UNL     1       7.292  14.368  23.405  0.00  0.00    +0.000 N 
ATOM     25  C   UNL     1       6.560  15.721  23.598  0.00  0.00    +0.000 C 
ATOM     26  O   UNL     1       7.013  13.907  22.059  0.00  0.00    +0.000 OA
ENDBRANCH  14  16
TORSDOF 1
ENDMDL
MODEL 9
REMARK VINA RESULT:      -6.1      7.109     10.778
REMARK  Name = 
REMARK  5 active torsions:
REMARK  status: ('A' for Active; 'I' for Inactive)
REMARK    1  A    between atoms: C_1  and  C_2
REMARK    2  A    between atoms: C_14  and  C_15
REMARK    3  A    between atoms: C_20  and  C_21
REMARK    4  A    between atoms: C_20  and  C_22
REMARK    5  A    between atoms: N_23  and  C_24
REMARK                            x       y       z     vdW  Elec       q    Type
REMARK                         _______ _______ _______ _____ _____    ______ ____
ROOT
ATOM      1  C   UNL     1      -0.465  10.290  22.926  0.00  0.00    +0.000 C 
ATOM      2  C   UNL     1      -1.475  11.312  22.413  0.00  0.00    +0.000 C 
ATOM      3  O   UNL     1      -1.097  11.664  21.076  0.00  0.00    +0.000 OA
ATOM      4  C   UNL     1      -0.336  12.802  21.102  0.00  0.00    +0.000 C 
ATOM      5  O   UNL     1       0.176  13.292  20.103  0.00  0.00    +0.000 OA
ATOM      6  C   UNL     1      -0.319  13.369  22.510  0.00  0.00    +0.000 C 
ATOM      7  C   UNL     1      -0.375  14.860  22.573  0.00  0.00    +0.000 C 
ATOM      8  C   UNL     1      -1.422  15.562  23.037  0.00  0.00    +0.000 C 
ATOM      9  C   UNL     1      -1.344  17.049  23.274  0.00  0.00    +0.000 C 
ATOM     10  C   UNL     1      -1.543  17.333  24.765  0.00  0.00    +0.000 C 
ATOM     11  C   UNL     1      -2.819  16.681  25.306  0.00  0.00    +0.000 C 
ATOM     12  C   UNL     1      -2.887  15.179  24.983  0.00  0.00    +0.000 C 
ATOM     13  C   UNL     1      -2.724  14.931  23.471  0.00  0.00    +0.000 C 
ATOM     14  C   UNL     1      -2.865  13.433  23.073  0.00  0.00    +0.000 C 
ATOM     15  C   UNL     1      -1.501  12.650  23.157  0.00  0.00    +0.000 C 
ENDROOT
BRANCH  14  16
ATOM     16  C   UNL     1      -3.676  13.260  21.758  0.00  0.00    +0.000 C 
ATOM     17  C   UNL     1      -4.281  14.509  21.064  0.00  0.00    +0.000 C 
ATOM     18  C   UNL     1      -5.734  14.175  20.989  0.00  0.00    +0.000 C 
ATOM     19  C   UNL     1      -6.774  14.550  19.978  0.00  0.00    +0.000 C 
ATOM     20  C   UNL     1      -7.916  13.582  20.400  0.00  0.00    +0.000 C 
ATOM     21  C   UNL     1      -7.246  12.356  21.137  0.00  0.00    +0.000 C 
ATOM     22  C   UNL     1      -7.661  11.003  20.548  0.00  0.00    +0.000 C 
ATOM     23  C   UNL     1      -7.588  12.353  22.642  0.00  0.00    +0.000 C 
ATOM     24  N   UNL     1      -5.745  12.668  20.910  0.00  0.00    +0.000 N 
ATOM     25  C   UNL     1      -5.218  12.073  19.579  0.00  0.00    +0.000 C 
ATOM     26  O   UNL     1      -4.802  12.313  21.952  0.00  0.00    +0.000 OA
ENDBRANCH  14  16
TORSDOF 1
ENDMDL
