MODEL 1
REMARK VINA RESULT:      -8.0      0.000      0.000
REMARK  Name = 
REMARK  5 active torsions:
REMARK  status: ('A' for Active; 'I' for Inactive)
REMARK    1  A    between atoms: C_1  and  O_2
REMARK    2  A    between atoms: O_2  and  C_3
REMARK    3  A    between atoms: C_5  and  C_6
REMARK    4  A    between atoms: C_23  and  O_24
REMARK    5  A    between atoms: O_24  and  C_25
REMARK                            x       y       z     vdW  Elec       q    Type
REMARK                         _______ _______ _______ _____ _____    ______ ____
ROOT
ATOM      1  C   UNL     1       1.696   7.469  20.295  0.00  0.00    +0.000 A 
ATOM      2  N   UNL     1       1.097   7.749  21.411  0.00  0.00    +0.000 NA
ATOM      3  C   UNL     1       0.579   9.002  21.473  0.00  0.00    +0.000 A 
ATOM      4  S   UNL     1      -0.158   9.593  22.893  0.00  0.00    +0.000 S 
ATOM      5  C   UNL     1      -0.500  11.091  22.162  0.00  0.00    +0.000 A 
ATOM      6  C   UNL     1      -0.083  11.154  20.845  0.00  0.00    +0.000 A 
ATOM      7  C   UNL     1       0.585   9.949  20.467  0.00  0.00    +0.000 A 
ATOM      8  C   UNL     1       1.235   9.595  19.227  0.00  0.00    +0.000 A 
ATOM      9  O   UNL     1       1.307  10.331  18.240  0.00  0.00    +0.000 OA
ATOM     10  N   UNL     1       1.789   8.342  19.227  0.00  0.00    +0.000 N 
ATOM     11  C   UNL     1      -0.297  12.371  19.995  0.00  0.00    +0.000 C 
ATOM     12  C   UNL     1      -1.291  13.353  20.638  0.00  0.00    +0.000 C 
ATOM     13  C   UNL     1      -1.044  13.517  22.144  0.00  0.00    +0.000 C 
ATOM     14  C   UNL     1      -1.214  12.186  22.891  0.00  0.00    +0.000 C 
ATOM     15  H   UNL     1       2.229   8.076  18.359  0.00  0.00    +0.000 HD
ENDROOT
BRANCH   1  18
ATOM     16  C   UNL     1       3.956   4.777  18.972  0.00  0.00    +0.000 A 
ATOM     17  C   UNL     1       3.357   6.024  19.167  0.00  0.00    +0.000 A 
ATOM     18  C   UNL     1       2.335   6.156  20.095  0.00  0.00    +0.000 A 
ATOM     19  C   UNL     1       1.885   5.048  20.806  0.00  0.00    +0.000 A 
ATOM     20  C   UNL     1       2.455   3.786  20.596  0.00  0.00    +0.000 A 
ATOM     21 CL   UNL     1       1.742   2.543  21.566  0.00  0.00    +0.000 Cl
ATOM     22  C   UNL     1       3.501   3.626  19.670  0.00  0.00    +0.000 A 
BRANCH  16  24
ATOM     23  C   UNL     1       4.672   5.105  16.748  0.00  0.00    +0.000 C 
ATOM     24  O   UNL     1       4.973   4.618  18.055  0.00  0.00    +0.000 OA
ENDBRANCH  16  24
BRANCH  22  25
ATOM     25  O   UNL     1       4.175   2.485  19.323  0.00  0.00    +0.000 OA
ATOM     26  C   UNL     1       3.578   1.506  18.492  0.00  0.00    +0.000 C 
ENDBRANCH  22  25
ENDBRANCH   1  18
TORSDOF 3
ENDMDL
MODEL 2
REMARK VINA RESULT:      -7.9      1.386      2.191
REMARK  Name = 
REMARK  5 active torsions:
REMARK  status: ('A' for Active; 'I' for Inactive)
REMARK    1  A    between atoms: C_1  and  O_2
REMARK    2  A    between atoms: O_2  and  C_3
REMARK    3  A    between atoms: C_5  and  C_6
REMARK    4  A    between atoms: C_23  and  O_24
REMARK    5  A    between atoms: O_24  and  C_25
REMARK                            x       y       z     vdW  Elec       q    Type
REMARK                         _______ _______ _______ _____ _____    ______ ____
ROOT
ATOM      1  C   UNL     1       1.752   7.500  20.027  0.00  0.00    +0.000 A 
ATOM      2  N   UNL     1       1.161   7.706  21.164  0.00  0.00    +0.000 NA
ATOM      3  C   UNL     1       0.643   8.951  21.311  0.00  0.00    +0.000 A 
ATOM      4  S   UNL     1      -0.084   9.447  22.771  0.00  0.00    +0.000 S 
ATOM      5  C   UNL     1      -0.433  10.989  22.142  0.00  0.00    +0.000 A 
ATOM      6  C   UNL     1      -0.026  11.139  20.828  0.00  0.00    +0.000 A 
ATOM      7  C   UNL     1       0.641   9.962  20.368  0.00  0.00    +0.000 A 
ATOM      8  C   UNL     1       1.282   9.690  19.104  0.00  0.00    +0.000 A 
ATOM      9  O   UNL     1       1.345  10.488  18.166  0.00  0.00    +0.000 OA
ATOM     10  N   UNL     1       1.836   8.440  19.018  0.00  0.00    +0.000 N 
ATOM     11  C   UNL     1      -0.247  12.408  20.061  0.00  0.00    +0.000 C 
ATOM     12  C   UNL     1      -1.238  13.345  20.774  0.00  0.00    +0.000 C 
ATOM     13  C   UNL     1      -0.979  13.411  22.286  0.00  0.00    +0.000 C 
ATOM     14  C   UNL     1      -1.142  12.033  22.946  0.00  0.00    +0.000 C 
ATOM     15  H   UNL     1       2.271   8.231  18.131  0.00  0.00    +0.000 HD
ENDROOT
BRANCH   1  18
ATOM     16  C   UNL     1       2.875   3.933  20.372  0.00  0.00    +0.000 A 
ATOM     17  C   UNL     1       2.263   5.159  20.642  0.00  0.00    +0.000 A 
ATOM     18  C   UNL     1       2.390   6.203  19.738  0.00  0.00    +0.000 A 
ATOM     19  C   UNL     1       3.150   6.042  18.584  0.00  0.00    +0.000 A 
ATOM     20  C   UNL     1       3.797   4.828  18.318  0.00  0.00    +0.000 A 
ATOM     21 CL   UNL     1       4.700   4.843  16.842  0.00  0.00    +0.000 Cl
ATOM     22  C   UNL     1       3.673   3.750  19.212  0.00  0.00    +0.000 A 
BRANCH  16  24
ATOM     23  C   UNL     1       1.429   2.590  21.666  0.00  0.00    +0.000 C 
ATOM     24  O   UNL     1       2.764   2.879  21.255  0.00  0.00    +0.000 OA
ENDBRANCH  16  24
BRANCH  22  25
ATOM     25  O   UNL     1       4.228   2.500  19.132  0.00  0.00    +0.000 OA
ATOM     26  C   UNL     1       3.640   1.488  18.335  0.00  0.00    +0.000 C 
ENDBRANCH  22  25
ENDBRANCH   1  18
TORSDOF 3
ENDMDL
MODEL 3
REMARK VINA RESULT:      -7.9      1.562      2.106
REMARK  Name = 
REMARK  5 active torsions:
REMARK  status: ('A' for Active; 'I' for Inactive)
REMARK    1  A    between atoms: C_1  and  O_2
REMARK    2  A    between atoms: O_2  and  C_3
REMARK    3  A    between atoms: C_5  and  C_6
REMARK    4  A    between atoms: C_23  and  O_24
REMARK    5  A    between atoms: O_24  and  C_25
REMARK                            x       y       z     vdW  Elec       q    Type
REMARK                         _______ _______ _______ _____ _____    ______ ____
ROOT
ATOM      1  C   UNL     1       1.687   7.771  20.391  0.00  0.00    +0.000 A 
ATOM      2  N   UNL     1       1.422   8.535  19.375  0.00  0.00    +0.000 NA
ATOM      3  C   UNL     1       0.854   9.724  19.698  0.00  0.00    +0.000 A 
ATOM      4  S   UNL     1       0.342  10.821  18.497  0.00  0.00    +0.000 S 
ATOM      5  C   UNL     1      -0.190  11.940  19.664  0.00  0.00    +0.000 A 
ATOM      6  C   UNL     1       0.029  11.509  20.960  0.00  0.00    +0.000 A 
ATOM      7  C   UNL     1       0.596  10.198  20.969  0.00  0.00    +0.000 A 
ATOM      8  C   UNL     1       0.929   9.336  22.078  0.00  0.00    +0.000 A 
ATOM      9  O   UNL     1       0.768   9.630  23.266  0.00  0.00    +0.000 OA
ATOM     10  N   UNL     1       1.450   8.126  21.706  0.00  0.00    +0.000 N 
ATOM     11  C   UNL     1      -0.342  12.341  22.153  0.00  0.00    +0.000 C 
ATOM     12  C   UNL     1      -0.660  13.794  21.763  0.00  0.00    +0.000 C 
ATOM     13  C   UNL     1      -1.517  13.874  20.491  0.00  0.00    +0.000 C 
ATOM     14  C   UNL     1      -0.792  13.256  19.286  0.00  0.00    +0.000 C 
ATOM     15  H   UNL     1       1.705   7.522  22.473  0.00  0.00    +0.000 HD
ENDROOT
BRANCH   1  18
ATOM     16  C   UNL     1       3.957   5.027  19.200  0.00  0.00    +0.000 A 
ATOM     17  C   UNL     1       3.403   6.294  19.396  0.00  0.00    +0.000 A 
ATOM     18  C   UNL     1       2.276   6.435  20.192  0.00  0.00    +0.000 A 
ATOM     19  C   UNL     1       1.680   5.318  20.766  0.00  0.00    +0.000 A 
ATOM     20  C   UNL     1       2.205   4.038  20.551  0.00  0.00    +0.000 A 
ATOM     21 CL   UNL     1       1.307   2.787  21.341  0.00  0.00    +0.000 Cl
ATOM     22  C   UNL     1       3.354   3.868  19.759  0.00  0.00    +0.000 A 
BRANCH  16  24
ATOM     23  C   UNL     1       6.280   5.378  18.978  0.00  0.00    +0.000 C 
ATOM     24  O   UNL     1       5.076   4.859  18.413  0.00  0.00    +0.000 OA
ENDBRANCH  16  24
BRANCH  22  25
ATOM     25  O   UNL     1       4.007   2.710  19.429  0.00  0.00    +0.000 OA
ATOM     26  C   UNL     1       3.424   1.766  18.550  0.00  0.00    +0.000 C 
ENDBRANCH  22  25
ENDBRANCH   1  18
TORSDOF 3
ENDMDL
MODEL 4
REMARK VINA RESULT:      -7.8      2.104      3.001
REMARK  Name = 
REMARK  5 active torsions:
REMARK  status: ('A' for Active; 'I' for Inactive)
REMARK    1  A    between atoms: C_1  and  O_2
REMARK    2  A    between atoms: O_2  and  C_3
REMARK    3  A    between atoms: C_5  and  C_6
REMARK    4  A    between atoms: C_23  and  O_24
REMARK    5  A    between atoms: O_24  and  C_25
REMARK                            x       y       z     vdW  Elec       q    Type
REMARK                         _______ _______ _______ _____ _____    ______ ____
ROOT
ATOM      1  C   UNL     1       1.497   8.171  20.274  0.00  0.00    +0.000 A 
ATOM      2  N   UNL     1       1.098   9.027  19.383  0.00  0.00    +0.000 NA
ATOM      3  C   UNL     1       0.459  10.110  19.891  0.00  0.00    +0.000 A 
ATOM      4  S   UNL     1      -0.227  11.297  18.876  0.00  0.00    +0.000 S 
ATOM      5  C   UNL     1      -0.764  12.210  20.209  0.00  0.00    +0.000 A 
ATOM      6  C   UNL     1      -0.417  11.644  21.422  0.00  0.00    +0.000 A 
ATOM      7  C   UNL     1       0.255  10.399  21.227  0.00  0.00    +0.000 A 
ATOM      8  C   UNL     1       0.737   9.440  22.193  0.00  0.00    +0.000 A 
ATOM      9  O   UNL     1       0.638   9.569  23.416  0.00  0.00    +0.000 OA
ATOM     10  N   UNL     1       1.328   8.337  21.636  0.00  0.00    +0.000 N 
ATOM     11  C   UNL     1      -0.768  12.284  22.733  0.00  0.00    +0.000 C 
ATOM     12  C   UNL     1      -1.232  13.739  22.555  0.00  0.00    +0.000 C 
ATOM     13  C   UNL     1      -2.182  13.898  21.358  0.00  0.00    +0.000 C 
ATOM     14  C   UNL     1      -1.498  13.503  20.041  0.00  0.00    +0.000 C 
ATOM     15  H   UNL     1       1.686   7.669  22.302  0.00  0.00    +0.000 HD
ENDROOT
BRANCH   1  18
ATOM     16  C   UNL     1       2.723   4.621  20.280  0.00  0.00    +0.000 A 
ATOM     17  C   UNL     1       2.070   5.796  20.661  0.00  0.00    +0.000 A 
ATOM     18  C   UNL     1       2.179   6.929  19.868  0.00  0.00    +0.000 A 
ATOM     19  C   UNL     1       2.960   6.907  18.718  0.00  0.00    +0.000 A 
ATOM     20  C   UNL     1       3.647   5.745  18.343  0.00  0.00    +0.000 A 
ATOM     21 CL   UNL     1       4.572   5.934  16.893  0.00  0.00    +0.000 Cl
ATOM     22  C   UNL     1       3.544   4.579  19.122  0.00  0.00    +0.000 A 
BRANCH  16  24
ATOM     23  C   UNL     1       1.317   2.933  21.142  0.00  0.00    +0.000 C 
ATOM     24  O   UNL     1       2.631   3.482  21.051  0.00  0.00    +0.000 OA
ENDBRANCH  16  24
BRANCH  22  25
ATOM     25  O   UNL     1       4.137   3.360  18.927  0.00  0.00    +0.000 OA
ATOM     26  C   UNL     1       3.662   2.464  17.939  0.00  0.00    +0.000 C 
ENDBRANCH  22  25
ENDBRANCH   1  18
TORSDOF 3
ENDMDL
MODEL 5
REMARK VINA RESULT:      -7.7      2.026      2.473
REMARK  Name = 
REMARK  5 active torsions:
REMARK  status: ('A' for Active; 'I' for Inactive)
REMARK    1  A    between atoms: C_1  and  O_2
REMARK    2  A    between atoms: O_2  and  C_3
REMARK    3  A    between atoms: C_5  and  C_6
REMARK    4  A    between atoms: C_23  and  O_24
REMARK    5  A    between atoms: O_24  and  C_25
REMARK                            x       y       z     vdW  Elec       q    Type
REMARK                         _______ _______ _______ _____ _____    ______ ____
ROOT
ATOM      1  C   UNL     1       2.197   7.841  18.803  0.00  0.00    +0.000 A 
ATOM      2  N   UNL     1       1.980   7.782  20.081  0.00  0.00    +0.000 NA
ATOM      3  C   UNL     1       1.159   8.752  20.558  0.00  0.00    +0.000 A 
ATOM      4  S   UNL     1       0.833   8.903  22.225  0.00  0.00    +0.000 S 
ATOM      5  C   UNL     1      -0.192  10.235  21.963  0.00  0.00    +0.000 A 
ATOM      6  C   UNL     1      -0.314  10.565  20.626  0.00  0.00    +0.000 A 
ATOM      7  C   UNL     1       0.512   9.724  19.819  0.00  0.00    +0.000 A 
ATOM      8  C   UNL     1       0.753   9.744  18.396  0.00  0.00    +0.000 A 
ATOM      9  O   UNL     1       0.236  10.543  17.611  0.00  0.00    +0.000 OA
ATOM     10  N   UNL     1       1.628   8.782  17.965  0.00  0.00    +0.000 N 
ATOM     11  C   UNL     1      -1.182  11.695  20.156  0.00  0.00    +0.000 C 
ATOM     12  C   UNL     1      -2.132  12.187  21.261  0.00  0.00    +0.000 C 
ATOM     13  C   UNL     1      -1.427  12.291  22.621  0.00  0.00    +0.000 C 
ATOM     14  C   UNL     1      -0.899  10.926  23.087  0.00  0.00    +0.000 C 
ATOM     15  H   UNL     1       1.789   8.774  16.969  0.00  0.00    +0.000 HD
ENDROOT
BRANCH   1  18
ATOM     16  C   UNL     1       5.144   6.388  16.986  0.00  0.00    +0.000 A 
ATOM     17  C   UNL     1       4.298   7.305  17.614  0.00  0.00    +0.000 A 
ATOM     18  C   UNL     1       3.094   6.872  18.148  0.00  0.00    +0.000 A 
ATOM     19  C   UNL     1       2.714   5.539  18.033  0.00  0.00    +0.000 A 
ATOM     20  C   UNL     1       3.539   4.616  17.377  0.00  0.00    +0.000 A 
ATOM     21 CL   UNL     1       2.876   3.018  17.331  0.00  0.00    +0.000 Cl
ATOM     22  C   UNL     1       4.770   5.026  16.837  0.00  0.00    +0.000 A 
BRANCH  16  24
ATOM     23  C   UNL     1       7.327   7.181  17.406  0.00  0.00    +0.000 C 
ATOM     24  O   UNL     1       6.346   6.793  16.445  0.00  0.00    +0.000 OA
ENDBRANCH  16  24
BRANCH  22  25
ATOM     25  O   UNL     1       5.702   4.283  16.161  0.00  0.00    +0.000 OA
ATOM     26  C   UNL     1       5.625   4.115  14.757  0.00  0.00    +0.000 C 
ENDBRANCH  22  25
ENDBRANCH   1  18
TORSDOF 3
ENDMDL
MODEL 6
REMARK VINA RESULT:      -7.7      2.352      3.024
REMARK  Name = 
REMARK  5 active torsions:
REMARK  status: ('A' for Active; 'I' for Inactive)
REMARK    1  A    between atoms: C_1  and  O_2
REMARK    2  A    between atoms: O_2  and  C_3
REMARK    3  A    between atoms: C_5  and  C_6
REMARK    4  A    between atoms: C_23  and  O_24
REMARK    5  A    between atoms: O_24  and  C_25
REMARK                            x       y       z     vdW  Elec       q    Type
REMARK                         _______ _______ _______ _____ _____    ______ ____
ROOT
ATOM      1  C   UNL     1       2.135   7.923  18.925  0.00  0.00    +0.000 A 
ATOM      2  N   UNL     1       1.511   8.846  18.259  0.00  0.00    +0.000 NA
ATOM      3  C   UNL     1       0.727   9.654  19.016  0.00  0.00    +0.000 A 
ATOM      4  S   UNL     1      -0.250  10.861  18.313  0.00  0.00    +0.000 S 
ATOM      5  C   UNL     1      -0.832  11.358  19.833  0.00  0.00    +0.000 A 
ATOM      6  C   UNL     1      -0.285  10.637  20.879  0.00  0.00    +0.000 A 
ATOM      7  C   UNL     1       0.587   9.617  20.391  0.00  0.00    +0.000 A 
ATOM      8  C   UNL     1       1.318   8.597  21.104  0.00  0.00    +0.000 A 
ATOM      9  O   UNL     1       1.301   8.452  22.329  0.00  0.00    +0.000 OA
ATOM     10  N   UNL     1       2.054   7.771  20.296  0.00  0.00    +0.000 N 
ATOM     11  C   UNL     1      -0.636  10.914  22.311  0.00  0.00    +0.000 C 
ATOM     12  C   UNL     1      -1.375  12.253  22.473  0.00  0.00    +0.000 C 
ATOM     13  C   UNL     1      -2.435  12.460  21.381  0.00  0.00    +0.000 C 
ATOM     14  C   UNL     1      -1.804  12.486  19.981  0.00  0.00    +0.000 C 
ATOM     15  H   UNL     1       2.585   7.066  20.785  0.00  0.00    +0.000 HD
ENDROOT
BRANCH   1  18
ATOM     16  C   UNL     1       5.015   6.450  17.018  0.00  0.00    +0.000 A 
ATOM     17  C   UNL     1       4.201   7.369  17.683  0.00  0.00    +0.000 A 
ATOM     18  C   UNL     1       2.998   6.951  18.231  0.00  0.00    +0.000 A 
ATOM     19  C   UNL     1       2.586   5.630  18.091  0.00  0.00    +0.000 A 
ATOM     20  C   UNL     1       3.378   4.705  17.397  0.00  0.00    +0.000 A 
ATOM     21 CL   UNL     1       2.678   3.123  17.325  0.00  0.00    +0.000 Cl
ATOM     22  C   UNL     1       4.608   5.100  16.843  0.00  0.00    +0.000 A 
BRANCH  16  24
ATOM     23  C   UNL     1       7.205   7.234  17.413  0.00  0.00    +0.000 C 
ATOM     24  O   UNL     1       6.216   6.840  16.463  0.00  0.00    +0.000 OA
ENDBRANCH  16  24
BRANCH  22  25
ATOM     25  O   UNL     1       5.509   4.354  16.132  0.00  0.00    +0.000 OA
ATOM     26  C   UNL     1       5.430   4.259  14.721  0.00  0.00    +0.000 C 
ENDBRANCH  22  25
ENDBRANCH   1  18
TORSDOF 3
ENDMDL
MODEL 7
REMARK VINA RESULT:      -7.6      2.342      3.218
REMARK  Name = 
REMARK  5 active torsions:
REMARK  status: ('A' for Active; 'I' for Inactive)
REMARK    1  A    between atoms: C_1  and  O_2
REMARK    2  A    between atoms: O_2  and  C_3
REMARK    3  A    between atoms: C_5  and  C_6
REMARK    4  A    between atoms: C_23  and  O_24
REMARK    5  A    between atoms: O_24  and  C_25
REMARK                            x       y       z     vdW  Elec       q    Type
REMARK                         _______ _______ _______ _____ _____    ______ ____
ROOT
ATOM      1  C   UNL     1       1.863   8.182  19.605  0.00  0.00    +0.000 A 
ATOM      2  N   UNL     1       1.161   8.970  18.848  0.00  0.00    +0.000 NA
ATOM      3  C   UNL     1       0.375   9.845  19.523  0.00  0.00    +0.000 A 
ATOM      4  S   UNL     1      -0.695  10.894  18.708  0.00  0.00    +0.000 S 
ATOM      5  C   UNL     1      -1.228  11.582  20.171  0.00  0.00    +0.000 A 
ATOM      6  C   UNL     1      -0.596  11.046  21.278  0.00  0.00    +0.000 A 
ATOM      7  C   UNL     1       0.302  10.003  20.894  0.00  0.00    +0.000 A 
ATOM      8  C   UNL     1       1.117   9.130  21.706  0.00  0.00    +0.000 A 
ATOM      9  O   UNL     1       1.165   9.165  22.938  0.00  0.00    +0.000 OA
ATOM     10  N   UNL     1       1.854   8.228  20.986  0.00  0.00    +0.000 N 
ATOM     11  C   UNL     1      -0.893  11.513  22.672  0.00  0.00    +0.000 C 
ATOM     12  C   UNL     1      -1.690  12.828  22.680  0.00  0.00    +0.000 C 
ATOM     13  C   UNL     1      -2.810  12.828  21.629  0.00  0.00    +0.000 C 
ATOM     14  C   UNL     1      -2.247  12.676  20.208  0.00  0.00    +0.000 C 
ATOM     15  H   UNL     1       2.443   7.625  21.542  0.00  0.00    +0.000 HD
ENDROOT
BRANCH   1  18
ATOM     16  C   UNL     1       3.806   5.003  19.135  0.00  0.00    +0.000 A 
ATOM     17  C   UNL     1       2.967   5.971  19.693  0.00  0.00    +0.000 A 
ATOM     18  C   UNL     1       2.740   7.157  19.011  0.00  0.00    +0.000 A 
ATOM     19  C   UNL     1       3.366   7.397  17.794  0.00  0.00    +0.000 A 
ATOM     20  C   UNL     1       4.235   6.449  17.238  0.00  0.00    +0.000 A 
ATOM     21 CL   UNL     1       4.921   6.948  15.730  0.00  0.00    +0.000 Cl
ATOM     22  C   UNL     1       4.474   5.233  17.903  0.00  0.00    +0.000 A 
BRANCH  16  24
ATOM     23  C   UNL     1       2.887   3.190  20.335  0.00  0.00    +0.000 C 
ATOM     24  O   UNL     1       4.050   3.816  19.792  0.00  0.00    +0.000 OA
ENDBRANCH  16  24
BRANCH  22  25
ATOM     25  O   UNL     1       5.286   4.195  17.529  0.00  0.00    +0.000 OA
ATOM     26  C   UNL     1       6.685   4.370  17.400  0.00  0.00    +0.000 C 
ENDBRANCH  22  25
ENDBRANCH   1  18
TORSDOF 3
ENDMDL
MODEL 8
REMARK VINA RESULT:      -7.5      2.005      2.735
REMARK  Name = 
REMARK  5 active torsions:
REMARK  status: ('A' for Active; 'I' for Inactive)
REMARK    1  A    between atoms: C_1  and  O_2
REMARK    2  A    between atoms: O_2  and  C_3
REMARK    3  A    between atoms: C_5  and  C_6
REMARK    4  A    between atoms: C_23  and  O_24
REMARK    5  A    between atoms: O_24  and  C_25
REMARK                            x       y       z     vdW  Elec       q    Type
REMARK                         _______ _______ _______ _____ _____    ______ ____
ROOT
ATOM      1  C   UNL     1       2.026   7.997  19.270  0.00  0.00    +0.000 A 
ATOM      2  N   UNL     1       1.723   7.995  20.533  0.00  0.00    +0.000 NA
ATOM      3  C   UNL     1       0.861   8.974  20.906  0.00  0.00    +0.000 A 
ATOM      4  S   UNL     1       0.420   9.198  22.538  0.00  0.00    +0.000 S 
ATOM      5  C   UNL     1      -0.599  10.503  22.144  0.00  0.00    +0.000 A 
ATOM      6  C   UNL     1      -0.632  10.769  20.788  0.00  0.00    +0.000 A 
ATOM      7  C   UNL     1       0.256   9.902  20.080  0.00  0.00    +0.000 A 
ATOM      8  C   UNL     1       0.594   9.859  18.677  0.00  0.00    +0.000 A 
ATOM      9  O   UNL     1       0.123  10.614  17.822  0.00  0.00    +0.000 OA
ATOM     10  N   UNL     1       1.506   8.891  18.353  0.00  0.00    +0.000 N 
ATOM     11  C   UNL     1      -1.478  11.863  20.207  0.00  0.00    +0.000 C 
ATOM     12  C   UNL     1      -2.506  12.393  21.220  0.00  0.00    +0.000 C 
ATOM     13  C   UNL     1      -1.898  12.570  22.619  0.00  0.00    +0.000 C 
ATOM     14  C   UNL     1      -1.388  11.235  23.183  0.00  0.00    +0.000 C 
ATOM     15  H   UNL     1       1.735   8.838  17.371  0.00  0.00    +0.000 HD
ENDROOT
BRANCH   1  18
ATOM     16  C   UNL     1       4.225   4.969  18.966  0.00  0.00    +0.000 A 
ATOM     17  C   UNL     1       3.317   5.899  19.479  0.00  0.00    +0.000 A 
ATOM     18  C   UNL     1       2.976   7.012  18.725  0.00  0.00    +0.000 A 
ATOM     19  C   UNL     1       3.557   7.220  17.479  0.00  0.00    +0.000 A 
ATOM     20  C   UNL     1       4.493   6.312  16.967  0.00  0.00    +0.000 A 
ATOM     21 CL   UNL     1       5.105   6.763  15.413  0.00  0.00    +0.000 Cl
ATOM     22  C   UNL     1       4.848   5.169  17.705  0.00  0.00    +0.000 A 
BRANCH  16  24
ATOM     23  C   UNL     1       3.567   2.854  19.782  0.00  0.00    +0.000 C 
ATOM     24  O   UNL     1       4.582   3.854  19.695  0.00  0.00    +0.000 OA
ENDBRANCH  16  24
BRANCH  22  25
ATOM     25  O   UNL     1       5.738   4.180  17.382  0.00  0.00    +0.000 OA
ATOM     26  C   UNL     1       7.123   4.452  17.261  0.00  0.00    +0.000 C 
ENDBRANCH  22  25
ENDBRANCH   1  18
TORSDOF 3
ENDMDL
MODEL 9
REMARK VINA RESULT:      -7.5      2.259      2.858
REMARK  Name = 
REMARK  5 active torsions:
REMARK  status: ('A' for Active; 'I' for Inactive)
REMARK    1  A    between atoms: C_1  and  O_2
REMARK    2  A    between atoms: O_2  and  C_3
REMARK    3  A    between atoms: C_5  and  C_6
REMARK    4  A    between atoms: C_23  and  O_24
REMARK    5  A    between atoms: O_24  and  C_25
REMARK                            x       y       z     vdW  Elec       q    Type
REMARK                         _______ _______ _______ _____ _____    ______ ____
ROOT
ATOM      1  C   UNL     1       2.212   7.751  18.818  0.00  0.00    +0.000 A 
ATOM      2  N   UNL     1       1.975   7.702  20.093  0.00  0.00    +0.000 NA
ATOM      3  C   UNL     1       1.176   8.696  20.556  0.00  0.00    +0.000 A 
ATOM      4  S   UNL     1       0.831   8.861  22.218  0.00  0.00    +0.000 S 
ATOM      5  C   UNL     1      -0.151  10.222  21.938  0.00  0.00    +0.000 A 
ATOM      6  C   UNL     1      -0.244  10.552  20.598  0.00  0.00    +0.000 A 
ATOM      7  C   UNL     1       0.569   9.685  19.806  0.00  0.00    +0.000 A 
ATOM      8  C   UNL     1       0.830   9.693  18.386  0.00  0.00    +0.000 A 
ATOM      9  O   UNL     1       0.347  10.504  17.591  0.00  0.00    +0.000 OA
ATOM     10  N   UNL     1       1.682   8.705  17.970  0.00  0.00    +0.000 N 
ATOM     11  C   UNL     1      -1.073  11.704  20.113  0.00  0.00    +0.000 C 
ATOM     12  C   UNL     1      -2.024  12.227  21.203  0.00  0.00    +0.000 C 
ATOM     13  C   UNL     1      -1.336  12.314  22.573  0.00  0.00    +0.000 C 
ATOM     14  C   UNL     1      -0.854  10.936  23.050  0.00  0.00    +0.000 C 
ATOM     15  H   UNL     1       1.857   8.689  16.976  0.00  0.00    +0.000 HD
ENDROOT
BRANCH   1  18
ATOM     16  C   UNL     1       3.457   4.521  17.362  0.00  0.00    +0.000 A 
ATOM     17  C   UNL     1       2.621   5.468  17.960  0.00  0.00    +0.000 A 
ATOM     18  C   UNL     1       3.090   6.754  18.179  0.00  0.00    +0.000 A 
ATOM     19  C   UNL     1       4.394   7.093  17.837  0.00  0.00    +0.000 A 
ATOM     20  C   UNL     1       5.253   6.144  17.267  0.00  0.00    +0.000 A 
ATOM     21 CL   UNL     1       6.833   6.765  16.932  0.00  0.00    +0.000 Cl
ATOM     22  C   UNL     1       4.799   4.836  17.022  0.00  0.00    +0.000 A 
BRANCH  16  24
ATOM     23  C   UNL     1       2.083   2.749  18.098  0.00  0.00    +0.000 C 
ATOM     24  O   UNL     1       3.016   3.234  17.134  0.00  0.00    +0.000 OA
ENDBRANCH  16  24
BRANCH  22  25
ATOM     25  O   UNL     1       5.482   3.776  16.486  0.00  0.00    +0.000 OA
ATOM     26  C   UNL     1       6.002   3.831  15.170  0.00  0.00    +0.000 C 
ENDBRANCH  22  25
ENDBRANCH   1  18
TORSDOF 3
ENDMDL
