MODEL 1
REMARK VINA RESULT:      -7.5      0.000      0.000
REMARK  Name = 
REMARK  6 active torsions:
REMARK  status: ('A' for Active; 'I' for Inactive)
REMARK    1  A    between atoms: C_1  and  C_2
REMARK    2  A    between atoms: C_5  and  C_6
REMARK    3  A    between atoms: C_9  and  C_10
REMARK    4  A    between atoms: C_13  and  S_14
REMARK    5  A    between atoms: S_14  and  N_15
REMARK    6  A    between atoms: C_21  and  C_22
REMARK                            x       y       z     vdW  Elec       q    Type
REMARK                         _______ _______ _______ _____ _____    ______ ____
ROOT
ATOM      1  C   UNL     1       1.172   9.980  18.726  0.00  0.00    +0.000 A 
ATOM      2  N   UNL     1       1.865  10.076  17.610  0.00  0.00    +0.000 NA
ATOM      3  N   UNL     1       2.534   8.897  17.452  0.00  0.00    +0.000 NA
ATOM      4  C   UNL     1       2.224   8.157  18.495  0.00  0.00    +0.000 A 
ATOM      5  O   UNL     1       1.367   8.779  19.361  0.00  0.00    +0.000 OA
ENDROOT
BRANCH   1  10
ATOM      6  C   UNL     1      -2.132  14.175  20.939  0.00  0.00    +0.000 C 
ATOM      7  C   UNL     1      -1.292  13.046  20.420  0.00  0.00    +0.000 A 
ATOM      8  C   UNL     1       0.023  12.868  20.851  0.00  0.00    +0.000 A 
ATOM      9  C   UNL     1       0.805  11.834  20.325  0.00  0.00    +0.000 A 
ATOM     10  C   UNL     1       0.294  10.963  19.346  0.00  0.00    +0.000 A 
ATOM     11  C   UNL     1      -1.048  11.116  18.934  0.00  0.00    +0.000 A 
ATOM     12  C   UNL     1      -1.710  10.230  17.909  0.00  0.00    +0.000 C 
ATOM     13  C   UNL     1      -1.822  12.161  19.475  0.00  0.00    +0.000 A 
ENDBRANCH   1  10
BRANCH   4  14
ATOM     14  C   UNL     1       2.642   6.794  18.783  0.00  0.00    +0.000 A 
ATOM     15  C   UNL     1       3.418   6.119  17.828  0.00  0.00    +0.000 A 
ATOM     16  C   UNL     1       3.757   4.777  18.000  0.00  0.00    +0.000 A 
ATOM     17  C   UNL     1       3.322   4.105  19.142  0.00  0.00    +0.000 A 
ATOM     18  C   UNL     1       2.569   4.765  20.116  0.00  0.00    +0.000 A 
ATOM     19  C   UNL     1       2.240   6.115  19.942  0.00  0.00    +0.000 A 
BRANCH  17  20
ATOM     20  S   UNL     1       3.678   2.379  19.283  0.00  0.00    +0.000 S 
ATOM     21  O   UNL     1       4.795   2.214  20.195  0.00  0.00    +0.000 OA
ATOM     22  O   UNL     1       2.444   1.649  19.437  0.00  0.00    +0.000 OA
BRANCH  20  23
ATOM     23  N   UNL     1       4.261   2.038  17.759  0.00  0.00    +0.000 NA
ATOM     24  H   UNL     1       3.989   1.093  17.474  0.00  0.00    +0.000 HD
ATOM     25  H   UNL     1       3.979   2.769  17.109  0.00  0.00    +0.000 HD
ENDBRANCH  20  23
ENDBRANCH  17  20
ENDBRANCH   4  14
TORSDOF 4
ENDMDL
MODEL 2
REMARK VINA RESULT:      -7.5      2.937      3.510
REMARK  Name = 
REMARK  6 active torsions:
REMARK  status: ('A' for Active; 'I' for Inactive)
REMARK    1  A    between atoms: C_1  and  C_2
REMARK    2  A    between atoms: C_5  and  C_6
REMARK    3  A    between atoms: C_9  and  C_10
REMARK    4  A    between atoms: C_13  and  S_14
REMARK    5  A    between atoms: S_14  and  N_15
REMARK    6  A    between atoms: C_21  and  C_22
REMARK                            x       y       z     vdW  Elec       q    Type
REMARK                         _______ _______ _______ _____ _____    ______ ____
ROOT
ATOM      1  C   UNL     1       1.118   8.430  20.473  0.00  0.00    +0.000 A 
ATOM      2  N   UNL     1       1.048   7.354  21.229  0.00  0.00    +0.000 NA
ATOM      3  N   UNL     1       1.897   6.431  20.691  0.00  0.00    +0.000 NA
ATOM      4  C   UNL     1       2.422   6.994  19.623  0.00  0.00    +0.000 A 
ATOM      5  O   UNL     1       1.969   8.267  19.408  0.00  0.00    +0.000 OA
ENDROOT
BRANCH   1  10
ATOM      6  C   UNL     1      -2.047  13.249  20.892  0.00  0.00    +0.000 C 
ATOM      7  C   UNL     1      -1.168  12.038  20.785  0.00  0.00    +0.000 A 
ATOM      8  C   UNL     1      -0.683  11.606  19.551  0.00  0.00    +0.000 A 
ATOM      9  C   UNL     1       0.102  10.451  19.465  0.00  0.00    +0.000 A 
ATOM     10  C   UNL     1       0.409   9.695  20.611  0.00  0.00    +0.000 A 
ATOM     11  C   UNL     1      -0.048  10.149  21.867  0.00  0.00    +0.000 A 
ATOM     12  C   UNL     1       0.237   9.435  23.164  0.00  0.00    +0.000 C 
ATOM     13  C   UNL     1      -0.836  11.315  21.936  0.00  0.00    +0.000 A 
ENDBRANCH   1  10
BRANCH   4  14
ATOM     14  C   UNL     1       3.420   6.444  18.719  0.00  0.00    +0.000 A 
ATOM     15  C   UNL     1       4.082   5.264  19.094  0.00  0.00    +0.000 A 
ATOM     16  C   UNL     1       5.122   4.751  18.321  0.00  0.00    +0.000 A 
ATOM     17  C   UNL     1       5.502   5.420  17.157  0.00  0.00    +0.000 A 
ATOM     18  C   UNL     1       4.840   6.582  16.753  0.00  0.00    +0.000 A 
ATOM     19  C   UNL     1       3.789   7.088  17.529  0.00  0.00    +0.000 A 
BRANCH  17  20
ATOM     20  S   UNL     1       6.890   4.803  16.254  0.00  0.00    +0.000 S 
ATOM     21  O   UNL     1       6.461   3.655  15.477  0.00  0.00    +0.000 OA
ATOM     22  O   UNL     1       7.603   5.909  15.662  0.00  0.00    +0.000 OA
BRANCH  20  23
ATOM     23  N   UNL     1       7.846   4.208  17.484  0.00  0.00    +0.000 NA
ATOM     24  H   UNL     1       8.144   3.252  17.275  0.00  0.00    +0.000 HD
ATOM     25  H   UNL     1       8.610   4.854  17.670  0.00  0.00    +0.000 HD
ENDBRANCH  20  23
ENDBRANCH  17  20
ENDBRANCH   4  14
TORSDOF 4
ENDMDL
MODEL 3
REMARK VINA RESULT:      -7.5      3.931      8.481
REMARK  Name = 
REMARK  6 active torsions:
REMARK  status: ('A' for Active; 'I' for Inactive)
REMARK    1  A    between atoms: C_1  and  C_2
REMARK    2  A    between atoms: C_5  and  C_6
REMARK    3  A    between atoms: C_9  and  C_10
REMARK    4  A    between atoms: C_13  and  S_14
REMARK    5  A    between atoms: S_14  and  N_15
REMARK    6  A    between atoms: C_21  and  C_22
REMARK                            x       y       z     vdW  Elec       q    Type
REMARK                         _______ _______ _______ _____ _____    ______ ____
ROOT
ATOM      1  C   UNL     1       2.875   6.133  18.894  0.00  0.00    +0.000 A 
ATOM      2  N   UNL     1       2.436   5.360  19.866  0.00  0.00    +0.000 NA
ATOM      3  N   UNL     1       1.727   6.154  20.719  0.00  0.00    +0.000 NA
ATOM      4  C   UNL     1       1.793   7.373  20.226  0.00  0.00    +0.000 A 
ATOM      5  O   UNL     1       2.517   7.447  19.067  0.00  0.00    +0.000 OA
ENDROOT
BRANCH   1  10
ATOM      6  C   UNL     1       6.423   4.750  14.545  0.00  0.00    +0.000 C 
ATOM      7  C   UNL     1       5.453   5.123  15.626  0.00  0.00    +0.000 A 
ATOM      8  C   UNL     1       5.292   6.450  16.024  0.00  0.00    +0.000 A 
ATOM      9  C   UNL     1       4.412   6.776  17.062  0.00  0.00    +0.000 A 
ATOM     10  C   UNL     1       3.683   5.778  17.734  0.00  0.00    +0.000 A 
ATOM     11  C   UNL     1       3.815   4.438  17.311  0.00  0.00    +0.000 A 
ATOM     12  C   UNL     1       3.068   3.289  17.941  0.00  0.00    +0.000 C 
ATOM     13  C   UNL     1       4.703   4.128  16.263  0.00  0.00    +0.000 A 
ENDBRANCH   1  10
BRANCH   4  14
ATOM     14  C   UNL     1       1.167   8.582  20.738  0.00  0.00    +0.000 A 
ATOM     15  C   UNL     1       0.971   8.697  22.123  0.00  0.00    +0.000 A 
ATOM     16  C   UNL     1       0.280   9.782  22.661  0.00  0.00    +0.000 A 
ATOM     17  C   UNL     1      -0.215  10.767  21.806  0.00  0.00    +0.000 A 
ATOM     18  C   UNL     1      -0.010  10.684  20.427  0.00  0.00    +0.000 A 
ATOM     19  C   UNL     1       0.693   9.596  19.893  0.00  0.00    +0.000 A 
BRANCH  17  20
ATOM     20  S   UNL     1      -1.174  12.076  22.506  0.00  0.00    +0.000 S 
ATOM     21  O   UNL     1      -2.225  11.492  23.319  0.00  0.00    +0.000 OA
ATOM     22  O   UNL     1      -0.290  13.098  23.009  0.00  0.00    +0.000 OA
BRANCH  20  23
ATOM     23  N   UNL     1      -1.919  12.699  21.150  0.00  0.00    +0.000 NA
ATOM     24  H   UNL     1      -2.116  11.955  20.476  0.00  0.00    +0.000 HD
ATOM     25  H   UNL     1      -2.735  13.243  21.424  0.00  0.00    +0.000 HD
ENDBRANCH  20  23
ENDBRANCH  17  20
ENDBRANCH   4  14
TORSDOF 4
ENDMDL
MODEL 4
REMARK VINA RESULT:      -7.5      3.069      3.624
REMARK  Name = 
REMARK  6 active torsions:
REMARK  status: ('A' for Active; 'I' for Inactive)
REMARK    1  A    between atoms: C_1  and  C_2
REMARK    2  A    between atoms: C_5  and  C_6
REMARK    3  A    between atoms: C_9  and  C_10
REMARK    4  A    between atoms: C_13  and  S_14
REMARK    5  A    between atoms: S_14  and  N_15
REMARK    6  A    between atoms: C_21  and  C_22
REMARK                            x       y       z     vdW  Elec       q    Type
REMARK                         _______ _______ _______ _____ _____    ______ ____
ROOT
ATOM      1  C   UNL     1       1.273   7.715  20.634  0.00  0.00    +0.000 A 
ATOM      2  N   UNL     1       1.201   6.515  21.173  0.00  0.00    +0.000 NA
ATOM      3  N   UNL     1       2.014   5.699  20.441  0.00  0.00    +0.000 NA
ATOM      4  C   UNL     1       2.519   6.447  19.483  0.00  0.00    +0.000 A 
ATOM      5  O   UNL     1       2.088   7.745  19.530  0.00  0.00    +0.000 OA
ENDROOT
BRANCH   1  10
ATOM      6  C   UNL     1      -1.043  12.707  22.404  0.00  0.00    +0.000 C 
ATOM      7  C   UNL     1      -0.507  11.387  21.934  0.00  0.00    +0.000 A 
ATOM      8  C   UNL     1      -0.365  10.313  22.813  0.00  0.00    +0.000 A 
ATOM      9  C   UNL     1       0.175   9.102  22.367  0.00  0.00    +0.000 A 
ATOM     10  C   UNL     1       0.597   8.942  21.034  0.00  0.00    +0.000 A 
ATOM     11  C   UNL     1       0.421  10.014  20.133  0.00  0.00    +0.000 A 
ATOM     12  C   UNL     1       0.815   9.951  18.678  0.00  0.00    +0.000 C 
ATOM     13  C   UNL     1      -0.126  11.226  20.598  0.00  0.00    +0.000 A 
ENDBRANCH   1  10
BRANCH   4  14
ATOM     14  C   UNL     1       3.478   6.064  18.458  0.00  0.00    +0.000 A 
ATOM     15  C   UNL     1       3.831   4.710  18.349  0.00  0.00    +0.000 A 
ATOM     16  C   UNL     1       4.824   4.300  17.459  0.00  0.00    +0.000 A 
ATOM     17  C   UNL     1       5.465   5.252  16.667  0.00  0.00    +0.000 A 
ATOM     18  C   UNL     1       5.112   6.600  16.743  0.00  0.00    +0.000 A 
ATOM     19  C   UNL     1       4.107   7.006  17.632  0.00  0.00    +0.000 A 
BRANCH  17  20
ATOM     20  S   UNL     1       6.789   4.717  15.625  0.00  0.00    +0.000 S 
ATOM     21  O   UNL     1       6.833   5.578  14.457  0.00  0.00    +0.000 OA
ATOM     22  O   UNL     1       7.955   4.455  16.432  0.00  0.00    +0.000 OA
BRANCH  20  23
ATOM     23  N   UNL     1       6.219   3.240  15.099  0.00  0.00    +0.000 NA
ATOM     24  H   UNL     1       5.498   3.369  14.384  0.00  0.00    +0.000 HD
ATOM     25  H   UNL     1       6.998   2.653  14.809  0.00  0.00    +0.000 HD
ENDBRANCH  20  23
ENDBRANCH  17  20
ENDBRANCH   4  14
TORSDOF 4
ENDMDL
MODEL 5
REMARK VINA RESULT:      -7.4      0.714      1.229
REMARK  Name = 
REMARK  6 active torsions:
REMARK  status: ('A' for Active; 'I' for Inactive)
REMARK    1  A    between atoms: C_1  and  C_2
REMARK    2  A    between atoms: C_5  and  C_6
REMARK    3  A    between atoms: C_9  and  C_10
REMARK    4  A    between atoms: C_13  and  S_14
REMARK    5  A    between atoms: S_14  and  N_15
REMARK    6  A    between atoms: C_21  and  C_22
REMARK                            x       y       z     vdW  Elec       q    Type
REMARK                         _______ _______ _______ _____ _____    ______ ____
ROOT
ATOM      1  C   UNL     1       1.283  10.063  18.688  0.00  0.00    +0.000 A 
ATOM      2  N   UNL     1       2.041  10.101  17.612  0.00  0.00    +0.000 NA
ATOM      3  N   UNL     1       2.588   8.860  17.464  0.00  0.00    +0.000 NA
ATOM      4  C   UNL     1       2.146   8.142  18.474  0.00  0.00    +0.000 A 
ATOM      5  O   UNL     1       1.314   8.839  19.308  0.00  0.00    +0.000 OA
ENDROOT
BRANCH   1  10
ATOM      6  C   UNL     1      -1.714  14.547  20.770  0.00  0.00    +0.000 C 
ATOM      7  C   UNL     1      -0.953  13.348  20.288  0.00  0.00    +0.000 A 
ATOM      8  C   UNL     1       0.374  13.137  20.664  0.00  0.00    +0.000 A 
ATOM      9  C   UNL     1       1.082  12.035  20.173  0.00  0.00    +0.000 A 
ATOM     10  C   UNL     1       0.482  11.125  19.283  0.00  0.00    +0.000 A 
ATOM     11  C   UNL     1      -0.871  11.314  18.928  0.00  0.00    +0.000 A 
ATOM     12  C   UNL     1      -1.624  10.393  18.001  0.00  0.00    +0.000 C 
ATOM     13  C   UNL     1      -1.570  12.428  19.433  0.00  0.00    +0.000 A 
ENDBRANCH   1  10
BRANCH   4  14
ATOM     14  C   UNL     1       2.400   6.737  18.756  0.00  0.00    +0.000 A 
ATOM     15  C   UNL     1       2.093   6.247  20.035  0.00  0.00    +0.000 A 
ATOM     16  C   UNL     1       2.414   4.940  20.396  0.00  0.00    +0.000 A 
ATOM     17  C   UNL     1       3.043   4.110  19.468  0.00  0.00    +0.000 A 
ATOM     18  C   UNL     1       3.335   4.570  18.182  0.00  0.00    +0.000 A 
ATOM     19  C   UNL     1       3.002   5.882  17.822  0.00  0.00    +0.000 A 
BRANCH  17  20
ATOM     20  S   UNL     1       3.530   2.493  19.987  0.00  0.00    +0.000 S 
ATOM     21  O   UNL     1       3.357   2.399  21.425  0.00  0.00    +0.000 OA
ATOM     22  O   UNL     1       2.979   1.515  19.081  0.00  0.00    +0.000 OA
BRANCH  20  23
ATOM     23  N   UNL     1       5.174   2.540  19.713  0.00  0.00    +0.000 NA
ATOM     24  H   UNL     1       5.633   3.152  20.393  0.00  0.00    +0.000 HD
ATOM     25  H   UNL     1       5.546   1.593  19.683  0.00  0.00    +0.000 HD
ENDBRANCH  20  23
ENDBRANCH  17  20
ENDBRANCH   4  14
TORSDOF 4
ENDMDL
MODEL 6
REMARK VINA RESULT:      -7.4      1.013      1.259
REMARK  Name = 
REMARK  6 active torsions:
REMARK  status: ('A' for Active; 'I' for Inactive)
REMARK    1  A    between atoms: C_1  and  C_2
REMARK    2  A    between atoms: C_5  and  C_6
REMARK    3  A    between atoms: C_9  and  C_10
REMARK    4  A    between atoms: C_13  and  S_14
REMARK    5  A    between atoms: S_14  and  N_15
REMARK    6  A    between atoms: C_21  and  C_22
REMARK                            x       y       z     vdW  Elec       q    Type
REMARK                         _______ _______ _______ _____ _____    ______ ____
ROOT
ATOM      1  C   UNL     1       1.231  10.108  18.707  0.00  0.00    +0.000 A 
ATOM      2  N   UNL     1       1.847   9.999  17.547  0.00  0.00    +0.000 NA
ATOM      3  N   UNL     1       2.437   8.769  17.523  0.00  0.00    +0.000 NA
ATOM      4  C   UNL     1       2.163   8.207  18.680  0.00  0.00    +0.000 A 
ATOM      5  O   UNL     1       1.405   9.000  19.498  0.00  0.00    +0.000 OA
ENDROOT
BRANCH   1  10
ATOM      6  C   UNL     1      -1.690  14.774  20.471  0.00  0.00    +0.000 C 
ATOM      7  C   UNL     1      -0.945  13.534  20.076  0.00  0.00    +0.000 A 
ATOM      8  C   UNL     1       0.403  13.368  20.399  0.00  0.00    +0.000 A 
ATOM      9  C   UNL     1       1.093  12.223  19.987  0.00  0.00    +0.000 A 
ATOM     10  C   UNL     1       0.454  11.223  19.230  0.00  0.00    +0.000 A 
ATOM     11  C   UNL     1      -0.918  11.369  18.933  0.00  0.00    +0.000 A 
ATOM     12  C   UNL     1      -1.712  10.354  18.149  0.00  0.00    +0.000 C 
ATOM     13  C   UNL     1      -1.599  12.528  19.357  0.00  0.00    +0.000 A 
ENDBRANCH   1  10
BRANCH   4  14
ATOM     14  C   UNL     1       2.526   6.874  19.139  0.00  0.00    +0.000 A 
ATOM     15  C   UNL     1       3.368   6.097  18.328  0.00  0.00    +0.000 A 
ATOM     16  C   UNL     1       3.662   4.776  18.662  0.00  0.00    +0.000 A 
ATOM     17  C   UNL     1       3.115   4.227  19.822  0.00  0.00    +0.000 A 
ATOM     18  C   UNL     1       2.296   4.992  20.656  0.00  0.00    +0.000 A 
ATOM     19  C   UNL     1       2.011   6.322  20.319  0.00  0.00    +0.000 A 
BRANCH  17  20
ATOM     20  S   UNL     1       3.422   2.521  20.166  0.00  0.00    +0.000 S 
ATOM     21  O   UNL     1       2.527   1.720  19.352  0.00  0.00    +0.000 OA
ATOM     22  O   UNL     1       4.846   2.291  20.198  0.00  0.00    +0.000 OA
BRANCH  20  23
ATOM     23  N   UNL     1       2.871   2.396  21.735  0.00  0.00    +0.000 NA
ATOM     24  H   UNL     1       3.497   2.894  22.374  0.00  0.00    +0.000 HD
ATOM     25  H   UNL     1       1.899   2.693  21.783  0.00  0.00    +0.000 HD
ENDBRANCH  20  23
ENDBRANCH  17  20
ENDBRANCH   4  14
TORSDOF 4
ENDMDL
MODEL 7
REMARK VINA RESULT:      -7.4      1.969      2.616
REMARK  Name = 
REMARK  6 active torsions:
REMARK  status: ('A' for Active; 'I' for Inactive)
REMARK    1  A    between atoms: C_1  and  C_2
REMARK    2  A    between atoms: C_5  and  C_6
REMARK    3  A    between atoms: C_9  and  C_10
REMARK    4  A    between atoms: C_13  and  S_14
REMARK    5  A    between atoms: S_14  and  N_15
REMARK    6  A    between atoms: C_21  and  C_22
REMARK                            x       y       z     vdW  Elec       q    Type
REMARK                         _______ _______ _______ _____ _____    ______ ____
ROOT
ATOM      1  C   UNL     1       0.279  10.204  19.704  0.00  0.00    +0.000 A 
ATOM      2  N   UNL     1       0.387  10.550  18.438  0.00  0.00    +0.000 NA
ATOM      3  N   UNL     1       1.229   9.651  17.849  0.00  0.00    +0.000 NA
ATOM      4  C   UNL     1       1.602   8.820  18.799  0.00  0.00    +0.000 A 
ATOM      5  O   UNL     1       1.047   9.110  20.016  0.00  0.00    +0.000 OA
ENDROOT
BRANCH   1  10
ATOM      6  C   UNL     1      -3.134  12.477  23.779  0.00  0.00    +0.000 C 
ATOM      7  C   UNL     1      -2.203  11.940  22.733  0.00  0.00    +0.000 A 
ATOM      8  C   UNL     1      -2.256  12.400  21.416  0.00  0.00    +0.000 A 
ATOM      9  C   UNL     1      -1.408  11.859  20.444  0.00  0.00    +0.000 A 
ATOM     10  C   UNL     1      -0.497  10.836  20.764  0.00  0.00    +0.000 A 
ATOM     11  C   UNL     1      -0.414  10.393  22.101  0.00  0.00    +0.000 A 
ATOM     12  C   UNL     1       0.538   9.319  22.565  0.00  0.00    +0.000 C 
ATOM     13  C   UNL     1      -1.274  10.950  23.069  0.00  0.00    +0.000 A 
ENDBRANCH   1  10
BRANCH   4  14
ATOM     14  C   UNL     1       2.464   7.654  18.683  0.00  0.00    +0.000 A 
ATOM     15  C   UNL     1       2.417   6.688  19.700  0.00  0.00    +0.000 A 
ATOM     16  C   UNL     1       3.296   5.605  19.698  0.00  0.00    +0.000 A 
ATOM     17  C   UNL     1       4.226   5.482  18.666  0.00  0.00    +0.000 A 
ATOM     18  C   UNL     1       4.272   6.419  17.632  0.00  0.00    +0.000 A 
ATOM     19  C   UNL     1       3.381   7.501  17.634  0.00  0.00    +0.000 A 
BRANCH  17  20
ATOM     20  S   UNL     1       5.393   4.157  18.745  0.00  0.00    +0.000 S 
ATOM     21  O   UNL     1       6.716   4.721  18.939  0.00  0.00    +0.000 OA
ATOM     22  O   UNL     1       4.870   3.112  19.591  0.00  0.00    +0.000 OA
BRANCH  20  23
ATOM     23  N   UNL     1       5.349   3.586  17.179  0.00  0.00    +0.000 NA
ATOM     24  H   UNL     1       4.780   2.737  17.123  0.00  0.00    +0.000 HD
ATOM     25  H   UNL     1       5.056   4.329  16.549  0.00  0.00    +0.000 HD
ENDBRANCH  20  23
ENDBRANCH  17  20
ENDBRANCH   4  14
TORSDOF 4
ENDMDL
MODEL 8
REMARK VINA RESULT:      -7.4      2.886      3.427
REMARK  Name = 
REMARK  6 active torsions:
REMARK  status: ('A' for Active; 'I' for Inactive)
REMARK    1  A    between atoms: C_1  and  C_2
REMARK    2  A    between atoms: C_5  and  C_6
REMARK    3  A    between atoms: C_9  and  C_10
REMARK    4  A    between atoms: C_13  and  S_14
REMARK    5  A    between atoms: S_14  and  N_15
REMARK    6  A    between atoms: C_21  and  C_22
REMARK                            x       y       z     vdW  Elec       q    Type
REMARK                         _______ _______ _______ _____ _____    ______ ____
ROOT
ATOM      1  C   UNL     1       1.076   8.273  20.373  0.00  0.00    +0.000 A 
ATOM      2  N   UNL     1       0.911   7.160  21.058  0.00  0.00    +0.000 NA
ATOM      3  N   UNL     1       1.832   6.266  20.596  0.00  0.00    +0.000 NA
ATOM      4  C   UNL     1       2.493   6.882  19.639  0.00  0.00    +0.000 A 
ATOM      5  O   UNL     1       2.065   8.165  19.428  0.00  0.00    +0.000 OA
ENDROOT
BRANCH   1  10
ATOM      6  C   UNL     1      -2.176  13.042  20.695  0.00  0.00    +0.000 C 
ATOM      7  C   UNL     1      -1.275  11.846  20.607  0.00  0.00    +0.000 A 
ATOM      8  C   UNL     1      -0.869  11.338  19.372  0.00  0.00    +0.000 A 
ATOM      9  C   UNL     1      -0.063  10.197  19.308  0.00  0.00    +0.000 A 
ATOM     10  C   UNL     1       0.346   9.530  20.477  0.00  0.00    +0.000 A 
ATOM     11  C   UNL     1      -0.030  10.062  21.729  0.00  0.00    +0.000 A 
ATOM     12  C   UNL     1       0.366   9.446  23.048  0.00  0.00    +0.000 C 
ATOM     13  C   UNL     1      -0.842  11.212  21.777  0.00  0.00    +0.000 A 
ENDBRANCH   1  10
BRANCH   4  14
ATOM     14  C   UNL     1       3.610   6.379  18.853  0.00  0.00    +0.000 A 
ATOM     15  C   UNL     1       3.864   6.967  17.604  0.00  0.00    +0.000 A 
ATOM     16  C   UNL     1       4.850   6.458  16.761  0.00  0.00    +0.000 A 
ATOM     17  C   UNL     1       5.596   5.353  17.172  0.00  0.00    +0.000 A 
ATOM     18  C   UNL     1       5.376   4.769  18.422  0.00  0.00    +0.000 A 
ATOM     19  C   UNL     1       4.389   5.291  19.269  0.00  0.00    +0.000 A 
BRANCH  17  20
ATOM     20  S   UNL     1       6.767   4.666  16.041  0.00  0.00    +0.000 S 
ATOM     21  O   UNL     1       6.736   5.445  14.817  0.00  0.00    +0.000 OA
ATOM     22  O   UNL     1       7.996   4.382  16.742  0.00  0.00    +0.000 OA
BRANCH  20  23
ATOM     23  N   UNL     1       6.059   3.199  15.683  0.00  0.00    +0.000 NA
ATOM     24  H   UNL     1       6.772   2.472  15.584  0.00  0.00    +0.000 HD
ATOM     25  H   UNL     1       5.337   2.988  16.370  0.00  0.00    +0.000 HD
ENDBRANCH  20  23
ENDBRANCH  17  20
ENDBRANCH   4  14
TORSDOF 4
ENDMDL
MODEL 9
REMARK VINA RESULT:      -7.4      3.781      8.613
REMARK  Name = 
REMARK  6 active torsions:
REMARK  status: ('A' for Active; 'I' for Inactive)
REMARK    1  A    between atoms: C_1  and  C_2
REMARK    2  A    between atoms: C_5  and  C_6
REMARK    3  A    between atoms: C_9  and  C_10
REMARK    4  A    between atoms: C_13  and  S_14
REMARK    5  A    between atoms: S_14  and  N_15
REMARK    6  A    between atoms: C_21  and  C_22
REMARK                            x       y       z     vdW  Elec       q    Type
REMARK                         _______ _______ _______ _____ _____    ______ ____
ROOT
ATOM      1  C   UNL     1       4.516   5.309  17.874  0.00  0.00    +0.000 A 
ATOM      2  N   UNL     1       4.387   4.577  18.962  0.00  0.00    +0.000 NA
ATOM      3  N   UNL     1       3.520   5.234  19.785  0.00  0.00    +0.000 NA
ATOM      4  C   UNL     1       3.186   6.342  19.159  0.00  0.00    +0.000 A 
ATOM      5  O   UNL     1       3.787   6.470  17.936  0.00  0.00    +0.000 OA
ENDROOT
BRANCH   1  10
ATOM      6  C   UNL     1       7.511   4.615  12.979  0.00  0.00    +0.000 C 
ATOM      7  C   UNL     1       6.758   4.732  14.271  0.00  0.00    +0.000 A 
ATOM      8  C   UNL     1       5.487   4.176  14.417  0.00  0.00    +0.000 A 
ATOM      9  C   UNL     1       4.782   4.330  15.615  0.00  0.00    +0.000 A 
ATOM     10  C   UNL     1       5.326   5.056  16.690  0.00  0.00    +0.000 A 
ATOM     11  C   UNL     1       6.627   5.590  16.560  0.00  0.00    +0.000 A 
ATOM     12  C   UNL     1       7.321   6.366  17.651  0.00  0.00    +0.000 C 
ATOM     13  C   UNL     1       7.324   5.424  15.347  0.00  0.00    +0.000 A 
ENDBRANCH   1  10
BRANCH   4  14
ATOM     14  C   UNL     1       2.253   7.371  19.591  0.00  0.00    +0.000 A 
ATOM     15  C   UNL     1       1.962   8.420  18.706  0.00  0.00    +0.000 A 
ATOM     16  C   UNL     1       1.161   9.490  19.104  0.00  0.00    +0.000 A 
ATOM     17  C   UNL     1       0.639   9.507  20.398  0.00  0.00    +0.000 A 
ATOM     18  C   UNL     1       0.897   8.461  21.286  0.00  0.00    +0.000 A 
ATOM     19  C   UNL     1       1.695   7.384  20.877  0.00  0.00    +0.000 A 
BRANCH  17  20
ATOM     20  S   UNL     1      -0.287  10.924  20.907  0.00  0.00    +0.000 S 
ATOM     21  O   UNL     1      -1.036  11.418  19.766  0.00  0.00    +0.000 OA
ATOM     22  O   UNL     1      -0.911  10.653  22.179  0.00  0.00    +0.000 OA
BRANCH  20  23
ATOM     23  N   UNL     1       0.930  12.030  21.185  0.00  0.00    +0.000 NA
ATOM     24  H   UNL     1       0.999  12.243  22.184  0.00  0.00    +0.000 HD
ATOM     25  H   UNL     1       1.797  11.702  20.765  0.00  0.00    +0.000 HD
ENDBRANCH  20  23
ENDBRANCH  17  20
ENDBRANCH   4  14
TORSDOF 4
ENDMDL
