MODEL 1
REMARK VINA RESULT:      -7.6      0.000      0.000
REMARK  Name = 
REMARK  3 active torsions:
REMARK  status: ('A' for Active; 'I' for Inactive)
REMARK    1  A    between atoms: S_2  and  C_4
REMARK    2  A    between atoms: S_2  and  C_11
REMARK    3  A    between atoms: C_21  and  N_22
REMARK                            x       y       z     vdW  Elec       q    Type
REMARK                         _______ _______ _______ _____ _____    ______ ____
ROOT
ATOM      1  C   UNL     1       3.389   5.632  18.275  0.00  0.00    +0.000 A 
ATOM      2  C   UNL     1       3.807   6.784  17.635  0.00  0.00    +0.000 A 
ATOM      3  N   UNL     1       3.277   8.005  17.842  0.00  0.00    +0.000 NA
ATOM      4  C   UNL     1       2.324   8.134  18.770  0.00  0.00    +0.000 A 
ATOM      5  C   UNL     1       1.753   9.397  18.904  0.00  0.00    +0.000 A 
ATOM      6  C   UNL     1       0.777   9.672  19.861  0.00  0.00    +0.000 A 
ATOM      7  C   UNL     1       0.431   8.676  20.740  0.00  0.00    +0.000 A 
ATOM      8  F   UNL     1      -0.477   8.912  21.699  0.00  0.00    +0.000 F 
ATOM      9  C   UNL     1       1.009   7.414  20.642  0.00  0.00    +0.000 A 
ATOM     10  C   UNL     1       1.911   7.059  19.596  0.00  0.00    +0.000 A 
ATOM     11  C   UNL     1       2.437   5.726  19.334  0.00  0.00    +0.000 A 
ENDROOT
BRANCH  11  12
ATOM     12  N   UNL     1       2.045   4.657  20.146  0.00  0.00    +0.000 N 
ATOM     13  C   UNL     1       2.617   4.364  21.481  0.00  0.00    +0.000 C 
ATOM     14  C   UNL     1       2.877   2.842  21.564  0.00  0.00    +0.000 C 
ATOM     15  O   UNL     1       1.642   2.116  21.448  0.00  0.00    +0.000 OA
ATOM     16  C   UNL     1       1.035   2.381  20.179  0.00  0.00    +0.000 C 
ATOM     17  C   UNL     1       0.810   3.879  19.926  0.00  0.00    +0.000 C 
ENDBRANCH  11  12
BRANCH   1  19
ATOM     18  O   UNL     1       2.849   3.476  16.918  0.00  0.00    +0.000 OA
ATOM     19  S   UNL     1       3.975   4.106  17.576  0.00  0.00    +0.000 S 
ATOM     20  O   UNL     1       4.704   3.423  18.632  0.00  0.00    +0.000 OA
BRANCH  19  21
ATOM     21  C   UNL     1       5.201   4.277  16.282  0.00  0.00    +0.000 A 
ATOM     22  C   UNL     1       6.501   4.697  16.568  0.00  0.00    +0.000 A 
ATOM     23  C   UNL     1       7.386   4.947  15.505  0.00  0.00    +0.000 A 
ATOM     24  C   UNL     1       6.961   4.805  14.186  0.00  0.00    +0.000 A 
ATOM     25 CL   UNL     1       8.033   5.175  12.890  0.00  0.00    +0.000 Cl
ATOM     26  C   UNL     1       5.659   4.405  13.899  0.00  0.00    +0.000 A 
ATOM     27  C   UNL     1       4.785   4.133  14.951  0.00  0.00    +0.000 A 
ENDBRANCH  19  21
ENDBRANCH   1  19
TORSDOF 3
ENDMDL
MODEL 2
REMARK VINA RESULT:      -6.8     10.044     12.493
REMARK  Name = 
REMARK  3 active torsions:
REMARK  status: ('A' for Active; 'I' for Inactive)
REMARK    1  A    between atoms: S_2  and  C_4
REMARK    2  A    between atoms: S_2  and  C_11
REMARK    3  A    between atoms: C_21  and  N_22
REMARK                            x       y       z     vdW  Elec       q    Type
REMARK                         _______ _______ _______ _____ _____    ______ ____
ROOT
ATOM      1  C   UNL     1       8.705  13.659  21.402  0.00  0.00    +0.000 A 
ATOM      2  C   UNL     1       9.499  12.606  21.817  0.00  0.00    +0.000 A 
ATOM      3  N   UNL     1      10.350  11.934  21.018  0.00  0.00    +0.000 NA
ATOM      4  C   UNL     1      10.492  12.344  19.754  0.00  0.00    +0.000 A 
ATOM      5  C   UNL     1      11.328  11.582  18.942  0.00  0.00    +0.000 A 
ATOM      6  C   UNL     1      11.589  11.924  17.617  0.00  0.00    +0.000 A 
ATOM      7  C   UNL     1      11.057  13.093  17.132  0.00  0.00    +0.000 A 
ATOM      8  F   UNL     1      11.315  13.477  15.873  0.00  0.00    +0.000 F 
ATOM      9  C   UNL     1      10.240  13.884  17.933  0.00  0.00    +0.000 A 
ATOM     10  C   UNL     1       9.845  13.499  19.248  0.00  0.00    +0.000 A 
ATOM     11  C   UNL     1       8.877  14.191  20.089  0.00  0.00    +0.000 A 
ENDROOT
BRANCH  11  12
ATOM     12  N   UNL     1       8.238  15.338  19.607  0.00  0.00    +0.000 N 
ATOM     13  C   UNL     1       8.771  16.713  19.740  0.00  0.00    +0.000 C 
ATOM     14  C   UNL     1       7.606  17.635  20.171  0.00  0.00    +0.000 C 
ATOM     15  O   UNL     1       6.584  17.657  19.161  0.00  0.00    +0.000 OA
ATOM     16  C   UNL     1       6.048  16.342  18.977  0.00  0.00    +0.000 C 
ATOM     17  C   UNL     1       7.124  15.301  18.638  0.00  0.00    +0.000 C 
ENDBRANCH  11  12
BRANCH   1  19
ATOM     18  O   UNL     1       6.162  14.070  21.788  0.00  0.00    +0.000 OA
ATOM     19  S   UNL     1       7.408  14.135  22.522  0.00  0.00    +0.000 S 
ATOM     20  O   UNL     1       7.844  15.371  23.153  0.00  0.00    +0.000 OA
BRANCH  19  21
ATOM     21  C   UNL     1       7.158  13.036  23.914  0.00  0.00    +0.000 A 
ATOM     22  C   UNL     1       6.223  12.001  23.860  0.00  0.00    +0.000 A 
ATOM     23  C   UNL     1       5.966  11.253  25.023  0.00  0.00    +0.000 A 
ATOM     24  C   UNL     1       6.615  11.561  26.216  0.00  0.00    +0.000 A 
ATOM     25 CL   UNL     1       6.246  10.680  27.649  0.00  0.00    +0.000 Cl
ATOM     26  C   UNL     1       7.534  12.605  26.276  0.00  0.00    +0.000 A 
ATOM     27  C   UNL     1       7.808  13.335  25.119  0.00  0.00    +0.000 A 
ENDBRANCH  19  21
ENDBRANCH   1  19
TORSDOF 3
ENDMDL
MODEL 3
REMARK VINA RESULT:      -6.7      5.872      8.166
REMARK  Name = 
REMARK  3 active torsions:
REMARK  status: ('A' for Active; 'I' for Inactive)
REMARK    1  A    between atoms: S_2  and  C_4
REMARK    2  A    between atoms: S_2  and  C_11
REMARK    3  A    between atoms: C_21  and  N_22
REMARK                            x       y       z     vdW  Elec       q    Type
REMARK                         _______ _______ _______ _____ _____    ______ ____
ROOT
ATOM      1  C   UNL     1      -1.004  11.118  19.088  0.00  0.00    +0.000 A 
ATOM      2  C   UNL     1      -1.324  10.393  17.955  0.00  0.00    +0.000 A 
ATOM      3  N   UNL     1      -2.565  10.287  17.444  0.00  0.00    +0.000 NA
ATOM      4  C   UNL     1      -3.553  10.974  18.026  0.00  0.00    +0.000 A 
ATOM      5  C   UNL     1      -4.832  10.783  17.512  0.00  0.00    +0.000 A 
ATOM      6  C   UNL     1      -5.940  11.469  18.005  0.00  0.00    +0.000 A 
ATOM      7  C   UNL     1      -5.737  12.414  18.980  0.00  0.00    +0.000 A 
ATOM      8  F   UNL     1      -6.773  13.122  19.455  0.00  0.00    +0.000 F 
ATOM      9  C   UNL     1      -4.463  12.641  19.491  0.00  0.00    +0.000 A 
ATOM     10  C   UNL     1      -3.330  11.867  19.104  0.00  0.00    +0.000 A 
ATOM     11  C   UNL     1      -2.001  11.937  19.699  0.00  0.00    +0.000 A 
ENDROOT
BRANCH  11  12
ATOM     12  N   UNL     1      -1.763  12.820  20.756  0.00  0.00    +0.000 N 
ATOM     13  C   UNL     1      -1.200  14.182  20.602  0.00  0.00    +0.000 C 
ATOM     14  C   UNL     1      -0.131  14.381  21.702  0.00  0.00    +0.000 C 
ATOM     15  O   UNL     1      -0.731  14.301  23.005  0.00  0.00    +0.000 OA
ATOM     16  C   UNL     1      -1.311  13.006  23.198  0.00  0.00    +0.000 C 
ATOM     17  C   UNL     1      -2.329  12.640  22.109  0.00  0.00    +0.000 C 
ENDBRANCH  11  12
BRANCH   1  19
ATOM     18  O   UNL     1       0.449  10.695  21.207  0.00  0.00    +0.000 OA
ATOM     19  S   UNL     1       0.607  10.809  19.773  0.00  0.00    +0.000 S 
ATOM     20  O   UNL     1       1.497  11.803  19.193  0.00  0.00    +0.000 OA
BRANCH  19  21
ATOM     21  C   UNL     1       1.360   9.259  19.288  0.00  0.00    +0.000 A 
ATOM     22  C   UNL     1       1.494   8.204  20.193  0.00  0.00    +0.000 A 
ATOM     23  C   UNL     1       2.213   7.060  19.805  0.00  0.00    +0.000 A 
ATOM     24  C   UNL     1       2.805   6.993  18.546  0.00  0.00    +0.000 A 
ATOM     25 CL   UNL     1       3.738   5.614  18.105  0.00  0.00    +0.000 Cl
ATOM     26  C   UNL     1       2.689   8.051  17.649  0.00  0.00    +0.000 A 
ATOM     27  C   UNL     1       1.957   9.179  18.022  0.00  0.00    +0.000 A 
ENDBRANCH  19  21
ENDBRANCH   1  19
TORSDOF 3
ENDMDL
MODEL 4
REMARK VINA RESULT:      -6.6      6.994     10.312
REMARK  Name = 
REMARK  3 active torsions:
REMARK  status: ('A' for Active; 'I' for Inactive)
REMARK    1  A    between atoms: S_2  and  C_4
REMARK    2  A    between atoms: S_2  and  C_11
REMARK    3  A    between atoms: C_21  and  N_22
REMARK                            x       y       z     vdW  Elec       q    Type
REMARK                         _______ _______ _______ _____ _____    ______ ____
ROOT
ATOM      1  C   UNL     1      -1.310  11.864  20.564  0.00  0.00    +0.000 A 
ATOM      2  C   UNL     1      -2.580  12.412  20.583  0.00  0.00    +0.000 A 
ATOM      3  N   UNL     1      -3.462  12.324  19.569  0.00  0.00    +0.000 NA
ATOM      4  C   UNL     1      -3.122  11.609  18.492  0.00  0.00    +0.000 A 
ATOM      5  C   UNL     1      -4.032  11.600  17.438  0.00  0.00    +0.000 A 
ATOM      6  C   UNL     1      -3.814  10.864  16.276  0.00  0.00    +0.000 A 
ATOM      7  C   UNL     1      -2.697  10.069  16.212  0.00  0.00    +0.000 A 
ATOM      8  F   UNL     1      -2.470   9.315  15.126  0.00  0.00    +0.000 F 
ATOM      9  C   UNL     1      -1.787  10.041  17.264  0.00  0.00    +0.000 A 
ATOM     10  C   UNL     1      -1.910  10.880  18.411  0.00  0.00    +0.000 A 
ATOM     11  C   UNL     1      -0.928  11.022  19.478  0.00  0.00    +0.000 A 
ENDROOT
BRANCH  11  12
ATOM     12  N   UNL     1       0.269  10.301  19.415  0.00  0.00    +0.000 N 
ATOM     13  C   UNL     1       1.405  10.636  18.526  0.00  0.00    +0.000 C 
ATOM     14  C   UNL     1       1.912   9.323  17.886  0.00  0.00    +0.000 C 
ATOM     15  O   UNL     1       2.398   8.427  18.899  0.00  0.00    +0.000 OA
ATOM     16  C   UNL     1       1.340   8.086  19.801  0.00  0.00    +0.000 C 
ATOM     17  C   UNL     1       0.679   9.317  20.438  0.00  0.00    +0.000 C 
ENDBRANCH  11  12
BRANCH   1  19
ATOM     18  O   UNL     1       1.051  12.749  21.215  0.00  0.00    +0.000 OA
ATOM     19  S   UNL     1      -0.210  12.423  21.845  0.00  0.00    +0.000 S 
ATOM     20  O   UNL     1      -0.283  11.433  22.908  0.00  0.00    +0.000 OA
BRANCH  19  21
ATOM     21  C   UNL     1      -0.698  13.937  22.666  0.00  0.00    +0.000 A 
ATOM     22  C   UNL     1      -0.119  15.162  22.330  0.00  0.00    +0.000 A 
ATOM     23  C   UNL     1      -0.435  16.298  23.095  0.00  0.00    +0.000 A 
ATOM     24  C   UNL     1      -1.292  16.196  24.188  0.00  0.00    +0.000 A 
ATOM     25 CL   UNL     1      -1.622  17.581  25.157  0.00  0.00    +0.000 Cl
ATOM     26  C   UNL     1      -1.855  14.972  24.537  0.00  0.00    +0.000 A 
ATOM     27  C   UNL     1      -1.562  13.846  23.766  0.00  0.00    +0.000 A 
ENDBRANCH  19  21
ENDBRANCH   1  19
TORSDOF 3
ENDMDL
MODEL 5
REMARK VINA RESULT:      -6.5      6.175      8.528
REMARK  Name = 
REMARK  3 active torsions:
REMARK  status: ('A' for Active; 'I' for Inactive)
REMARK    1  A    between atoms: S_2  and  C_4
REMARK    2  A    between atoms: S_2  and  C_11
REMARK    3  A    between atoms: C_21  and  N_22
REMARK                            x       y       z     vdW  Elec       q    Type
REMARK                         _______ _______ _______ _____ _____    ______ ____
ROOT
ATOM      1  C   UNL     1      -1.265  11.303  19.640  0.00  0.00    +0.000 A 
ATOM      2  C   UNL     1      -1.483  10.791  18.374  0.00  0.00    +0.000 A 
ATOM      3  N   UNL     1      -2.657  10.855  17.719  0.00  0.00    +0.000 NA
ATOM      4  C   UNL     1      -3.670  11.509  18.294  0.00  0.00    +0.000 A 
ATOM      5  C   UNL     1      -4.887  11.493  17.617  0.00  0.00    +0.000 A 
ATOM      6  C   UNL     1      -6.009  12.169  18.092  0.00  0.00    +0.000 A 
ATOM      7  C   UNL     1      -5.876  12.930  19.226  0.00  0.00    +0.000 A 
ATOM      8  F   UNL     1      -6.923  13.626  19.694  0.00  0.00    +0.000 F 
ATOM      9  C   UNL     1      -4.663  12.983  19.905  0.00  0.00    +0.000 A 
ATOM     10  C   UNL     1      -3.533  12.202  19.523  0.00  0.00    +0.000 A 
ATOM     11  C   UNL     1      -2.284  12.083  20.263  0.00  0.00    +0.000 A 
ENDROOT
BRANCH  11  12
ATOM     12  N   UNL     1      -2.130  12.769  21.473  0.00  0.00    +0.000 N 
ATOM     13  C   UNL     1      -2.501  12.224  22.799  0.00  0.00    +0.000 C 
ATOM     14  C   UNL     1      -3.240  13.336  23.580  0.00  0.00    +0.000 C 
ATOM     15  O   UNL     1      -2.370  14.459  23.796  0.00  0.00    +0.000 OA
ATOM     16  C   UNL     1      -1.963  15.013  22.540  0.00  0.00    +0.000 C 
ATOM     17  C   UNL     1      -1.297  13.979  21.620  0.00  0.00    +0.000 C 
ENDBRANCH  11  12
BRANCH   1  19
ATOM     18  O   UNL     1      -0.130  10.269  21.743  0.00  0.00    +0.000 OA
ATOM     19  S   UNL     1       0.235  10.776  20.438  0.00  0.00    +0.000 S 
ATOM     20  O   UNL     1       1.181  11.871  20.296  0.00  0.00    +0.000 OA
BRANCH  19  21
ATOM     21  C   UNL     1       1.079   9.406  19.653  0.00  0.00    +0.000 A 
ATOM     22  C   UNL     1       1.411   8.254  20.368  0.00  0.00    +0.000 A 
ATOM     23  C   UNL     1       2.192   7.266  19.744  0.00  0.00    +0.000 A 
ATOM     24  C   UNL     1       2.650   7.448  18.441  0.00  0.00    +0.000 A 
ATOM     25 CL   UNL     1       3.660   6.261  17.708  0.00  0.00    +0.000 Cl
ATOM     26  C   UNL     1       2.336   8.605  17.733  0.00  0.00    +0.000 A 
ATOM     27  C   UNL     1       1.541   9.578  18.340  0.00  0.00    +0.000 A 
ENDBRANCH  19  21
ENDBRANCH   1  19
TORSDOF 3
ENDMDL
MODEL 6
REMARK VINA RESULT:      -6.5      6.017      8.361
REMARK  Name = 
REMARK  3 active torsions:
REMARK  status: ('A' for Active; 'I' for Inactive)
REMARK    1  A    between atoms: S_2  and  C_4
REMARK    2  A    between atoms: S_2  and  C_11
REMARK    3  A    between atoms: C_21  and  N_22
REMARK                            x       y       z     vdW  Elec       q    Type
REMARK                         _______ _______ _______ _____ _____    ______ ____
ROOT
ATOM      1  C   UNL     1      -1.066  11.067  19.394  0.00  0.00    +0.000 A 
ATOM      2  C   UNL     1      -1.247  10.422  18.185  0.00  0.00    +0.000 A 
ATOM      3  N   UNL     1      -2.411  10.388  17.508  0.00  0.00    +0.000 NA
ATOM      4  C   UNL     1      -3.450  11.071  17.996  0.00  0.00    +0.000 A 
ATOM      5  C   UNL     1      -4.654  10.953  17.305  0.00  0.00    +0.000 A 
ATOM      6  C   UNL     1      -5.800  11.644  17.690  0.00  0.00    +0.000 A 
ATOM      7  C   UNL     1      -5.708  12.521  18.742  0.00  0.00    +0.000 A 
ATOM      8  F   UNL     1      -6.780  13.233  19.120  0.00  0.00    +0.000 F 
ATOM      9  C   UNL     1      -4.509  12.675  19.431  0.00  0.00    +0.000 A 
ATOM     10  C   UNL     1      -3.353  11.889  19.149  0.00  0.00    +0.000 A 
ATOM     11  C   UNL     1      -2.115  11.880  19.918  0.00  0.00    +0.000 A 
ENDROOT
BRANCH  11  12
ATOM     12  N   UNL     1      -2.001  12.690  21.053  0.00  0.00    +0.000 N 
ATOM     13  C   UNL     1      -2.340  12.259  22.429  0.00  0.00    +0.000 C 
ATOM     14  C   UNL     1      -3.141  13.399  23.100  0.00  0.00    +0.000 C 
ATOM     15  O   UNL     1      -2.337  14.585  23.199  0.00  0.00    +0.000 OA
ATOM     16  C   UNL     1      -1.962  15.034  21.892  0.00  0.00    +0.000 C 
ATOM     17  C   UNL     1      -1.238  13.954  21.075  0.00  0.00    +0.000 C 
ENDBRANCH  11  12
BRANCH   1  19
ATOM     18  O   UNL     1       0.047  10.169  21.571  0.00  0.00    +0.000 OA
ATOM     19  S   UNL     1       0.431  10.665  20.266  0.00  0.00    +0.000 S 
ATOM     20  O   UNL     1       1.308  11.817  20.130  0.00  0.00    +0.000 OA
BRANCH  19  21
ATOM     21  C   UNL     1       1.396   9.334  19.556  0.00  0.00    +0.000 A 
ATOM     22  C   UNL     1       1.825   9.379  18.228  0.00  0.00    +0.000 A 
ATOM     23  C   UNL     1       2.460   8.253  17.678  0.00  0.00    +0.000 A 
ATOM     24  C   UNL     1       2.634   7.100  18.440  0.00  0.00    +0.000 A 
ATOM     25 CL   UNL     1       3.357   5.703  17.738  0.00  0.00    +0.000 Cl
ATOM     26  C   UNL     1       2.191   7.046  19.759  0.00  0.00    +0.000 A 
ATOM     27  C   UNL     1       1.580   8.171  20.315  0.00  0.00    +0.000 A 
ENDBRANCH  19  21
ENDBRANCH   1  19
TORSDOF 3
ENDMDL
MODEL 7
REMARK VINA RESULT:      -6.4      6.478      8.858
REMARK  Name = 
REMARK  3 active torsions:
REMARK  status: ('A' for Active; 'I' for Inactive)
REMARK    1  A    between atoms: S_2  and  C_4
REMARK    2  A    between atoms: S_2  and  C_11
REMARK    3  A    between atoms: C_21  and  N_22
REMARK                            x       y       z     vdW  Elec       q    Type
REMARK                         _______ _______ _______ _____ _____    ______ ____
ROOT
ATOM      1  C   UNL     1      -1.739  11.632  19.396  0.00  0.00    +0.000 A 
ATOM      2  C   UNL     1      -1.901  11.050  18.152  0.00  0.00    +0.000 A 
ATOM      3  N   UNL     1      -3.077  10.955  17.504  0.00  0.00    +0.000 NA
ATOM      4  C   UNL     1      -4.157  11.511  18.062  0.00  0.00    +0.000 A 
ATOM      5  C   UNL     1      -5.366  11.330  17.395  0.00  0.00    +0.000 A 
ATOM      6  C   UNL     1      -6.556  11.891  17.853  0.00  0.00    +0.000 A 
ATOM      7  C   UNL     1      -6.508  12.706  18.956  0.00  0.00    +0.000 A 
ATOM      8  F   UNL     1      -7.626  13.295  19.406  0.00  0.00    +0.000 F 
ATOM      9  C   UNL     1      -5.306  12.922  19.623  0.00  0.00    +0.000 A 
ATOM     10  C   UNL     1      -4.095  12.261  19.262  0.00  0.00    +0.000 A 
ATOM     11  C   UNL     1      -2.838  12.314  19.998  0.00  0.00    +0.000 A 
ENDROOT
BRANCH  11  12
ATOM     12  N   UNL     1      -2.760  13.058  21.179  0.00  0.00    +0.000 N 
ATOM     13  C   UNL     1      -2.225  14.437  21.268  0.00  0.00    +0.000 C 
ATOM     14  C   UNL     1      -1.305  14.510  22.509  0.00  0.00    +0.000 C 
ATOM     15  O   UNL     1      -2.057  14.255  23.706  0.00  0.00    +0.000 OA
ATOM     16  C   UNL     1      -2.616  12.937  23.662  0.00  0.00    +0.000 C 
ATOM     17  C   UNL     1      -3.481  12.698  22.416  0.00  0.00    +0.000 C 
ENDBRANCH  11  12
BRANCH   1  19
ATOM     18  O   UNL     1      -0.480  10.975  21.579  0.00  0.00    +0.000 OA
ATOM     19  S   UNL     1      -0.187  11.310  20.202  0.00  0.00    +0.000 S 
ATOM     20  O   UNL     1       0.686  12.425  19.871  0.00  0.00    +0.000 OA
BRANCH  19  21
ATOM     21  C   UNL     1       0.716   9.892  19.585  0.00  0.00    +0.000 A 
ATOM     22  C   UNL     1       1.057   8.830  20.424  0.00  0.00    +0.000 A 
ATOM     23  C   UNL     1       1.882   7.806  19.927  0.00  0.00    +0.000 A 
ATOM     24  C   UNL     1       2.373   7.867  18.625  0.00  0.00    +0.000 A 
ATOM     25 CL   UNL     1       3.435   6.640  18.047  0.00  0.00    +0.000 Cl
ATOM     26  C   UNL     1       2.051   8.935  17.793  0.00  0.00    +0.000 A 
ATOM     27  C   UNL     1       1.213   9.941  18.275  0.00  0.00    +0.000 A 
ENDBRANCH  19  21
ENDBRANCH   1  19
TORSDOF 3
ENDMDL
MODEL 8
REMARK VINA RESULT:      -6.4     10.120     12.599
REMARK  Name = 
REMARK  3 active torsions:
REMARK  status: ('A' for Active; 'I' for Inactive)
REMARK    1  A    between atoms: S_2  and  C_4
REMARK    2  A    between atoms: S_2  and  C_11
REMARK    3  A    between atoms: C_21  and  N_22
REMARK                            x       y       z     vdW  Elec       q    Type
REMARK                         _______ _______ _______ _____ _____    ______ ____
ROOT
ATOM      1  C   UNL     1       8.343  13.604  21.696  0.00  0.00    +0.000 A 
ATOM      2  C   UNL     1       8.827  12.340  21.979  0.00  0.00    +0.000 A 
ATOM      3  N   UNL     1       9.522  11.579  21.112  0.00  0.00    +0.000 NA
ATOM      4  C   UNL     1       9.824  12.094  19.916  0.00  0.00    +0.000 A 
ATOM      5  C   UNL     1      10.482  11.251  19.024  0.00  0.00    +0.000 A 
ATOM      6  C   UNL     1      10.885  11.679  17.761  0.00  0.00    +0.000 A 
ATOM      7  C   UNL     1      10.687  12.995  17.427  0.00  0.00    +0.000 A 
ATOM      8  F   UNL     1      11.094  13.455  16.234  0.00  0.00    +0.000 F 
ATOM      9  C   UNL     1      10.055  13.862  18.313  0.00  0.00    +0.000 A 
ATOM     10  C   UNL     1       9.512  13.429  19.558  0.00  0.00    +0.000 A 
ATOM     11  C   UNL     1       8.707  14.233  20.468  0.00  0.00    +0.000 A 
ENDROOT
BRANCH  11  12
ATOM     12  N   UNL     1       8.400  15.556  20.133  0.00  0.00    +0.000 N 
ATOM     13  C   UNL     1       7.114  15.994  19.543  0.00  0.00    +0.000 C 
ATOM     14  C   UNL     1       7.429  16.981  18.395  0.00  0.00    +0.000 C 
ATOM     15  O   UNL     1       8.096  18.147  18.905  0.00  0.00    +0.000 OA
ATOM     16  C   UNL     1       9.341  17.775  19.508  0.00  0.00    +0.000 C 
ATOM     17  C   UNL     1       9.178  16.717  20.608  0.00  0.00    +0.000 C 
ENDBRANCH  11  12
BRANCH   1  19
ATOM     18  O   UNL     1       5.868  14.250  22.182  0.00  0.00    +0.000 OA
ATOM     19  S   UNL     1       7.153  14.250  22.848  0.00  0.00    +0.000 S 
ATOM     20  O   UNL     1       7.722  15.478  23.380  0.00  0.00    +0.000 OA
BRANCH  19  21
ATOM     21  C   UNL     1       6.889  13.256  24.314  0.00  0.00    +0.000 A 
ATOM     22  C   UNL     1       7.648  13.454  25.469  0.00  0.00    +0.000 A 
ATOM     23  C   UNL     1       7.498  12.561  26.544  0.00  0.00    +0.000 A 
ATOM     24  C   UNL     1       6.626  11.480  26.446  0.00  0.00    +0.000 A 
ATOM     25 CL   UNL     1       6.497  10.355  27.744  0.00  0.00    +0.000 Cl
ATOM     26  C   UNL     1       5.882  11.270  25.288  0.00  0.00    +0.000 A 
ATOM     27  C   UNL     1       6.011  12.167  24.227  0.00  0.00    +0.000 A 
ENDBRANCH  19  21
ENDBRANCH   1  19
TORSDOF 3
ENDMDL
MODEL 9
REMARK VINA RESULT:      -6.4      0.566      1.080
REMARK  Name = 
REMARK  3 active torsions:
REMARK  status: ('A' for Active; 'I' for Inactive)
REMARK    1  A    between atoms: S_2  and  C_4
REMARK    2  A    between atoms: S_2  and  C_11
REMARK    3  A    between atoms: C_21  and  N_22
REMARK                            x       y       z     vdW  Elec       q    Type
REMARK                         _______ _______ _______ _____ _____    ______ ____
ROOT
ATOM      1  C   UNL     1       3.634   5.461  17.980  0.00  0.00    +0.000 A 
ATOM      2  C   UNL     1       3.997   6.666  17.407  0.00  0.00    +0.000 A 
ATOM      3  N   UNL     1       3.443   7.854  17.716  0.00  0.00    +0.000 NA
ATOM      4  C   UNL     1       2.523   7.892  18.684  0.00  0.00    +0.000 A 
ATOM      5  C   UNL     1       1.924   9.126  18.926  0.00  0.00    +0.000 A 
ATOM      6  C   UNL     1       0.978   9.307  19.932  0.00  0.00    +0.000 A 
ATOM      7  C   UNL     1       0.691   8.244  20.752  0.00  0.00    +0.000 A 
ATOM      8  F   UNL     1      -0.186   8.388  21.757  0.00  0.00    +0.000 F 
ATOM      9  C   UNL     1       1.297   7.009  20.547  0.00  0.00    +0.000 A 
ATOM     10  C   UNL     1       2.169   6.752  19.448  0.00  0.00    +0.000 A 
ATOM     11  C   UNL     1       2.719   5.455  19.076  0.00  0.00    +0.000 A 
ENDROOT
BRANCH  11  12
ATOM     12  N   UNL     1       2.386   4.323  19.826  0.00  0.00    +0.000 N 
ATOM     13  C   UNL     1       1.424   3.283  19.393  0.00  0.00    +0.000 C 
ATOM     14  C   UNL     1       0.519   2.942  20.599  0.00  0.00    +0.000 C 
ATOM     15  O   UNL     1       1.301   2.394  21.673  0.00  0.00    +0.000 OA
ATOM     16  C   UNL     1       2.265   3.355  22.117  0.00  0.00    +0.000 C 
ATOM     17  C   UNL     1       3.173   3.855  20.984  0.00  0.00    +0.000 C 
ENDBRANCH  11  12
BRANCH   1  19
ATOM     18  O   UNL     1       3.115   3.425  16.442  0.00  0.00    +0.000 OA
ATOM     19  S   UNL     1       4.233   4.003  17.157  0.00  0.00    +0.000 S 
ATOM     20  O   UNL     1       4.961   3.238  18.156  0.00  0.00    +0.000 OA
BRANCH  19  21
ATOM     21  C   UNL     1       5.465   4.292  15.890  0.00  0.00    +0.000 A 
ATOM     22  C   UNL     1       6.684   4.901  16.190  0.00  0.00    +0.000 A 
ATOM     23  C   UNL     1       7.559   5.229  15.140  0.00  0.00    +0.000 A 
ATOM     24  C   UNL     1       7.201   4.973  13.819  0.00  0.00    +0.000 A 
ATOM     25 CL   UNL     1       8.253   5.437  12.536  0.00  0.00    +0.000 Cl
ATOM     26  C   UNL     1       5.978   4.383  13.516  0.00  0.00    +0.000 A 
ATOM     27  C   UNL     1       5.116   4.035  14.556  0.00  0.00    +0.000 A 
ENDBRANCH  19  21
ENDBRANCH   1  19
TORSDOF 3
ENDMDL
