MODEL 1
REMARK VINA RESULT:      -7.4      0.000      0.000
REMARK  Name = 
REMARK  6 active torsions:
REMARK  status: ('A' for Active; 'I' for Inactive)
REMARK    1  A    between atoms: C_1  and  C_2
REMARK    2  A    between atoms: C_5  and  C_6
REMARK    3  A    between atoms: C_17  and  C_18
REMARK    4  A    between atoms: C_21  and  C_22
REMARK    5  A    between atoms: C_22  and  C_23
REMARK    6  A    between atoms: C_23  and  O_25
REMARK                            x       y       z     vdW  Elec       q    Type
REMARK                         _______ _______ _______ _____ _____    ______ ____
ROOT
ATOM      1  C   UNL     1      -1.261  11.319  20.119  0.00  0.00    +0.000 A 
ATOM      2  N   UNL     1      -1.963  12.214  20.865  0.00  0.00    +0.000 NA
ATOM      3  C   UNL     1      -1.493  12.585  22.063  0.00  0.00    +0.000 A 
ATOM      4  N   UNL     1      -2.218  13.466  22.827  0.00  0.00    +0.000 N 
ATOM      5  C   UNL     1      -3.461  14.046  22.324  0.00  0.00    +0.000 C 
ATOM      6  C   UNL     1      -3.287  15.544  22.044  0.00  0.00    +0.000 C 
ATOM      7  O   UNL     1      -2.754  16.238  23.185  0.00  0.00    +0.000 OA
ATOM      8  C   UNL     1      -1.466  15.701  23.531  0.00  0.00    +0.000 C 
ATOM      9  C   UNL     1      -1.555  14.212  23.899  0.00  0.00    +0.000 C 
ATOM     10  N   UNL     1      -0.352  12.094  22.557  0.00  0.00    +0.000 NA
ATOM     11  C   UNL     1       0.305  11.170  21.827  0.00  0.00    +0.000 A 
ATOM     12  C   UNL     1      -0.082  10.712  20.581  0.00  0.00    +0.000 A 
ENDROOT
BRANCH   1  17
ATOM     13  C   UNL     1      -3.128  10.017  14.767  0.00  0.00    +0.000 C 
ATOM     14  C   UNL     1      -2.732  10.388  16.164  0.00  0.00    +0.000 A 
ATOM     15  C   UNL     1      -2.123  11.614  16.423  0.00  0.00    +0.000 A 
ATOM     16  C   UNL     1      -1.774  11.965  17.727  0.00  0.00    +0.000 A 
ATOM     17  C   UNL     1      -1.886  11.055  18.793  0.00  0.00    +0.000 A 
ATOM     18  C   UNL     1      -2.553   9.845  18.528  0.00  0.00    +0.000 A 
ATOM     19  C   UNL     1      -2.983   9.520  17.232  0.00  0.00    +0.000 A 
ENDBRANCH   1  17
BRANCH  12  20
ATOM     20  C   UNL     1       0.719   9.681  19.871  0.00  0.00    +0.000 A 
ATOM     21  C   UNL     1       1.096   9.827  18.522  0.00  0.00    +0.000 A 
ATOM     22  C   UNL     1       1.970   8.937  17.894  0.00  0.00    +0.000 A 
ATOM     23  C   UNL     1       2.396   7.785  18.553  0.00  0.00    +0.000 A 
ATOM     24  C   UNL     1       1.982   7.580  19.874  0.00  0.00    +0.000 A 
ATOM     25  C   UNL     1       1.174   8.522  20.526  0.00  0.00    +0.000 A 
BRANCH  23  26
ATOM     26  C   UNL     1       3.200   6.739  17.817  0.00  0.00    +0.000 C 
BRANCH  26  27
ATOM     27  C   UNL     1       2.828   5.289  18.052  0.00  0.00    +0.000 C 
ATOM     28  O   UNL     1       1.760   4.816  17.707  0.00  0.00    +0.000 OA
BRANCH  27  29
ATOM     29  O   UNL     1       3.734   4.566  18.752  0.00  0.00    +0.000 OA
ATOM     30  H   UNL     1       3.343   3.956  19.398  0.00  0.00    +0.000 HD
ENDBRANCH  27  29
ENDBRANCH  26  27
ENDBRANCH  23  26
ENDBRANCH  12  20
TORSDOF 5
ENDMDL
MODEL 2
REMARK VINA RESULT:      -7.3      0.315      1.425
REMARK  Name = 
REMARK  6 active torsions:
REMARK  status: ('A' for Active; 'I' for Inactive)
REMARK    1  A    between atoms: C_1  and  C_2
REMARK    2  A    between atoms: C_5  and  C_6
REMARK    3  A    between atoms: C_17  and  C_18
REMARK    4  A    between atoms: C_21  and  C_22
REMARK    5  A    between atoms: C_22  and  C_23
REMARK    6  A    between atoms: C_23  and  O_25
REMARK                            x       y       z     vdW  Elec       q    Type
REMARK                         _______ _______ _______ _____ _____    ______ ____
ROOT
ATOM      1  C   UNL     1      -1.124  11.165  19.926  0.00  0.00    +0.000 A 
ATOM      2  N   UNL     1      -1.895  12.044  20.620  0.00  0.00    +0.000 NA
ATOM      3  C   UNL     1      -1.504  12.446  21.837  0.00  0.00    +0.000 A 
ATOM      4  N   UNL     1      -2.300  13.310  22.548  0.00  0.00    +0.000 N 
ATOM      5  C   UNL     1      -3.532  13.841  21.970  0.00  0.00    +0.000 C 
ATOM      6  C   UNL     1      -3.395  15.341  21.678  0.00  0.00    +0.000 C 
ATOM      7  O   UNL     1      -2.948  16.066  22.837  0.00  0.00    +0.000 OA
ATOM      8  C   UNL     1      -1.664  15.579  23.260  0.00  0.00    +0.000 C 
ATOM      9  C   UNL     1      -1.723  14.092  23.643  0.00  0.00    +0.000 C 
ATOM     10  N   UNL     1      -0.376  12.001  22.399  0.00  0.00    +0.000 NA
ATOM     11  C   UNL     1       0.351  11.092  21.719  0.00  0.00    +0.000 A 
ATOM     12  C   UNL     1       0.048  10.605  20.460  0.00  0.00    +0.000 A 
ENDROOT
BRANCH   1  17
ATOM     13  C   UNL     1      -3.811  10.233  14.853  0.00  0.00    +0.000 C 
ATOM     14  C   UNL     1      -3.041  10.438  16.122  0.00  0.00    +0.000 A 
ATOM     15  C   UNL     1      -3.040   9.459  17.114  0.00  0.00    +0.000 A 
ATOM     16  C   UNL     1      -2.306   9.644  18.286  0.00  0.00    +0.000 A 
ATOM     17  C   UNL     1      -1.666  10.863  18.572  0.00  0.00    +0.000 A 
ATOM     18  C   UNL     1      -1.627  11.819  17.540  0.00  0.00    +0.000 A 
ATOM     19  C   UNL     1      -2.295  11.604  16.325  0.00  0.00    +0.000 A 
ENDBRANCH   1  17
BRANCH  12  20
ATOM     20  C   UNL     1       0.922   9.594  19.809  0.00  0.00    +0.000 A 
ATOM     21  C   UNL     1       1.341   8.428  20.480  0.00  0.00    +0.000 A 
ATOM     22  C   UNL     1       2.036   7.405  19.830  0.00  0.00    +0.000 A 
ATOM     23  C   UNL     1       2.460   7.569  18.512  0.00  0.00    +0.000 A 
ATOM     24  C   UNL     1       2.114   8.748  17.842  0.00  0.00    +0.000 A 
ATOM     25  C   UNL     1       1.342   9.733  18.474  0.00  0.00    +0.000 A 
BRANCH  23  26
ATOM     26  C   UNL     1       3.356   6.539  17.868  0.00  0.00    +0.000 C 
BRANCH  26  27
ATOM     27  C   UNL     1       2.996   5.082  18.076  0.00  0.00    +0.000 C 
ATOM     28  O   UNL     1       3.776   4.268  18.536  0.00  0.00    +0.000 OA
BRANCH  27  29
ATOM     29  O   UNL     1       1.767   4.722  17.636  0.00  0.00    +0.000 OA
ATOM     30  H   UNL     1       1.686   4.684  16.669  0.00  0.00    +0.000 HD
ENDBRANCH  27  29
ENDBRANCH  26  27
ENDBRANCH  23  26
ENDBRANCH  12  20
TORSDOF 5
ENDMDL
MODEL 3
REMARK VINA RESULT:      -7.1      3.457      3.849
REMARK  Name = 
REMARK  6 active torsions:
REMARK  status: ('A' for Active; 'I' for Inactive)
REMARK    1  A    between atoms: C_1  and  C_2
REMARK    2  A    between atoms: C_5  and  C_6
REMARK    3  A    between atoms: C_17  and  C_18
REMARK    4  A    between atoms: C_21  and  C_22
REMARK    5  A    between atoms: C_22  and  C_23
REMARK    6  A    between atoms: C_23  and  O_25
REMARK                            x       y       z     vdW  Elec       q    Type
REMARK                         _______ _______ _______ _____ _____    ______ ____
ROOT
ATOM      1  C   UNL     1      -0.261  13.040  19.100  0.00  0.00    +0.000 A 
ATOM      2  N   UNL     1      -0.300  14.389  18.931  0.00  0.00    +0.000 NA
ATOM      3  C   UNL     1       0.832  15.098  19.029  0.00  0.00    +0.000 A 
ATOM      4  N   UNL     1       0.786  16.463  18.888  0.00  0.00    +0.000 N 
ATOM      5  C   UNL     1      -0.470  17.141  18.573  0.00  0.00    +0.000 C 
ATOM      6  C   UNL     1      -0.438  17.712  17.150  0.00  0.00    +0.000 C 
ATOM      7  O   UNL     1       0.724  18.532  16.935  0.00  0.00    +0.000 OA
ATOM      8  C   UNL     1       1.918  17.757  17.126  0.00  0.00    +0.000 C 
ATOM      9  C   UNL     1       2.007  17.200  18.555  0.00  0.00    +0.000 C 
ATOM     10  N   UNL     1       2.007  14.520  19.298  0.00  0.00    +0.000 NA
ATOM     11  C   UNL     1       2.020  13.189  19.512  0.00  0.00    +0.000 A 
ATOM     12  C   UNL     1       0.918  12.355  19.437  0.00  0.00    +0.000 A 
ENDROOT
BRANCH   1  17
ATOM     13  C   UNL     1      -5.633  11.077  18.045  0.00  0.00    +0.000 C 
ATOM     14  C   UNL     1      -4.229  11.499  18.355  0.00  0.00    +0.000 A 
ATOM     15  C   UNL     1      -3.937  12.160  19.547  0.00  0.00    +0.000 A 
ATOM     16  C   UNL     1      -2.626  12.534  19.842  0.00  0.00    +0.000 A 
ATOM     17  C   UNL     1      -1.588  12.394  18.904  0.00  0.00    +0.000 A 
ATOM     18  C   UNL     1      -1.885  11.676  17.731  0.00  0.00    +0.000 A 
ATOM     19  C   UNL     1      -3.186  11.222  17.465  0.00  0.00    +0.000 A 
ENDBRANCH   1  17
BRANCH  12  20
ATOM     20  C   UNL     1       1.051  10.899  19.704  0.00  0.00    +0.000 A 
ATOM     21  C   UNL     1       1.417   9.987  18.696  0.00  0.00    +0.000 A 
ATOM     22  C   UNL     1       1.688   8.644  18.970  0.00  0.00    +0.000 A 
ATOM     23  C   UNL     1       1.469   8.129  20.247  0.00  0.00    +0.000 A 
ATOM     24  C   UNL     1       1.040   9.001  21.254  0.00  0.00    +0.000 A 
ATOM     25  C   UNL     1       0.854  10.365  20.990  0.00  0.00    +0.000 A 
BRANCH  23  26
ATOM     26  C   UNL     1       1.596   6.646  20.502  0.00  0.00    +0.000 C 
BRANCH  26  27
ATOM     27  C   UNL     1       2.504   5.861  19.576  0.00  0.00    +0.000 C 
ATOM     28  O   UNL     1       2.082   5.172  18.664  0.00  0.00    +0.000 OA
BRANCH  27  29
ATOM     29  O   UNL     1       3.822   5.909  19.881  0.00  0.00    +0.000 OA
ATOM     30  H   UNL     1       4.395   5.459  19.239  0.00  0.00    +0.000 HD
ENDBRANCH  27  29
ENDBRANCH  26  27
ENDBRANCH  23  26
ENDBRANCH  12  20
TORSDOF 5
ENDMDL
MODEL 4
REMARK VINA RESULT:      -7.0      0.887      1.662
REMARK  Name = 
REMARK  6 active torsions:
REMARK  status: ('A' for Active; 'I' for Inactive)
REMARK    1  A    between atoms: C_1  and  C_2
REMARK    2  A    between atoms: C_5  and  C_6
REMARK    3  A    between atoms: C_17  and  C_18
REMARK    4  A    between atoms: C_21  and  C_22
REMARK    5  A    between atoms: C_22  and  C_23
REMARK    6  A    between atoms: C_23  and  O_25
REMARK                            x       y       z     vdW  Elec       q    Type
REMARK                         _______ _______ _______ _____ _____    ______ ____
ROOT
ATOM      1  C   UNL     1      -0.973  11.102  19.897  0.00  0.00    +0.000 A 
ATOM      2  N   UNL     1      -1.692  12.008  20.612  0.00  0.00    +0.000 NA
ATOM      3  C   UNL     1      -1.255  12.392  21.818  0.00  0.00    +0.000 A 
ATOM      4  N   UNL     1      -1.998  13.286  22.551  0.00  0.00    +0.000 N 
ATOM      5  C   UNL     1      -3.224  13.864  22.005  0.00  0.00    +0.000 C 
ATOM      6  C   UNL     1      -3.037  15.358  21.712  0.00  0.00    +0.000 C 
ATOM      7  O   UNL     1      -2.533  16.064  22.859  0.00  0.00    +0.000 OA
ATOM      8  C   UNL     1      -1.258  15.527  23.248  0.00  0.00    +0.000 C 
ATOM      9  C   UNL     1      -1.364  14.043  23.631  0.00  0.00    +0.000 C 
ATOM     10  N   UNL     1      -0.130  11.904  22.351  0.00  0.00    +0.000 NA
ATOM     11  C   UNL     1       0.543  10.969  21.652  0.00  0.00    +0.000 A 
ATOM     12  C   UNL     1       0.190  10.497  20.400  0.00  0.00    +0.000 A 
ENDROOT
BRANCH   1  17
ATOM     13  C   UNL     1      -3.830  10.262  14.902  0.00  0.00    +0.000 C 
ATOM     14  C   UNL     1      -3.017  10.444  16.148  0.00  0.00    +0.000 A 
ATOM     15  C   UNL     1      -2.989   9.449  17.124  0.00  0.00    +0.000 A 
ATOM     16  C   UNL     1      -2.216   9.613  18.274  0.00  0.00    +0.000 A 
ATOM     17  C   UNL     1      -1.561  10.824  18.557  0.00  0.00    +0.000 A 
ATOM     18  C   UNL     1      -1.551  11.795  17.540  0.00  0.00    +0.000 A 
ATOM     19  C   UNL     1      -2.259  11.602  16.343  0.00  0.00    +0.000 A 
ENDBRANCH   1  17
BRANCH  12  20
ATOM     20  C   UNL     1       1.007   9.454  19.727  0.00  0.00    +0.000 A 
ATOM     21  C   UNL     1       1.391   8.268  20.382  0.00  0.00    +0.000 A 
ATOM     22  C   UNL     1       2.030   7.221  19.713  0.00  0.00    +0.000 A 
ATOM     23  C   UNL     1       2.433   7.375  18.388  0.00  0.00    +0.000 A 
ATOM     24  C   UNL     1       2.123   8.571  17.730  0.00  0.00    +0.000 A 
ATOM     25  C   UNL     1       1.405   9.583  18.384  0.00  0.00    +0.000 A 
BRANCH  23  26
ATOM     26  C   UNL     1       3.272   6.312  17.719  0.00  0.00    +0.000 C 
BRANCH  26  27
ATOM     27  C   UNL     1       4.738   6.248  18.100  0.00  0.00    +0.000 C 
ATOM     28  O   UNL     1       5.146   5.603  19.049  0.00  0.00    +0.000 OA
BRANCH  27  29
ATOM     29  O   UNL     1       5.562   7.027  17.361  0.00  0.00    +0.000 OA
ATOM     30  H   UNL     1       5.175   7.879  17.100  0.00  0.00    +0.000 HD
ENDBRANCH  27  29
ENDBRANCH  26  27
ENDBRANCH  23  26
ENDBRANCH  12  20
TORSDOF 5
ENDMDL
MODEL 5
REMARK VINA RESULT:      -7.0      1.042      1.426
REMARK  Name = 
REMARK  6 active torsions:
REMARK  status: ('A' for Active; 'I' for Inactive)
REMARK    1  A    between atoms: C_1  and  C_2
REMARK    2  A    between atoms: C_5  and  C_6
REMARK    3  A    between atoms: C_17  and  C_18
REMARK    4  A    between atoms: C_21  and  C_22
REMARK    5  A    between atoms: C_22  and  C_23
REMARK    6  A    between atoms: C_23  and  O_25
REMARK                            x       y       z     vdW  Elec       q    Type
REMARK                         _______ _______ _______ _____ _____    ______ ____
ROOT
ATOM      1  C   UNL     1      -0.948  11.093  19.870  0.00  0.00    +0.000 A 
ATOM      2  N   UNL     1      -1.616  12.051  20.568  0.00  0.00    +0.000 NA
ATOM      3  C   UNL     1      -1.148  12.445  21.760  0.00  0.00    +0.000 A 
ATOM      4  N   UNL     1      -1.840  13.391  22.476  0.00  0.00    +0.000 N 
ATOM      5  C   UNL     1      -3.043  14.013  21.927  0.00  0.00    +0.000 C 
ATOM      6  C   UNL     1      -2.789  15.488  21.593  0.00  0.00    +0.000 C 
ATOM      7  O   UNL     1      -2.240  16.198  22.717  0.00  0.00    +0.000 OA
ATOM      8  C   UNL     1      -0.987  15.611  23.107  0.00  0.00    +0.000 C 
ATOM      9  C   UNL     1      -1.159  14.144  23.530  0.00  0.00    +0.000 C 
ATOM     10  N   UNL     1      -0.042  11.918  22.294  0.00  0.00    +0.000 NA
ATOM     11  C   UNL     1       0.579  10.934  21.613  0.00  0.00    +0.000 A 
ATOM     12  C   UNL     1       0.191  10.447  20.377  0.00  0.00    +0.000 A 
ENDROOT
BRANCH   1  17
ATOM     13  C   UNL     1      -3.899  10.258  14.929  0.00  0.00    +0.000 C 
ATOM     14  C   UNL     1      -3.064  10.434  16.161  0.00  0.00    +0.000 A 
ATOM     15  C   UNL     1      -3.063   9.462  17.159  0.00  0.00    +0.000 A 
ATOM     16  C   UNL     1      -2.269   9.620  18.295  0.00  0.00    +0.000 A 
ATOM     17  C   UNL     1      -1.563  10.809  18.544  0.00  0.00    +0.000 A 
ATOM     18  C   UNL     1      -1.528  11.757  17.505  0.00  0.00    +0.000 A 
ATOM     19  C   UNL     1      -2.258  11.566  16.321  0.00  0.00    +0.000 A 
ENDBRANCH   1  17
BRANCH  12  20
ATOM     20  C   UNL     1       0.950   9.350  19.723  0.00  0.00    +0.000 A 
ATOM     21  C   UNL     1       1.337   9.413  18.371  0.00  0.00    +0.000 A 
ATOM     22  C   UNL     1       2.176   8.458  17.791  0.00  0.00    +0.000 A 
ATOM     23  C   UNL     1       2.550   7.323  18.508  0.00  0.00    +0.000 A 
ATOM     24  C   UNL     1       2.123   7.200  19.835  0.00  0.00    +0.000 A 
ATOM     25  C   UNL     1       1.354   8.207  20.437  0.00  0.00    +0.000 A 
BRANCH  23  26
ATOM     26  C   UNL     1       3.312   6.210  17.828  0.00  0.00    +0.000 C 
BRANCH  26  27
ATOM     27  C   UNL     1       4.691   6.541  17.295  0.00  0.00    +0.000 C 
ATOM     28  O   UNL     1       4.881   6.961  16.168  0.00  0.00    +0.000 OA
BRANCH  27  29
ATOM     29  O   UNL     1       5.717   6.260  18.133  0.00  0.00    +0.000 OA
ATOM     30  H   UNL     1       6.358   6.983  18.232  0.00  0.00    +0.000 HD
ENDBRANCH  27  29
ENDBRANCH  26  27
ENDBRANCH  23  26
ENDBRANCH  12  20
TORSDOF 5
ENDMDL
MODEL 6
REMARK VINA RESULT:      -6.8      4.194      6.263
REMARK  Name = 
REMARK  6 active torsions:
REMARK  status: ('A' for Active; 'I' for Inactive)
REMARK    1  A    between atoms: C_1  and  C_2
REMARK    2  A    between atoms: C_5  and  C_6
REMARK    3  A    between atoms: C_17  and  C_18
REMARK    4  A    between atoms: C_21  and  C_22
REMARK    5  A    between atoms: C_22  and  C_23
REMARK    6  A    between atoms: C_23  and  O_25
REMARK                            x       y       z     vdW  Elec       q    Type
REMARK                         _______ _______ _______ _____ _____    ______ ____
ROOT
ATOM      1  C   UNL     1       1.142  13.408  21.034  0.00  0.00    +0.000 A 
ATOM      2  N   UNL     1       2.127  14.110  21.656  0.00  0.00    +0.000 NA
ATOM      3  C   UNL     1       3.226  14.452  20.970  0.00  0.00    +0.000 A 
ATOM      4  N   UNL     1       4.232  15.135  21.609  0.00  0.00    +0.000 N 
ATOM      5  C   UNL     1       4.092  15.542  23.005  0.00  0.00    +0.000 C 
ATOM      6  C   UNL     1       3.962  17.066  23.116  0.00  0.00    +0.000 C 
ATOM      7  O   UNL     1       5.029  17.741  22.428  0.00  0.00    +0.000 OA
ATOM      8  C   UNL     1       5.013  17.397  21.033  0.00  0.00    +0.000 C 
ATOM      9  C   UNL     1       5.211  15.888  20.821  0.00  0.00    +0.000 C 
ATOM     10  N   UNL     1       3.391  14.117  19.687  0.00  0.00    +0.000 NA
ATOM     11  C   UNL     1       2.428  13.378  19.101  0.00  0.00    +0.000 A 
ATOM     12  C   UNL     1       1.253  12.968  19.706  0.00  0.00    +0.000 A 
ENDROOT
BRANCH   1  17
ATOM     13  C   UNL     1      -3.808  12.419  23.921  0.00  0.00    +0.000 C 
ATOM     14  C   UNL     1      -2.488  12.672  23.260  0.00  0.00    +0.000 A 
ATOM     15  C   UNL     1      -2.059  13.975  23.014  0.00  0.00    +0.000 A 
ATOM     16  C   UNL     1      -0.820  14.207  22.416  0.00  0.00    +0.000 A 
ATOM     17  C   UNL     1      -0.033  13.156  21.914  0.00  0.00    +0.000 A 
ATOM     18  C   UNL     1      -0.451  11.848  22.218  0.00  0.00    +0.000 A 
ATOM     19  C   UNL     1      -1.656  11.608  22.895  0.00  0.00    +0.000 A 
ENDBRANCH   1  17
BRANCH  12  20
ATOM     20  C   UNL     1       0.265  12.145  18.960  0.00  0.00    +0.000 A 
ATOM     21  C   UNL     1       0.437  10.760  18.773  0.00  0.00    +0.000 A 
ATOM     22  C   UNL     1      -0.555   9.957  18.206  0.00  0.00    +0.000 A 
ATOM     23  C   UNL     1      -1.709  10.533  17.676  0.00  0.00    +0.000 A 
ATOM     24  C   UNL     1      -1.875  11.918  17.787  0.00  0.00    +0.000 A 
ATOM     25  C   UNL     1      -0.914  12.706  18.437  0.00  0.00    +0.000 A 
BRANCH  23  26
ATOM     26  C   UNL     1      -2.699   9.688  16.910  0.00  0.00    +0.000 C 
BRANCH  26  27
ATOM     27  C   UNL     1      -3.274  10.277  15.638  0.00  0.00    +0.000 C 
ATOM     28  O   UNL     1      -2.650  10.331  14.594  0.00  0.00    +0.000 OA
BRANCH  27  29
ATOM     29  O   UNL     1      -4.508  10.821  15.759  0.00  0.00    +0.000 OA
ATOM     30  H   UNL     1      -4.643  11.321  16.581  0.00  0.00    +0.000 HD
ENDBRANCH  27  29
ENDBRANCH  26  27
ENDBRANCH  23  26
ENDBRANCH  12  20
TORSDOF 5
ENDMDL
MODEL 7
REMARK VINA RESULT:      -6.8      0.747      1.155
REMARK  Name = 
REMARK  6 active torsions:
REMARK  status: ('A' for Active; 'I' for Inactive)
REMARK    1  A    between atoms: C_1  and  C_2
REMARK    2  A    between atoms: C_5  and  C_6
REMARK    3  A    between atoms: C_17  and  C_18
REMARK    4  A    between atoms: C_21  and  C_22
REMARK    5  A    between atoms: C_22  and  C_23
REMARK    6  A    between atoms: C_23  and  O_25
REMARK                            x       y       z     vdW  Elec       q    Type
REMARK                         _______ _______ _______ _____ _____    ______ ____
ROOT
ATOM      1  C   UNL     1      -1.378  11.495  20.036  0.00  0.00    +0.000 A 
ATOM      2  N   UNL     1      -2.162  12.327  20.773  0.00  0.00    +0.000 NA
ATOM      3  C   UNL     1      -1.683  12.849  21.909  0.00  0.00    +0.000 A 
ATOM      4  N   UNL     1      -2.487  13.666  22.666  0.00  0.00    +0.000 N 
ATOM      5  C   UNL     1      -3.832  14.018  22.217  0.00  0.00    +0.000 C 
ATOM      6  C   UNL     1      -3.907  15.500  21.832  0.00  0.00    +0.000 C 
ATOM      7  O   UNL     1      -3.418  16.346  22.887  0.00  0.00    +0.000 OA
ATOM      8  C   UNL     1      -2.045  16.033  23.175  0.00  0.00    +0.000 C 
ATOM      9  C   UNL     1      -1.883  14.578  23.640  0.00  0.00    +0.000 C 
ATOM     10  N   UNL     1      -0.453  12.571  22.352  0.00  0.00    +0.000 NA
ATOM     11  C   UNL     1       0.292  11.705  21.636  0.00  0.00    +0.000 A 
ATOM     12  C   UNL     1      -0.094  11.105  20.451  0.00  0.00    +0.000 A 
ENDROOT
BRANCH   1  17
ATOM     13  C   UNL     1      -3.564  10.185  14.808  0.00  0.00    +0.000 C 
ATOM     14  C   UNL     1      -3.056  10.457  16.192  0.00  0.00    +0.000 A 
ATOM     15  C   UNL     1      -3.647  11.442  16.981  0.00  0.00    +0.000 A 
ATOM     16  C   UNL     1      -3.185  11.678  18.276  0.00  0.00    +0.000 A 
ATOM     17  C   UNL     1      -2.034  11.046  18.777  0.00  0.00    +0.000 A 
ATOM     18  C   UNL     1      -1.482  10.016  17.993  0.00  0.00    +0.000 A 
ATOM     19  C   UNL     1      -1.995   9.715  16.722  0.00  0.00    +0.000 A 
ENDBRANCH   1  17
BRANCH  12  20
ATOM     20  C   UNL     1       0.811  10.155  19.752  0.00  0.00    +0.000 A 
ATOM     21  C   UNL     1       1.105   8.882  20.277  0.00  0.00    +0.000 A 
ATOM     22  C   UNL     1       1.833   7.931  19.558  0.00  0.00    +0.000 A 
ATOM     23  C   UNL     1       2.414   8.266  18.336  0.00  0.00    +0.000 A 
ATOM     24  C   UNL     1       2.193   9.548  17.821  0.00  0.00    +0.000 A 
ATOM     25  C   UNL     1       1.389  10.469  18.509  0.00  0.00    +0.000 A 
BRANCH  23  26
ATOM     26  C   UNL     1       3.341   7.296  17.643  0.00  0.00    +0.000 C 
BRANCH  26  27
ATOM     27  C   UNL     1       3.347   5.866  18.145  0.00  0.00    +0.000 C 
ATOM     28  O   UNL     1       2.530   5.037  17.789  0.00  0.00    +0.000 OA
BRANCH  27  29
ATOM     29  O   UNL     1       4.278   5.589  19.089  0.00  0.00    +0.000 OA
ATOM     30  H   UNL     1       4.059   4.828  19.651  0.00  0.00    +0.000 HD
ENDBRANCH  27  29
ENDBRANCH  26  27
ENDBRANCH  23  26
ENDBRANCH  12  20
TORSDOF 5
ENDMDL
MODEL 8
REMARK VINA RESULT:      -6.8      1.064      1.120
REMARK  Name = 
REMARK  6 active torsions:
REMARK  status: ('A' for Active; 'I' for Inactive)
REMARK    1  A    between atoms: C_1  and  C_2
REMARK    2  A    between atoms: C_5  and  C_6
REMARK    3  A    between atoms: C_17  and  C_18
REMARK    4  A    between atoms: C_21  and  C_22
REMARK    5  A    between atoms: C_22  and  C_23
REMARK    6  A    between atoms: C_23  and  O_25
REMARK                            x       y       z     vdW  Elec       q    Type
REMARK                         _______ _______ _______ _____ _____    ______ ____
ROOT
ATOM      1  C   UNL     1      -0.784  11.690  19.680  0.00  0.00    +0.000 A 
ATOM      2  N   UNL     1      -1.288  12.796  20.289  0.00  0.00    +0.000 NA
ATOM      3  C   UNL     1      -0.619  13.350  21.309  0.00  0.00    +0.000 A 
ATOM      4  N   UNL     1      -1.145  14.450  21.941  0.00  0.00    +0.000 N 
ATOM      5  C   UNL     1      -2.390  15.056  21.477  0.00  0.00    +0.000 C 
ATOM      6  C   UNL     1      -2.127  16.432  20.854  0.00  0.00    +0.000 C 
ATOM      7  O   UNL     1      -1.374  17.279  21.739  0.00  0.00    +0.000 OA
ATOM      8  C   UNL     1      -0.103  16.678  22.035  0.00  0.00    +0.000 C 
ATOM      9  C   UNL     1      -0.270  15.318  22.732  0.00  0.00    +0.000 C 
ATOM     10  N   UNL     1       0.533  12.841  21.757  0.00  0.00    +0.000 NA
ATOM     11  C   UNL     1       0.993  11.715  21.175  0.00  0.00    +0.000 A 
ATOM     12  C   UNL     1       0.391  11.057  20.117  0.00  0.00    +0.000 A 
ENDROOT
BRANCH   1  17
ATOM     13  C   UNL     1      -3.486   9.610  14.969  0.00  0.00    +0.000 C 
ATOM     14  C   UNL     1      -2.872  10.183  16.209  0.00  0.00    +0.000 A 
ATOM     15  C   UNL     1      -2.261  11.435  16.181  0.00  0.00    +0.000 A 
ATOM     16  C   UNL     1      -1.707  11.975  17.342  0.00  0.00    +0.000 A 
ATOM     17  C   UNL     1      -1.615  11.232  18.532  0.00  0.00    +0.000 A 
ATOM     18  C   UNL     1      -2.284   9.995  18.562  0.00  0.00    +0.000 A 
ATOM     19  C   UNL     1      -2.917   9.483  17.419  0.00  0.00    +0.000 A 
ENDBRANCH   1  17
BRANCH  12  20
ATOM     20  C   UNL     1       0.986   9.814  19.562  0.00  0.00    +0.000 A 
ATOM     21  C   UNL     1       1.355   9.704  18.208  0.00  0.00    +0.000 A 
ATOM     22  C   UNL     1       2.049   8.597  17.713  0.00  0.00    +0.000 A 
ATOM     23  C   UNL     1       2.280   7.490  18.528  0.00  0.00    +0.000 A 
ATOM     24  C   UNL     1       1.863   7.545  19.863  0.00  0.00    +0.000 A 
ATOM     25  C   UNL     1       1.245   8.695  20.374  0.00  0.00    +0.000 A 
BRANCH  23  26
ATOM     26  C   UNL     1       2.875   6.229  17.948  0.00  0.00    +0.000 C 
BRANCH  26  27
ATOM     27  C   UNL     1       2.117   4.937  18.179  0.00  0.00    +0.000 C 
ATOM     28  O   UNL     1       1.269   4.522  17.411  0.00  0.00    +0.000 OA
BRANCH  27  29
ATOM     29  O   UNL     1       2.387   4.310  19.349  0.00  0.00    +0.000 OA
ATOM     30  H   UNL     1       3.194   3.770  19.333  0.00  0.00    +0.000 HD
ENDBRANCH  27  29
ENDBRANCH  26  27
ENDBRANCH  23  26
ENDBRANCH  12  20
TORSDOF 5
ENDMDL
MODEL 9
REMARK VINA RESULT:      -6.6      1.130      1.738
REMARK  Name = 
REMARK  6 active torsions:
REMARK  status: ('A' for Active; 'I' for Inactive)
REMARK    1  A    between atoms: C_1  and  C_2
REMARK    2  A    between atoms: C_5  and  C_6
REMARK    3  A    between atoms: C_17  and  C_18
REMARK    4  A    between atoms: C_21  and  C_22
REMARK    5  A    between atoms: C_22  and  C_23
REMARK    6  A    between atoms: C_23  and  O_25
REMARK                            x       y       z     vdW  Elec       q    Type
REMARK                         _______ _______ _______ _____ _____    ______ ____
ROOT
ATOM      1  C   UNL     1      -1.647  11.659  20.083  0.00  0.00    +0.000 A 
ATOM      2  N   UNL     1      -2.453  12.668  20.508  0.00  0.00    +0.000 NA
ATOM      3  C   UNL     1      -2.219  13.242  21.696  0.00  0.00    +0.000 A 
ATOM      4  N   UNL     1      -3.053  14.241  22.136  0.00  0.00    +0.000 N 
ATOM      5  C   UNL     1      -4.151  14.722  21.302  0.00  0.00    +0.000 C 
ATOM      6  C   UNL     1      -3.877  16.149  20.811  0.00  0.00    +0.000 C 
ATOM      7  O   UNL     1      -3.559  17.032  21.901  0.00  0.00    +0.000 OA
ATOM      8  C   UNL     1      -2.384  16.566  22.586  0.00  0.00    +0.000 C 
ATOM      9  C   UNL     1      -2.593  15.163  23.176  0.00  0.00    +0.000 C 
ATOM     10  N   UNL     1      -1.216  12.848  22.486  0.00  0.00    +0.000 NA
ATOM     11  C   UNL     1      -0.457  11.814  22.072  0.00  0.00    +0.000 A 
ATOM     12  C   UNL     1      -0.603  11.145  20.869  0.00  0.00    +0.000 A 
ENDROOT
BRANCH   1  17
ATOM     13  C   UNL     1      -3.615  10.047  14.853  0.00  0.00    +0.000 C 
ATOM     14  C   UNL     1      -3.028  10.418  16.181  0.00  0.00    +0.000 A 
ATOM     15  C   UNL     1      -3.249   9.616  17.300  0.00  0.00    +0.000 A 
ATOM     16  C   UNL     1      -2.685   9.953  18.530  0.00  0.00    +0.000 A 
ATOM     17  C   UNL     1      -2.003  11.167  18.723  0.00  0.00    +0.000 A 
ATOM     18  C   UNL     1      -1.740  11.938  17.576  0.00  0.00    +0.000 A 
ATOM     19  C   UNL     1      -2.234  11.560  16.317  0.00  0.00    +0.000 A 
ENDBRANCH   1  17
BRANCH  12  20
ATOM     20  C   UNL     1       0.289  10.008  20.522  0.00  0.00    +0.000 A 
ATOM     21  C   UNL     1       0.499   8.929  21.402  0.00  0.00    +0.000 A 
ATOM     22  C   UNL     1       1.215   7.790  21.025  0.00  0.00    +0.000 A 
ATOM     23  C   UNL     1       1.868   7.745  19.795  0.00  0.00    +0.000 A 
ATOM     24  C   UNL     1       1.732   8.833  18.926  0.00  0.00    +0.000 A 
ATOM     25  C   UNL     1       0.939   9.936  19.277  0.00  0.00    +0.000 A 
BRANCH  23  26
ATOM     26  C   UNL     1       2.781   6.589  19.460  0.00  0.00    +0.000 C 
BRANCH  26  27
ATOM     27  C   UNL     1       2.322   5.204  19.870  0.00  0.00    +0.000 C 
ATOM     28  O   UNL     1       1.638   4.496  19.154  0.00  0.00    +0.000 OA
BRANCH  27  29
ATOM     29  O   UNL     1       2.656   4.834  21.129  0.00  0.00    +0.000 OA
ATOM     30  H   UNL     1       3.583   4.564  21.231  0.00  0.00    +0.000 HD
ENDBRANCH  27  29
ENDBRANCH  26  27
ENDBRANCH  23  26
ENDBRANCH  12  20
TORSDOF 5
ENDMDL
