MODEL 1
REMARK VINA RESULT:      -8.7      0.000      0.000
REMARK  Name = 
REMARK  9 active torsions:
REMARK  status: ('A' for Active; 'I' for Inactive)
REMARK    1  A    between atoms: C_1  and  N_2
REMARK    2  A    between atoms: N_5  and  C_6
REMARK    3  A    between atoms: C_9  and  C_10
REMARK    4  A    between atoms: C_21  and  C_23
REMARK    5  A    between atoms: C_23  and  C_24
REMARK    6  A    between atoms: C_24  and  C_25
REMARK    7  A    between atoms: C_24  and  C_29
REMARK    8  A    between atoms: C_25  and  C_26
REMARK    9  A    between atoms: C_26  and  O_28
REMARK                            x       y       z     vdW  Elec       q    Type
REMARK                         _______ _______ _______ _____ _____    ______ ____
ROOT
ATOM      1  C   UNL     1       2.505  13.360  20.914  0.00  0.00    +0.000 C 
ATOM      2  N   UNL     1       1.107  13.065  20.666  0.00  0.00    +0.000 N 
ATOM      3  C   UNL     1       0.092  13.714  21.370  0.00  0.00    +0.000 C 
ATOM      4  O   UNL     1       0.285  14.714  22.047  0.00  0.00    +0.000 OA
ATOM      5  N   UNL     1      -1.075  13.007  21.189  0.00  0.00    +0.000 N 
ATOM      6  C   UNL     1      -0.875  12.043  20.229  0.00  0.00    +0.000 C 
ATOM      7  O   UNL     1      -1.728  11.372  19.658  0.00  0.00    +0.000 OA
ATOM      8  C   UNL     1       0.643  11.824  20.056  0.00  0.00    +0.000 C 
ATOM      9  C   UNL     1       1.073  11.692  18.589  0.00  0.00    +0.000 C 
ATOM     10  C   UNL     1       0.680  10.348  17.979  0.00  0.00    +0.000 C 
ATOM     11  N   UNL     1       1.091   9.253  18.849  0.00  0.00    +0.000 N 
ATOM     12  C   UNL     1       2.170   8.447  18.482  0.00  0.00    +0.000 C 
ATOM     13  O   UNL     1       2.812   8.627  17.449  0.00  0.00    +0.000 OA
ATOM     14  C   UNL     1       0.519   9.305  20.194  0.00  0.00    +0.000 C 
ATOM     15  C   UNL     1       1.013  10.575  20.889  0.00  0.00    +0.000 C 
ENDROOT
BRANCH   5  16
ATOM     16  C   UNL     1      -2.248  13.148  21.985  0.00  0.00    +0.000 A 
ATOM     17  C   UNL     1      -2.485  12.328  23.100  0.00  0.00    +0.000 A 
ATOM     18  C   UNL     1      -3.721  12.334  23.758  0.00  0.00    +0.000 A 
ATOM     19  C   UNL     1      -4.748  13.169  23.319  0.00  0.00    +0.000 A 
ATOM     20  C   UNL     1      -4.519  14.023  22.241  0.00  0.00    +0.000 A 
ATOM     21  C   UNL     1      -3.276  14.022  21.594  0.00  0.00    +0.000 A 
BRANCH  19  22
ATOM     22  C   UNL     1      -6.087  13.107  23.972  0.00  0.00    +0.000 C 
ATOM     23  N   UNL     1      -6.701  14.158  24.413  0.00  0.00    +0.000 NA
ATOM     24  N   UNL     1      -6.730  11.916  24.107  0.00  0.00    +0.000 N 
ATOM     25  H   UNL     1      -6.129  15.000  24.309  0.00  0.00    +0.000 HD
ATOM     26  H   UNL     1      -6.625  11.261  23.342  0.00  0.00    +0.000 HD
ATOM     27  H   UNL     1      -7.705  12.061  24.364  0.00  0.00    +0.000 HD
ENDBRANCH  19  22
ENDBRANCH   5  16
BRANCH  12  28
ATOM     28  C   UNL     1       2.454   7.283  19.408  0.00  0.00    +0.000 C 
BRANCH  28  29
ATOM     29  C   UNL     1       2.999   5.989  18.776  0.00  0.00    +0.000 C 
BRANCH  29  30
ATOM     30  C   UNL     1       2.209   4.745  19.223  0.00  0.00    +0.000 A 
ATOM     31  C   UNL     1       2.039   4.397  20.575  0.00  0.00    +0.000 A 
ATOM     32  C   UNL     1       1.317   3.263  20.954  0.00  0.00    +0.000 A 
ATOM     33  C   UNL     1       0.753   2.443  19.986  0.00  0.00    +0.000 A 
ATOM     34  C   UNL     1       0.895   2.769  18.642  0.00  0.00    +0.000 A 
ATOM     35  C   UNL     1       1.602   3.915  18.262  0.00  0.00    +0.000 A 
ENDBRANCH  29  30
BRANCH  29  36
ATOM     36  C   UNL     1       4.526   5.817  18.978  0.00  0.00    +0.000 C 
BRANCH  36  37
ATOM     37  C   UNL     1       5.192   4.795  18.080  0.00  0.00    +0.000 C 
ATOM     38  O   UNL     1       5.066   4.718  16.869  0.00  0.00    +0.000 OA
BRANCH  37  39
ATOM     39  O   UNL     1       5.895   3.872  18.780  0.00  0.00    +0.000 OA
ATOM     40  H   UNL     1       5.949   3.000  18.345  0.00  0.00    +0.000 HD
ENDBRANCH  37  39
ENDBRANCH  36  37
ENDBRANCH  29  36
ENDBRANCH  28  29
ENDBRANCH  12  28
TORSDOF 8
ENDMDL
MODEL 2
REMARK VINA RESULT:      -8.3      0.508      1.213
REMARK  Name = 
REMARK  9 active torsions:
REMARK  status: ('A' for Active; 'I' for Inactive)
REMARK    1  A    between atoms: C_1  and  N_2
REMARK    2  A    between atoms: N_5  and  C_6
REMARK    3  A    between atoms: C_9  and  C_10
REMARK    4  A    between atoms: C_21  and  C_23
REMARK    5  A    between atoms: C_23  and  C_24
REMARK    6  A    between atoms: C_24  and  C_25
REMARK    7  A    between atoms: C_24  and  C_29
REMARK    8  A    between atoms: C_25  and  C_26
REMARK    9  A    between atoms: C_26  and  O_28
REMARK                            x       y       z     vdW  Elec       q    Type
REMARK                         _______ _______ _______ _____ _____    ______ ____
ROOT
ATOM      1  C   UNL     1       2.235  13.136  20.900  0.00  0.00    +0.000 C 
ATOM      2  N   UNL     1       0.887  12.744  20.531  0.00  0.00    +0.000 N 
ATOM      3  C   UNL     1      -0.228  13.323  21.135  0.00  0.00    +0.000 C 
ATOM      4  O   UNL     1      -0.165  14.337  21.817  0.00  0.00    +0.000 OA
ATOM      5  N   UNL     1      -1.323  12.537  20.858  0.00  0.00    +0.000 N 
ATOM      6  C   UNL     1      -0.972  11.585  19.930  0.00  0.00    +0.000 C 
ATOM      7  O   UNL     1      -1.723  10.855  19.292  0.00  0.00    +0.000 OA
ATOM      8  C   UNL     1       0.567  11.471  19.895  0.00  0.00    +0.000 C 
ATOM      9  C   UNL     1       1.134  11.363  18.473  0.00  0.00    +0.000 C 
ATOM     10  C   UNL     1       0.891   9.993  17.845  0.00  0.00    +0.000 C 
ATOM     11  N   UNL     1       1.296   8.932  18.759  0.00  0.00    +0.000 N 
ATOM     12  C   UNL     1       2.456   8.202  18.498  0.00  0.00    +0.000 C 
ATOM     13  O   UNL     1       3.174   8.421  17.524  0.00  0.00    +0.000 OA
ATOM     14  C   UNL     1       0.603   8.950  20.047  0.00  0.00    +0.000 C 
ATOM     15  C   UNL     1       0.945  10.254  20.770  0.00  0.00    +0.000 C 
ENDROOT
BRANCH   5  16
ATOM     16  C   UNL     1      -2.569  12.599  21.546  0.00  0.00    +0.000 A 
ATOM     17  C   UNL     1      -3.731  13.083  20.925  0.00  0.00    +0.000 A 
ATOM     18  C   UNL     1      -4.900  13.328  21.657  0.00  0.00    +0.000 A 
ATOM     19  C   UNL     1      -4.934  13.085  23.030  0.00  0.00    +0.000 A 
ATOM     20  C   UNL     1      -3.805  12.562  23.658  0.00  0.00    +0.000 A 
ATOM     21  C   UNL     1      -2.642  12.308  22.919  0.00  0.00    +0.000 A 
BRANCH  19  22
ATOM     22  C   UNL     1      -6.154  13.428  23.815  0.00  0.00    +0.000 C 
ATOM     23  N   UNL     1      -6.362  14.608  24.306  0.00  0.00    +0.000 NA
ATOM     24  N   UNL     1      -7.120  12.494  24.027  0.00  0.00    +0.000 N 
ATOM     25  H   UNL     1      -5.570  15.233  24.136  0.00  0.00    +0.000 HD
ATOM     26  H   UNL     1      -7.300  11.855  23.261  0.00  0.00    +0.000 HD
ATOM     27  H   UNL     1      -7.970  12.930  24.379  0.00  0.00    +0.000 HD
ENDBRANCH  19  22
ENDBRANCH   5  16
BRANCH  12  28
ATOM     28  C   UNL     1       2.735   7.063  19.457  0.00  0.00    +0.000 C 
BRANCH  28  29
ATOM     29  C   UNL     1       3.246   5.740  18.859  0.00  0.00    +0.000 C 
BRANCH  29  30
ATOM     30  C   UNL     1       2.343   4.548  19.226  0.00  0.00    +0.000 A 
ATOM     31  C   UNL     1       1.818   3.667  18.263  0.00  0.00    +0.000 A 
ATOM     32  C   UNL     1       1.001   2.592  18.622  0.00  0.00    +0.000 A 
ATOM     33  C   UNL     1       0.683   2.377  19.957  0.00  0.00    +0.000 A 
ATOM     34  C   UNL     1       1.198   3.224  20.931  0.00  0.00    +0.000 A 
ATOM     35  C   UNL     1       2.032   4.291  20.573  0.00  0.00    +0.000 A 
ENDBRANCH  29  30
BRANCH  29  36
ATOM     36  C   UNL     1       4.736   5.467  19.186  0.00  0.00    +0.000 C 
BRANCH  36  37
ATOM     37  C   UNL     1       5.489   4.641  18.164  0.00  0.00    +0.000 C 
ATOM     38  O   UNL     1       5.093   4.355  17.045  0.00  0.00    +0.000 OA
BRANCH  37  39
ATOM     39  O   UNL     1       6.649   4.141  18.654  0.00  0.00    +0.000 OA
ATOM     40  H   UNL     1       6.838   4.405  19.574  0.00  0.00    +0.000 HD
ENDBRANCH  37  39
ENDBRANCH  36  37
ENDBRANCH  29  36
ENDBRANCH  28  29
ENDBRANCH  12  28
TORSDOF 8
ENDMDL
MODEL 3
REMARK VINA RESULT:      -8.2      0.778      1.159
REMARK  Name = 
REMARK  9 active torsions:
REMARK  status: ('A' for Active; 'I' for Inactive)
REMARK    1  A    between atoms: C_1  and  N_2
REMARK    2  A    between atoms: N_5  and  C_6
REMARK    3  A    between atoms: C_9  and  C_10
REMARK    4  A    between atoms: C_21  and  C_23
REMARK    5  A    between atoms: C_23  and  C_24
REMARK    6  A    between atoms: C_24  and  C_25
REMARK    7  A    between atoms: C_24  and  C_29
REMARK    8  A    between atoms: C_25  and  C_26
REMARK    9  A    between atoms: C_26  and  O_28
REMARK                            x       y       z     vdW  Elec       q    Type
REMARK                         _______ _______ _______ _____ _____    ______ ____
ROOT
ATOM      1  C   UNL     1       2.525  13.012  20.820  0.00  0.00    +0.000 C 
ATOM      2  N   UNL     1       1.161  12.654  20.480  0.00  0.00    +0.000 N 
ATOM      3  C   UNL     1       0.074  13.228  21.138  0.00  0.00    +0.000 C 
ATOM      4  O   UNL     1       0.174  14.214  21.854  0.00  0.00    +0.000 OA
ATOM      5  N   UNL     1      -1.042  12.469  20.867  0.00  0.00    +0.000 N 
ATOM      6  C   UNL     1      -0.734  11.546  19.894  0.00  0.00    +0.000 C 
ATOM      7  O   UNL     1      -1.516  10.851  19.254  0.00  0.00    +0.000 OA
ATOM      8  C   UNL     1       0.801  11.410  19.809  0.00  0.00    +0.000 C 
ATOM      9  C   UNL     1       1.323  11.346  18.367  0.00  0.00    +0.000 C 
ATOM     10  C   UNL     1       1.039  10.004  17.697  0.00  0.00    +0.000 C 
ATOM     11  N   UNL     1       1.454   8.904  18.559  0.00  0.00    +0.000 N 
ATOM     12  C   UNL     1       2.594   8.166  18.237  0.00  0.00    +0.000 C 
ATOM     13  O   UNL     1       3.286   8.410  17.249  0.00  0.00    +0.000 OA
ATOM     14  C   UNL     1       0.801   8.885  19.868  0.00  0.00    +0.000 C 
ATOM     15  C   UNL     1       1.185  10.156  20.627  0.00  0.00    +0.000 C 
ENDROOT
BRANCH   5  16
ATOM     16  C   UNL     1      -2.265  12.525  21.594  0.00  0.00    +0.000 A 
ATOM     17  C   UNL     1      -3.422  13.102  21.048  0.00  0.00    +0.000 A 
ATOM     18  C   UNL     1      -4.560  13.333  21.832  0.00  0.00    +0.000 A 
ATOM     19  C   UNL     1      -4.567  12.983  23.182  0.00  0.00    +0.000 A 
ATOM     20  C   UNL     1      -3.444  12.367  23.733  0.00  0.00    +0.000 A 
ATOM     21  C   UNL     1      -2.313  12.127  22.942  0.00  0.00    +0.000 A 
BRANCH  19  22
ATOM     22  C   UNL     1      -5.750  13.310  24.028  0.00  0.00    +0.000 C 
ATOM     23  N   UNL     1      -6.151  14.523  24.233  0.00  0.00    +0.000 NA
ATOM     24  N   UNL     1      -6.476  12.316  24.608  0.00  0.00    +0.000 N 
ATOM     25  H   UNL     1      -5.526  15.206  23.797  0.00  0.00    +0.000 HD
ATOM     26  H   UNL     1      -6.593  11.470  24.062  0.00  0.00    +0.000 HD
ATOM     27  H   UNL     1      -7.361  12.675  24.962  0.00  0.00    +0.000 HD
ENDBRANCH  19  22
ENDBRANCH   5  16
BRANCH  12  28
ATOM     28  C   UNL     1       2.883   6.989  19.145  0.00  0.00    +0.000 C 
BRANCH  28  29
ATOM     29  C   UNL     1       2.961   5.594  18.497  0.00  0.00    +0.000 C 
BRANCH  29  30
ATOM     30  C   UNL     1       2.442   4.488  19.433  0.00  0.00    +0.000 A 
ATOM     31  C   UNL     1       2.386   4.638  20.831  0.00  0.00    +0.000 A 
ATOM     32  C   UNL     1       1.909   3.618  21.658  0.00  0.00    +0.000 A 
ATOM     33  C   UNL     1       1.482   2.417  21.106  0.00  0.00    +0.000 A 
ATOM     34  C   UNL     1       1.515   2.246  19.726  0.00  0.00    +0.000 A 
ATOM     35  C   UNL     1       1.975   3.275  18.896  0.00  0.00    +0.000 A 
ENDBRANCH  29  30
BRANCH  29  36
ATOM     36  C   UNL     1       4.368   5.271  17.933  0.00  0.00    +0.000 C 
BRANCH  36  37
ATOM     37  C   UNL     1       5.382   4.784  18.946  0.00  0.00    +0.000 C 
ATOM     38  O   UNL     1       6.077   5.491  19.658  0.00  0.00    +0.000 OA
BRANCH  37  39
ATOM     39  O   UNL     1       5.532   3.438  18.923  0.00  0.00    +0.000 OA
ATOM     40  H   UNL     1       6.461   3.141  18.910  0.00  0.00    +0.000 HD
ENDBRANCH  37  39
ENDBRANCH  36  37
ENDBRANCH  29  36
ENDBRANCH  28  29
ENDBRANCH  12  28
TORSDOF 8
ENDMDL
MODEL 4
REMARK VINA RESULT:      -8.1      1.513      2.864
REMARK  Name = 
REMARK  9 active torsions:
REMARK  status: ('A' for Active; 'I' for Inactive)
REMARK    1  A    between atoms: C_1  and  N_2
REMARK    2  A    between atoms: N_5  and  C_6
REMARK    3  A    between atoms: C_9  and  C_10
REMARK    4  A    between atoms: C_21  and  C_23
REMARK    5  A    between atoms: C_23  and  C_24
REMARK    6  A    between atoms: C_24  and  C_25
REMARK    7  A    between atoms: C_24  and  C_29
REMARK    8  A    between atoms: C_25  and  C_26
REMARK    9  A    between atoms: C_26  and  O_28
REMARK                            x       y       z     vdW  Elec       q    Type
REMARK                         _______ _______ _______ _____ _____    ______ ____
ROOT
ATOM      1  C   UNL     1       2.473  12.933  20.570  0.00  0.00    +0.000 C 
ATOM      2  N   UNL     1       1.107  12.525  20.303  0.00  0.00    +0.000 N 
ATOM      3  C   UNL     1       0.026  13.173  20.899  0.00  0.00    +0.000 C 
ATOM      4  O   UNL     1       0.128  14.247  21.476  0.00  0.00    +0.000 OA
ATOM      5  N   UNL     1      -1.088  12.378  20.749  0.00  0.00    +0.000 N 
ATOM      6  C   UNL     1      -0.788  11.337  19.902  0.00  0.00    +0.000 C 
ATOM      7  O   UNL     1      -1.573  10.558  19.372  0.00  0.00    +0.000 OA
ATOM      8  C   UNL     1       0.747  11.201  19.808  0.00  0.00    +0.000 C 
ATOM      9  C   UNL     1       1.246  10.951  18.378  0.00  0.00    +0.000 C 
ATOM     10  C   UNL     1       0.963   9.529  17.896  0.00  0.00    +0.000 C 
ATOM     11  N   UNL     1       1.402   8.556  18.889  0.00  0.00    +0.000 N 
ATOM     12  C   UNL     1       2.543   7.790  18.647  0.00  0.00    +0.000 C 
ATOM     13  O   UNL     1       3.216   7.906  17.624  0.00  0.00    +0.000 OA
ATOM     14  C   UNL     1       0.770   8.706  20.200  0.00  0.00    +0.000 C 
ATOM     15  C   UNL     1       1.156  10.069  20.777  0.00  0.00    +0.000 C 
ENDROOT
BRANCH   5  16
ATOM     16  C   UNL     1      -2.299  12.521  21.484  0.00  0.00    +0.000 A 
ATOM     17  C   UNL     1      -3.428  13.144  20.930  0.00  0.00    +0.000 A 
ATOM     18  C   UNL     1      -4.545  13.459  21.715  0.00  0.00    +0.000 A 
ATOM     19  C   UNL     1      -4.559  13.150  23.075  0.00  0.00    +0.000 A 
ATOM     20  C   UNL     1      -3.465  12.491  23.635  0.00  0.00    +0.000 A 
ATOM     21  C   UNL     1      -2.356  12.167  22.843  0.00  0.00    +0.000 A 
BRANCH  19  22
ATOM     22  C   UNL     1      -5.714  13.565  23.920  0.00  0.00    +0.000 C 
ATOM     23  N   UNL     1      -6.538  12.717  24.448  0.00  0.00    +0.000 NA
ATOM     24  N   UNL     1      -5.932  14.881  24.187  0.00  0.00    +0.000 N 
ATOM     25  H   UNL     1      -6.325  11.757  24.162  0.00  0.00    +0.000 HD
ATOM     26  H   UNL     1      -5.106  15.452  24.325  0.00  0.00    +0.000 HD
ATOM     27  H   UNL     1      -6.609  14.988  24.940  0.00  0.00    +0.000 HD
ENDBRANCH  19  22
ENDBRANCH   5  16
BRANCH  12  28
ATOM     28  C   UNL     1       2.857   6.745  19.698  0.00  0.00    +0.000 C 
BRANCH  28  29
ATOM     29  C   UNL     1       2.994   5.285  19.228  0.00  0.00    +0.000 C 
BRANCH  29  30
ATOM     30  C   UNL     1       4.323   5.032  18.492  0.00  0.00    +0.000 A 
ATOM     31  C   UNL     1       4.384   4.483  17.199  0.00  0.00    +0.000 A 
ATOM     32  C   UNL     1       5.602   4.265  16.552  0.00  0.00    +0.000 A 
ATOM     33  C   UNL     1       6.794   4.586  17.189  0.00  0.00    +0.000 A 
ATOM     34  C   UNL     1       6.764   5.142  18.463  0.00  0.00    +0.000 A 
ATOM     35  C   UNL     1       5.542   5.378  19.104  0.00  0.00    +0.000 A 
ENDBRANCH  29  30
BRANCH  29  36
ATOM     36  C   UNL     1       1.771   4.798  18.411  0.00  0.00    +0.000 C 
BRANCH  36  37
ATOM     37  C   UNL     1       1.126   3.519  18.902  0.00  0.00    +0.000 C 
ATOM     38  O   UNL     1       1.032   2.478  18.271  0.00  0.00    +0.000 OA
BRANCH  37  39
ATOM     39  O   UNL     1       0.546   3.664  20.118  0.00  0.00    +0.000 OA
ATOM     40  H   UNL     1       0.577   2.861  20.671  0.00  0.00    +0.000 HD
ENDBRANCH  37  39
ENDBRANCH  36  37
ENDBRANCH  29  36
ENDBRANCH  28  29
ENDBRANCH  12  28
TORSDOF 8
ENDMDL
MODEL 5
REMARK VINA RESULT:      -8.0      0.732      1.476
REMARK  Name = 
REMARK  9 active torsions:
REMARK  status: ('A' for Active; 'I' for Inactive)
REMARK    1  A    between atoms: C_1  and  N_2
REMARK    2  A    between atoms: N_5  and  C_6
REMARK    3  A    between atoms: C_9  and  C_10
REMARK    4  A    between atoms: C_21  and  C_23
REMARK    5  A    between atoms: C_23  and  C_24
REMARK    6  A    between atoms: C_24  and  C_25
REMARK    7  A    between atoms: C_24  and  C_29
REMARK    8  A    between atoms: C_25  and  C_26
REMARK    9  A    between atoms: C_26  and  O_28
REMARK                            x       y       z     vdW  Elec       q    Type
REMARK                         _______ _______ _______ _____ _____    ______ ____
ROOT
ATOM      1  C   UNL     1       2.076  13.348  20.978  0.00  0.00    +0.000 C 
ATOM      2  N   UNL     1       0.721  12.983  20.610  0.00  0.00    +0.000 N 
ATOM      3  C   UNL     1      -0.382  13.557  21.241  0.00  0.00    +0.000 C 
ATOM      4  O   UNL     1      -0.301  14.549  21.953  0.00  0.00    +0.000 OA
ATOM      5  N   UNL     1      -1.489  12.793  20.951  0.00  0.00    +0.000 N 
ATOM      6  C   UNL     1      -1.158  11.865  19.991  0.00  0.00    +0.000 C 
ATOM      7  O   UNL     1      -1.922  11.164  19.338  0.00  0.00    +0.000 OA
ATOM      8  C   UNL     1       0.379  11.734  19.939  0.00  0.00    +0.000 C 
ATOM      9  C   UNL     1       0.933  11.663  18.509  0.00  0.00    +0.000 C 
ATOM     10  C   UNL     1       0.668  10.315  17.842  0.00  0.00    +0.000 C 
ATOM     11  N   UNL     1       1.068   9.222  18.720  0.00  0.00    +0.000 N 
ATOM     12  C   UNL     1       2.218   8.487  18.427  0.00  0.00    +0.000 C 
ATOM     13  O   UNL     1       2.930   8.727  17.453  0.00  0.00    +0.000 OA
ATOM     14  C   UNL     1       0.387   9.210  20.014  0.00  0.00    +0.000 C 
ATOM     15  C   UNL     1       0.751  10.487  20.773  0.00  0.00    +0.000 C 
ENDROOT
BRANCH   5  16
ATOM     16  C   UNL     1      -2.728  12.849  21.651  0.00  0.00    +0.000 A 
ATOM     17  C   UNL     1      -3.857  13.477  21.103  0.00  0.00    +0.000 A 
ATOM     18  C   UNL     1      -5.007  13.704  21.869  0.00  0.00    +0.000 A 
ATOM     19  C   UNL     1      -5.056  13.297  23.203  0.00  0.00    +0.000 A 
ATOM     20  C   UNL     1      -3.962  12.631  23.753  0.00  0.00    +0.000 A 
ATOM     21  C   UNL     1      -2.818  12.396  22.979  0.00  0.00    +0.000 A 
BRANCH  19  22
ATOM     22  C   UNL     1      -6.251  13.618  24.034  0.00  0.00    +0.000 C 
ATOM     23  N   UNL     1      -7.020  12.706  24.538  0.00  0.00    +0.000 NA
ATOM     24  N   UNL     1      -6.566  14.912  24.314  0.00  0.00    +0.000 N 
ATOM     25  H   UNL     1      -6.736  11.769  24.244  0.00  0.00    +0.000 HD
ATOM     26  H   UNL     1      -5.786  15.539  24.472  0.00  0.00    +0.000 HD
ATOM     27  H   UNL     1      -7.261  14.961  25.057  0.00  0.00    +0.000 HD
ENDBRANCH  19  22
ENDBRANCH   5  16
BRANCH  12  28
ATOM     28  C   UNL     1       2.491   7.316  19.349  0.00  0.00    +0.000 C 
BRANCH  28  29
ATOM     29  C   UNL     1       2.899   5.981  18.699  0.00  0.00    +0.000 C 
BRANCH  29  30
ATOM     30  C   UNL     1       2.260   4.771  19.405  0.00  0.00    +0.000 A 
ATOM     31  C   UNL     1       1.481   3.818  18.725  0.00  0.00    +0.000 A 
ATOM     32  C   UNL     1       0.913   2.728  19.388  0.00  0.00    +0.000 A 
ATOM     33  C   UNL     1       1.105   2.570  20.755  0.00  0.00    +0.000 A 
ATOM     34  C   UNL     1       1.881   3.490  21.451  0.00  0.00    +0.000 A 
ATOM     35  C   UNL     1       2.466   4.572  20.782  0.00  0.00    +0.000 A 
ENDBRANCH  29  30
BRANCH  29  36
ATOM     36  C   UNL     1       4.434   5.829  18.550  0.00  0.00    +0.000 C 
BRANCH  36  37
ATOM     37  C   UNL     1       4.967   5.936  17.137  0.00  0.00    +0.000 C 
ATOM     38  O   UNL     1       5.599   6.875  16.681  0.00  0.00    +0.000 OA
BRANCH  37  39
ATOM     39  O   UNL     1       4.582   4.897  16.358  0.00  0.00    +0.000 OA
ATOM     40  H   UNL     1       5.287   4.549  15.781  0.00  0.00    +0.000 HD
ENDBRANCH  37  39
ENDBRANCH  36  37
ENDBRANCH  29  36
ENDBRANCH  28  29
ENDBRANCH  12  28
TORSDOF 8
ENDMDL
MODEL 6
REMARK VINA RESULT:      -8.0      1.370      2.668
REMARK  Name = 
REMARK  9 active torsions:
REMARK  status: ('A' for Active; 'I' for Inactive)
REMARK    1  A    between atoms: C_1  and  N_2
REMARK    2  A    between atoms: N_5  and  C_6
REMARK    3  A    between atoms: C_9  and  C_10
REMARK    4  A    between atoms: C_21  and  C_23
REMARK    5  A    between atoms: C_23  and  C_24
REMARK    6  A    between atoms: C_24  and  C_25
REMARK    7  A    between atoms: C_24  and  C_29
REMARK    8  A    between atoms: C_25  and  C_26
REMARK    9  A    between atoms: C_26  and  O_28
REMARK                            x       y       z     vdW  Elec       q    Type
REMARK                         _______ _______ _______ _____ _____    ______ ____
ROOT
ATOM      1  C   UNL     1       2.582  13.149  20.571  0.00  0.00    +0.000 C 
ATOM      2  N   UNL     1       1.188  12.789  20.390  0.00  0.00    +0.000 N 
ATOM      3  C   UNL     1       0.169  13.491  21.031  0.00  0.00    +0.000 C 
ATOM      4  O   UNL     1       0.344  14.572  21.577  0.00  0.00    +0.000 OA
ATOM      5  N   UNL     1      -0.981  12.738  20.963  0.00  0.00    +0.000 N 
ATOM      6  C   UNL     1      -0.770  11.668  20.124  0.00  0.00    +0.000 C 
ATOM      7  O   UNL     1      -1.614  10.911  19.656  0.00  0.00    +0.000 OA
ATOM      8  C   UNL     1       0.750  11.470  19.947  0.00  0.00    +0.000 C 
ATOM      9  C   UNL     1       1.157  11.171  18.497  0.00  0.00    +0.000 C 
ATOM     10  C   UNL     1       0.793   9.752  18.065  0.00  0.00    +0.000 C 
ATOM     11  N   UNL     1       1.250   8.783  19.054  0.00  0.00    +0.000 N 
ATOM     12  C   UNL     1       2.346   7.968  18.765  0.00  0.00    +0.000 C 
ATOM     13  O   UNL     1       2.964   8.036  17.704  0.00  0.00    +0.000 OA
ATOM     14  C   UNL     1       0.701   8.985  20.394  0.00  0.00    +0.000 C 
ATOM     15  C   UNL     1       1.170  10.343  20.918  0.00  0.00    +0.000 C 
ENDROOT
BRANCH   5  16
ATOM     16  C   UNL     1      -2.143  12.944  21.761  0.00  0.00    +0.000 A 
ATOM     17  C   UNL     1      -2.292  12.335  23.016  0.00  0.00    +0.000 A 
ATOM     18  C   UNL     1      -3.510  12.379  23.706  0.00  0.00    +0.000 A 
ATOM     19  C   UNL     1      -4.608  13.042  23.156  0.00  0.00    +0.000 A 
ATOM     20  C   UNL     1      -4.467  13.691  21.930  0.00  0.00    +0.000 A 
ATOM     21  C   UNL     1      -3.243  13.654  21.250  0.00  0.00    +0.000 A 
BRANCH  19  22
ATOM     22  C   UNL     1      -5.923  13.010  23.857  0.00  0.00    +0.000 C 
ATOM     23  N   UNL     1      -6.468  14.066  24.371  0.00  0.00    +0.000 NA
ATOM     24  N   UNL     1      -6.618  11.846  23.961  0.00  0.00    +0.000 N 
ATOM     25  H   UNL     1      -5.861  14.884  24.285  0.00  0.00    +0.000 HD
ATOM     26  H   UNL     1      -6.573  11.224  23.161  0.00  0.00    +0.000 HD
ATOM     27  H   UNL     1      -7.575  12.023  24.261  0.00  0.00    +0.000 HD
ENDBRANCH  19  22
ENDBRANCH   5  16
BRANCH  12  28
ATOM     28  C   UNL     1       2.679   6.933  19.820  0.00  0.00    +0.000 C 
BRANCH  28  29
ATOM     29  C   UNL     1       2.883   5.481  19.351  0.00  0.00    +0.000 C 
BRANCH  29  30
ATOM     30  C   UNL     1       4.223   5.289  18.616  0.00  0.00    +0.000 A 
ATOM     31  C   UNL     1       4.301   4.911  17.264  0.00  0.00    +0.000 A 
ATOM     32  C   UNL     1       5.530   4.745  16.620  0.00  0.00    +0.000 A 
ATOM     33  C   UNL     1       6.714   4.946  17.319  0.00  0.00    +0.000 A 
ATOM     34  C   UNL     1       6.665   5.332  18.654  0.00  0.00    +0.000 A 
ATOM     35  C   UNL     1       5.434   5.516  19.294  0.00  0.00    +0.000 A 
ENDBRANCH  29  30
BRANCH  29  36
ATOM     36  C   UNL     1       1.684   4.939  18.533  0.00  0.00    +0.000 C 
BRANCH  36  37
ATOM     37  C   UNL     1       1.108   3.622  19.011  0.00  0.00    +0.000 C 
ATOM     38  O   UNL     1       0.776   3.362  20.156  0.00  0.00    +0.000 OA
BRANCH  37  39
ATOM     39  O   UNL     1       1.085   2.682  18.036  0.00  0.00    +0.000 OA
ATOM     40  H   UNL     1       0.618   1.863  18.285  0.00  0.00    +0.000 HD
ENDBRANCH  37  39
ENDBRANCH  36  37
ENDBRANCH  29  36
ENDBRANCH  28  29
ENDBRANCH  12  28
TORSDOF 8
ENDMDL
MODEL 7
REMARK VINA RESULT:      -7.9      3.615      5.838
REMARK  Name = 
REMARK  9 active torsions:
REMARK  status: ('A' for Active; 'I' for Inactive)
REMARK    1  A    between atoms: C_1  and  N_2
REMARK    2  A    between atoms: N_5  and  C_6
REMARK    3  A    between atoms: C_9  and  C_10
REMARK    4  A    between atoms: C_21  and  C_23
REMARK    5  A    between atoms: C_23  and  C_24
REMARK    6  A    between atoms: C_24  and  C_25
REMARK    7  A    between atoms: C_24  and  C_29
REMARK    8  A    between atoms: C_25  and  C_26
REMARK    9  A    between atoms: C_26  and  O_28
REMARK                            x       y       z     vdW  Elec       q    Type
REMARK                         _______ _______ _______ _____ _____    ______ ____
ROOT
ATOM      1  C   UNL     1      -1.947   9.888  18.359  0.00  0.00    +0.000 C 
ATOM      2  N   UNL     1      -0.944  10.562  19.162  0.00  0.00    +0.000 N 
ATOM      3  C   UNL     1      -0.753  11.941  19.077  0.00  0.00    +0.000 C 
ATOM      4  O   UNL     1      -1.545  12.691  18.525  0.00  0.00    +0.000 OA
ATOM      5  N   UNL     1       0.456  12.243  19.663  0.00  0.00    +0.000 N 
ATOM      6  C   UNL     1       0.944  11.123  20.295  0.00  0.00    +0.000 C 
ATOM      7  O   UNL     1       1.874  11.063  21.091  0.00  0.00    +0.000 OA
ATOM      8  C   UNL     1       0.209   9.883  19.742  0.00  0.00    +0.000 C 
ATOM      9  C   UNL     1      -0.186   8.878  20.832  0.00  0.00    +0.000 C 
ATOM     10  C   UNL     1       1.008   8.090  21.367  0.00  0.00    +0.000 C 
ATOM     11  N   UNL     1       1.792   7.541  20.268  0.00  0.00    +0.000 N 
ATOM     12  C   UNL     1       1.745   6.171  20.004  0.00  0.00    +0.000 C 
ATOM     13  O   UNL     1       1.053   5.391  20.657  0.00  0.00    +0.000 OA
ATOM     14  C   UNL     1       2.312   8.544  19.339  0.00  0.00    +0.000 C 
ATOM     15  C   UNL     1       1.133   9.255  18.674  0.00  0.00    +0.000 C 
ENDROOT
BRANCH   5  16
ATOM     16  C   UNL     1       1.160  13.471  19.499  0.00  0.00    +0.000 A 
ATOM     17  C   UNL     1       2.246  13.586  18.618  0.00  0.00    +0.000 A 
ATOM     18  C   UNL     1       3.055  14.728  18.605  0.00  0.00    +0.000 A 
ATOM     19  C   UNL     1       2.789  15.789  19.472  0.00  0.00    +0.000 A 
ATOM     20  C   UNL     1       1.689  15.713  20.324  0.00  0.00    +0.000 A 
ATOM     21  C   UNL     1       0.875  14.572  20.324  0.00  0.00    +0.000 A 
BRANCH  19  22
ATOM     22  C   UNL     1       3.706  16.964  19.512  0.00  0.00    +0.000 C 
ATOM     23  N   UNL     1       4.586  17.197  18.592  0.00  0.00    +0.000 NA
ATOM     24  N   UNL     1       3.628  17.862  20.531  0.00  0.00    +0.000 N 
ATOM     25  H   UNL     1       4.605  16.453  17.890  0.00  0.00    +0.000 HD
ATOM     26  H   UNL     1       2.698  18.064  20.879  0.00  0.00    +0.000 HD
ATOM     27  H   UNL     1       4.152  18.706  20.308  0.00  0.00    +0.000 HD
ENDBRANCH  19  22
ENDBRANCH   5  16
BRANCH  12  28
ATOM     28  C   UNL     1       2.668   5.691  18.902  0.00  0.00    +0.000 C 
BRANCH  28  29
ATOM     29  C   UNL     1       3.956   4.960  19.323  0.00  0.00    +0.000 C 
BRANCH  29  30
ATOM     30  C   UNL     1       5.217   5.614  18.729  0.00  0.00    +0.000 A 
ATOM     31  C   UNL     1       5.176   6.474  17.617  0.00  0.00    +0.000 A 
ATOM     32  C   UNL     1       6.335   7.056  17.098  0.00  0.00    +0.000 A 
ATOM     33  C   UNL     1       7.568   6.783  17.676  0.00  0.00    +0.000 A 
ATOM     34  C   UNL     1       7.637   5.946  18.784  0.00  0.00    +0.000 A 
ATOM     35  C   UNL     1       6.473   5.378  19.316  0.00  0.00    +0.000 A 
ENDBRANCH  29  30
BRANCH  29  36
ATOM     36  C   UNL     1       3.900   3.436  19.045  0.00  0.00    +0.000 C 
BRANCH  36  37
ATOM     37  C   UNL     1       4.090   2.545  20.255  0.00  0.00    +0.000 C 
ATOM     38  O   UNL     1       5.040   1.805  20.455  0.00  0.00    +0.000 OA
BRANCH  37  39
ATOM     39  O   UNL     1       3.020   2.564  21.085  0.00  0.00    +0.000 OA
ATOM     40  H   UNL     1       2.753   3.458  21.369  0.00  0.00    +0.000 HD
ENDBRANCH  37  39
ENDBRANCH  36  37
ENDBRANCH  29  36
ENDBRANCH  28  29
ENDBRANCH  12  28
TORSDOF 8
ENDMDL
MODEL 8
REMARK VINA RESULT:      -7.8      1.448      2.777
REMARK  Name = 
REMARK  9 active torsions:
REMARK  status: ('A' for Active; 'I' for Inactive)
REMARK    1  A    between atoms: C_1  and  N_2
REMARK    2  A    between atoms: N_5  and  C_6
REMARK    3  A    between atoms: C_9  and  C_10
REMARK    4  A    between atoms: C_21  and  C_23
REMARK    5  A    between atoms: C_23  and  C_24
REMARK    6  A    between atoms: C_24  and  C_25
REMARK    7  A    between atoms: C_24  and  C_29
REMARK    8  A    between atoms: C_25  and  C_26
REMARK    9  A    between atoms: C_26  and  O_28
REMARK                            x       y       z     vdW  Elec       q    Type
REMARK                         _______ _______ _______ _____ _____    ______ ____
ROOT
ATOM      1  C   UNL     1       2.503  12.888  20.693  0.00  0.00    +0.000 C 
ATOM      2  N   UNL     1       1.147  12.491  20.364  0.00  0.00    +0.000 N 
ATOM      3  C   UNL     1       0.045  13.118  20.945  0.00  0.00    +0.000 C 
ATOM      4  O   UNL     1       0.127  14.169  21.564  0.00  0.00    +0.000 OA
ATOM      5  N   UNL     1      -1.062  12.329  20.727  0.00  0.00    +0.000 N 
ATOM      6  C   UNL     1      -0.732  11.320  19.853  0.00  0.00    +0.000 C 
ATOM      7  O   UNL     1      -1.498  10.562  19.267  0.00  0.00    +0.000 OA
ATOM      8  C   UNL     1       0.805  11.186  19.808  0.00  0.00    +0.000 C 
ATOM      9  C   UNL     1       1.354  10.988  18.388  0.00  0.00    +0.000 C 
ATOM     10  C   UNL     1       1.088   9.586  17.845  0.00  0.00    +0.000 C 
ATOM     11  N   UNL     1       1.493   8.576  18.816  0.00  0.00    +0.000 N 
ATOM     12  C   UNL     1       2.642   7.819  18.586  0.00  0.00    +0.000 C 
ATOM     13  O   UNL     1       3.351   7.971  17.593  0.00  0.00    +0.000 OA
ATOM     14  C   UNL     1       0.816   8.679  20.108  0.00  0.00    +0.000 C 
ATOM     15  C   UNL     1       1.180  10.019  20.749  0.00  0.00    +0.000 C 
ENDROOT
BRANCH   5  16
ATOM     16  C   UNL     1      -2.299  12.446  21.423  0.00  0.00    +0.000 A 
ATOM     17  C   UNL     1      -3.439  12.994  20.815  0.00  0.00    +0.000 A 
ATOM     18  C   UNL     1      -4.589  13.289  21.557  0.00  0.00    +0.000 A 
ATOM     19  C   UNL     1      -4.627  13.035  22.928  0.00  0.00    +0.000 A 
ATOM     20  C   UNL     1      -3.521  12.450  23.543  0.00  0.00    +0.000 A 
ATOM     21  C   UNL     1      -2.377  12.145  22.794  0.00  0.00    +0.000 A 
BRANCH  19  22
ATOM     22  C   UNL     1      -5.823  13.430  23.724  0.00  0.00    +0.000 C 
ATOM     23  N   UNL     1      -6.203  12.791  24.784  0.00  0.00    +0.000 NA
ATOM     24  N   UNL     1      -6.559  14.517  23.365  0.00  0.00    +0.000 N 
ATOM     25  H   UNL     1      -5.621  11.967  24.956  0.00  0.00    +0.000 HD
ATOM     26  H   UNL     1      -6.041  15.307  22.997  0.00  0.00    +0.000 HD
ATOM     27  H   UNL     1      -7.195  14.785  24.114  0.00  0.00    +0.000 HD
ENDBRANCH  19  22
ENDBRANCH   5  16
BRANCH  12  28
ATOM     28  C   UNL     1       2.920   6.735  19.608  0.00  0.00    +0.000 C 
BRANCH  28  29
ATOM     29  C   UNL     1       3.153   5.307  19.083  0.00  0.00    +0.000 C 
BRANCH  29  30
ATOM     30  C   UNL     1       4.550   5.137  18.459  0.00  0.00    +0.000 A 
ATOM     31  C   UNL     1       5.736   5.416  19.162  0.00  0.00    +0.000 A 
ATOM     32  C   UNL     1       6.992   5.253  18.572  0.00  0.00    +0.000 A 
ATOM     33  C   UNL     1       7.092   4.812  17.259  0.00  0.00    +0.000 A 
ATOM     34  C   UNL     1       5.936   4.516  16.545  0.00  0.00    +0.000 A 
ATOM     35  C   UNL     1       4.678   4.662  17.141  0.00  0.00    +0.000 A 
ENDBRANCH  29  30
BRANCH  29  36
ATOM     36  C   UNL     1       2.026   4.822  18.136  0.00  0.00    +0.000 C 
BRANCH  36  37
ATOM     37  C   UNL     1       1.448   3.458  18.453  0.00  0.00    +0.000 C 
ATOM     38  O   UNL     1       0.754   3.183  19.419  0.00  0.00    +0.000 OA
BRANCH  37  39
ATOM     39  O   UNL     1       1.866   2.504  17.587  0.00  0.00    +0.000 OA
ATOM     40  H   UNL     1       2.122   1.665  18.014  0.00  0.00    +0.000 HD
ENDBRANCH  37  39
ENDBRANCH  36  37
ENDBRANCH  29  36
ENDBRANCH  28  29
ENDBRANCH  12  28
TORSDOF 8
ENDMDL
MODEL 9
REMARK VINA RESULT:      -7.8      3.526      5.690
REMARK  Name = 
REMARK  9 active torsions:
REMARK  status: ('A' for Active; 'I' for Inactive)
REMARK    1  A    between atoms: C_1  and  N_2
REMARK    2  A    between atoms: N_5  and  C_6
REMARK    3  A    between atoms: C_9  and  C_10
REMARK    4  A    between atoms: C_21  and  C_23
REMARK    5  A    between atoms: C_23  and  C_24
REMARK    6  A    between atoms: C_24  and  C_25
REMARK    7  A    between atoms: C_24  and  C_29
REMARK    8  A    between atoms: C_25  and  C_26
REMARK    9  A    between atoms: C_26  and  O_28
REMARK                            x       y       z     vdW  Elec       q    Type
REMARK                         _______ _______ _______ _____ _____    ______ ____
ROOT
ATOM      1  C   UNL     1      -2.038   9.821  18.428  0.00  0.00    +0.000 C 
ATOM      2  N   UNL     1      -1.060  10.522  19.239  0.00  0.00    +0.000 N 
ATOM      3  C   UNL     1      -0.942  11.910  19.194  0.00  0.00    +0.000 C 
ATOM      4  O   UNL     1      -1.780  12.634  18.676  0.00  0.00    +0.000 OA
ATOM      5  N   UNL     1       0.258  12.258  19.773  0.00  0.00    +0.000 N 
ATOM      6  C   UNL     1       0.813  11.147  20.364  0.00  0.00    +0.000 C 
ATOM      7  O   UNL     1       1.756  11.112  21.146  0.00  0.00    +0.000 OA
ATOM      8  C   UNL     1       0.135   9.887  19.783  0.00  0.00    +0.000 C 
ATOM      9  C   UNL     1      -0.192   8.830  20.847  0.00  0.00    +0.000 C 
ATOM     10  C   UNL     1       1.049   8.091  21.342  0.00  0.00    +0.000 C 
ATOM     11  N   UNL     1       1.845   7.616  20.216  0.00  0.00    +0.000 N 
ATOM     12  C   UNL     1       1.866   6.254  19.911  0.00  0.00    +0.000 C 
ATOM     13  O   UNL     1       1.225   5.420  20.549  0.00  0.00    +0.000 OA
ATOM     14  C   UNL     1       2.298   8.672  19.312  0.00  0.00    +0.000 C 
ATOM     15  C   UNL     1       1.075   9.340  18.684  0.00  0.00    +0.000 C 
ENDROOT
BRANCH   5  16
ATOM     16  C   UNL     1       0.895  13.525  19.638  0.00  0.00    +0.000 A 
ATOM     17  C   UNL     1       1.812  13.783  18.608  0.00  0.00    +0.000 A 
ATOM     18  C   UNL     1       2.580  14.954  18.593  0.00  0.00    +0.000 A 
ATOM     19  C   UNL     1       2.441  15.900  19.609  0.00  0.00    +0.000 A 
ATOM     20  C   UNL     1       1.504  15.683  20.618  0.00  0.00    +0.000 A 
ATOM     21  C   UNL     1       0.729  14.516  20.621  0.00  0.00    +0.000 A 
BRANCH  19  22
ATOM     22  C   UNL     1       3.323  17.101  19.632  0.00  0.00    +0.000 C 
ATOM     23  N   UNL     1       4.288  17.278  18.788  0.00  0.00    +0.000 NA
ATOM     24  N   UNL     1       3.121  18.084  20.551  0.00  0.00    +0.000 N 
ATOM     25  H   UNL     1       4.395  16.475  18.163  0.00  0.00    +0.000 HD
ATOM     26  H   UNL     1       2.156  18.288  20.783  0.00  0.00    +0.000 HD
ATOM     27  H   UNL     1       3.647  18.920  20.304  0.00  0.00    +0.000 HD
ENDBRANCH  19  22
ENDBRANCH   5  16
BRANCH  12  28
ATOM     28  C   UNL     1       2.796   5.857  18.783  0.00  0.00    +0.000 C 
BRANCH  28  29
ATOM     29  C   UNL     1       4.032   5.013  19.146  0.00  0.00    +0.000 C 
BRANCH  29  30
ATOM     30  C   UNL     1       5.343   5.671  18.680  0.00  0.00    +0.000 A 
ATOM     31  C   UNL     1       6.568   5.481  19.345  0.00  0.00    +0.000 A 
ATOM     32  C   UNL     1       7.745   6.088  18.901  0.00  0.00    +0.000 A 
ATOM     33  C   UNL     1       7.722   6.910  17.781  0.00  0.00    +0.000 A 
ATOM     34  C   UNL     1       6.528   7.106  17.097  0.00  0.00    +0.000 A 
ATOM     35  C   UNL     1       5.352   6.482  17.531  0.00  0.00    +0.000 A 
ENDBRANCH  29  30
BRANCH  29  36
ATOM     36  C   UNL     1       3.915   3.541  18.675  0.00  0.00    +0.000 C 
BRANCH  36  37
ATOM     37  C   UNL     1       3.904   2.502  19.776  0.00  0.00    +0.000 C 
ATOM     38  O   UNL     1       3.289   2.581  20.827  0.00  0.00    +0.000 OA
BRANCH  37  39
ATOM     39  O   UNL     1       4.751   1.474  19.527  0.00  0.00    +0.000 OA
ATOM     40  H   UNL     1       5.691   1.689  19.673  0.00  0.00    +0.000 HD
ENDBRANCH  37  39
ENDBRANCH  36  37
ENDBRANCH  29  36
ENDBRANCH  28  29
ENDBRANCH  12  28
TORSDOF 8
ENDMDL
