MODEL 1
REMARK VINA RESULT:      -7.6      0.000      0.000
REMARK  Name = 
REMARK  8 active torsions:
REMARK  status: ('A' for Active; 'I' for Inactive)
REMARK    1  A    between atoms: N_11  and  C_12
REMARK    2  A    between atoms: C_12  and  C_13
REMARK    3  A    between atoms: C_13  and  C_14
REMARK    4  A    between atoms: C_14  and  C_15
REMARK    5  A    between atoms: C_15  and  C_16
REMARK    6  A    between atoms: C_16  and  C_17
REMARK    7  A    between atoms: C_17  and  C_18
REMARK    8  A    between atoms: C_18  and  C_19
REMARK                            x       y       z     vdW  Elec       q    Type
REMARK                         _______ _______ _______ _____ _____    ______ ____
ROOT
ATOM      1  C   UNL     1       0.380  10.247  19.884  0.00  0.00    +0.000 A 
ATOM      2  C   UNL     1       0.767  10.493  18.566  0.00  0.00    +0.000 A 
ATOM      3  C   UNL     1       1.592   9.595  17.884  0.00  0.00    +0.000 A 
ATOM      4  C   UNL     1       2.040   8.436  18.544  0.00  0.00    +0.000 A 
ATOM      5  C   UNL     1       2.872   7.353  18.177  0.00  0.00    +0.000 A 
ATOM      6  C   UNL     1       2.994   6.529  19.273  0.00  0.00    +0.000 A 
ATOM      7  N   UNL     1       2.228   7.042  20.280  0.00  0.00    +0.000 N 
ATOM      8  C   UNL     1       1.645   8.219  19.867  0.00  0.00    +0.000 A 
ATOM      9  C   UNL     1       0.816   9.103  20.560  0.00  0.00    +0.000 A 
ATOM     10  C   UNL     1       3.861   5.336  19.390  0.00  0.00    +0.000 C 
ATOM     11  N   UNL     1       4.563   5.004  18.125  0.00  0.00    +0.000 NA
ATOM     12  C   UNL     1       4.840   6.177  17.256  0.00  0.00    +0.000 C 
ATOM     13  C   UNL     1       3.598   7.038  16.924  0.00  0.00    +0.000 C 
ATOM     14  H   UNL     1       2.129   6.645  21.206  0.00  0.00    +0.000 HD
ENDROOT
BRANCH  11  15
ATOM     15  C   UNL     1       5.831   4.310  18.419  0.00  0.00    +0.000 C 
BRANCH  15  16
ATOM     16  C   UNL     1       7.047   5.140  18.011  0.00  0.00    +0.000 C 
BRANCH  16  17
ATOM     17  C   UNL     1       7.613   5.914  19.196  0.00  0.00    +0.000 C 
BRANCH  17  18
ATOM     18  C   UNL     1       8.407   7.109  18.684  0.00  0.00    +0.000 C 
BRANCH  18  19
ATOM     19  C   UNL     1       7.551   8.022  17.818  0.00  0.00    +0.000 C 
BRANCH  19  20
ATOM     20  C   UNL     1       8.224   9.385  17.683  0.00  0.00    +0.000 C 
BRANCH  20  21
ATOM     21  C   UNL     1       8.964   9.760  18.964  0.00  0.00    +0.000 C 
BRANCH  21  22
ATOM     22  C   UNL     1       9.656  11.090  18.833  0.00  0.00    +0.000 A 
ATOM     23  C   UNL     1      10.880  11.319  19.465  0.00  0.00    +0.000 A 
ATOM     24  C   UNL     1      11.483  12.557  19.314  0.00  0.00    +0.000 A 
ATOM     25  N   UNL     1      10.954  13.569  18.594  0.00  0.00    +0.000 NA
ATOM     26  C   UNL     1       9.763  13.331  18.005  0.00  0.00    +0.000 A 
ATOM     27  C   UNL     1       9.080  12.128  18.098  0.00  0.00    +0.000 A 
ENDBRANCH  21  22
ENDBRANCH  20  21
ENDBRANCH  19  20
ENDBRANCH  18  19
ENDBRANCH  17  18
ENDBRANCH  16  17
ENDBRANCH  15  16
ENDBRANCH  11  15
TORSDOF 8
ENDMDL
MODEL 2
REMARK VINA RESULT:      -7.6      2.753      4.239
REMARK  Name = 
REMARK  8 active torsions:
REMARK  status: ('A' for Active; 'I' for Inactive)
REMARK    1  A    between atoms: N_11  and  C_12
REMARK    2  A    between atoms: C_12  and  C_13
REMARK    3  A    between atoms: C_13  and  C_14
REMARK    4  A    between atoms: C_14  and  C_15
REMARK    5  A    between atoms: C_15  and  C_16
REMARK    6  A    between atoms: C_16  and  C_17
REMARK    7  A    between atoms: C_17  and  C_18
REMARK    8  A    between atoms: C_18  and  C_19
REMARK                            x       y       z     vdW  Elec       q    Type
REMARK                         _______ _______ _______ _____ _____    ______ ____
ROOT
ATOM      1  C   UNL     1       1.994   2.503  21.331  0.00  0.00    +0.000 A 
ATOM      2  C   UNL     1       1.250   3.599  20.890  0.00  0.00    +0.000 A 
ATOM      3  C   UNL     1       1.777   4.489  19.952  0.00  0.00    +0.000 A 
ATOM      4  C   UNL     1       3.076   4.277  19.456  0.00  0.00    +0.000 A 
ATOM      5  C   UNL     1       3.905   4.964  18.539  0.00  0.00    +0.000 A 
ATOM      6  C   UNL     1       5.111   4.302  18.489  0.00  0.00    +0.000 A 
ATOM      7  N   UNL     1       5.033   3.208  19.303  0.00  0.00    +0.000 N 
ATOM      8  C   UNL     1       3.803   3.177  19.921  0.00  0.00    +0.000 A 
ATOM      9  C   UNL     1       3.288   2.274  20.853  0.00  0.00    +0.000 A 
ATOM     10  C   UNL     1       6.323   4.727  17.754  0.00  0.00    +0.000 C 
ATOM     11  N   UNL     1       6.106   5.945  16.934  0.00  0.00    +0.000 NA
ATOM     12  C   UNL     1       5.068   6.864  17.472  0.00  0.00    +0.000 C 
ATOM     13  C   UNL     1       3.699   6.198  17.745  0.00  0.00    +0.000 C 
ATOM     14  H   UNL     1       5.775   2.539  19.464  0.00  0.00    +0.000 HD
ENDROOT
BRANCH  11  15
ATOM     15  C   UNL     1       7.373   6.683  16.782  0.00  0.00    +0.000 C 
BRANCH  15  16
ATOM     16  C   UNL     1       7.648   7.603  17.969  0.00  0.00    +0.000 C 
BRANCH  16  17
ATOM     17  C   UNL     1       8.218   8.942  17.514  0.00  0.00    +0.000 C 
BRANCH  17  18
ATOM     18  C   UNL     1       8.710   9.719  18.728  0.00  0.00    +0.000 C 
BRANCH  18  19
ATOM     19  C   UNL     1       9.589  10.894  18.325  0.00  0.00    +0.000 C 
BRANCH  19  20
ATOM     20  C   UNL     1      10.658  11.128  19.388  0.00  0.00    +0.000 C 
BRANCH  20  21
ATOM     21  C   UNL     1      10.714  12.597  19.794  0.00  0.00    +0.000 C 
BRANCH  21  22
ATOM     22  C   UNL     1       9.519  12.989  20.618  0.00  0.00    +0.000 A 
ATOM     23  C   UNL     1       9.111  12.202  21.697  0.00  0.00    +0.000 A 
ATOM     24  C   UNL     1       8.006  12.603  22.432  0.00  0.00    +0.000 A 
ATOM     25  N   UNL     1       7.287  13.714  22.163  0.00  0.00    +0.000 NA
ATOM     26  C   UNL     1       7.689  14.451  21.106  0.00  0.00    +0.000 A 
ATOM     27  C   UNL     1       8.779  14.133  20.310  0.00  0.00    +0.000 A 
ENDBRANCH  21  22
ENDBRANCH  20  21
ENDBRANCH  19  20
ENDBRANCH  18  19
ENDBRANCH  17  18
ENDBRANCH  16  17
ENDBRANCH  15  16
ENDBRANCH  11  15
TORSDOF 8
ENDMDL
MODEL 3
REMARK VINA RESULT:      -7.6      3.052      7.030
REMARK  Name = 
REMARK  8 active torsions:
REMARK  status: ('A' for Active; 'I' for Inactive)
REMARK    1  A    between atoms: N_11  and  C_12
REMARK    2  A    between atoms: C_12  and  C_13
REMARK    3  A    between atoms: C_13  and  C_14
REMARK    4  A    between atoms: C_14  and  C_15
REMARK    5  A    between atoms: C_15  and  C_16
REMARK    6  A    between atoms: C_16  and  C_17
REMARK    7  A    between atoms: C_17  and  C_18
REMARK    8  A    between atoms: C_18  and  C_19
REMARK                            x       y       z     vdW  Elec       q    Type
REMARK                         _______ _______ _______ _____ _____    ______ ____
ROOT
ATOM      1  C   UNL     1       8.674   7.814  18.492  0.00  0.00    +0.000 A 
ATOM      2  C   UNL     1       7.820   8.255  17.481  0.00  0.00    +0.000 A 
ATOM      3  C   UNL     1       6.633   7.574  17.201  0.00  0.00    +0.000 A 
ATOM      4  C   UNL     1       6.307   6.425  17.945  0.00  0.00    +0.000 A 
ATOM      5  C   UNL     1       5.231   5.509  17.922  0.00  0.00    +0.000 A 
ATOM      6  C   UNL     1       5.484   4.541  18.867  0.00  0.00    +0.000 A 
ATOM      7  N   UNL     1       6.651   4.859  19.502  0.00  0.00    +0.000 N 
ATOM      8  C   UNL     1       7.186   6.000  18.946  0.00  0.00    +0.000 A 
ATOM      9  C   UNL     1       8.371   6.673  19.243  0.00  0.00    +0.000 A 
ATOM     10  C   UNL     1       4.690   3.318  19.115  0.00  0.00    +0.000 C 
ATOM     11  N   UNL     1       3.459   3.249  18.289  0.00  0.00    +0.000 NA
ATOM     12  C   UNL     1       3.563   3.947  16.981  0.00  0.00    +0.000 C 
ATOM     13  C   UNL     1       4.017   5.423  17.075  0.00  0.00    +0.000 C 
ATOM     14  H   UNL     1       7.084   4.322  20.242  0.00  0.00    +0.000 HD
ENDROOT
BRANCH  11  15
ATOM     15  C   UNL     1       3.085   1.841  18.057  0.00  0.00    +0.000 C 
BRANCH  15  16
ATOM     16  C   UNL     1       1.809   1.456  18.804  0.00  0.00    +0.000 C 
BRANCH  16  17
ATOM     17  C   UNL     1       1.069   2.689  19.310  0.00  0.00    +0.000 C 
BRANCH  17  18
ATOM     18  C   UNL     1       1.200   2.769  20.825  0.00  0.00    +0.000 C 
BRANCH  18  19
ATOM     19  C   UNL     1       1.605   4.162  21.281  0.00  0.00    +0.000 C 
BRANCH  19  20
ATOM     20  C   UNL     1       1.500   5.140  20.115  0.00  0.00    +0.000 C 
BRANCH  20  21
ATOM     21  C   UNL     1       2.528   6.260  20.243  0.00  0.00    +0.000 C 
BRANCH  21  22
ATOM     22  C   UNL     1       1.961   7.583  19.806  0.00  0.00    +0.000 A 
ATOM     23  C   UNL     1       2.264   8.105  18.547  0.00  0.00    +0.000 A 
ATOM     24  C   UNL     1       1.716   9.325  18.184  0.00  0.00    +0.000 A 
ATOM     25  N   UNL     1       0.906  10.053  18.982  0.00  0.00    +0.000 NA
ATOM     26  C   UNL     1       0.639   9.538  20.202  0.00  0.00    +0.000 A 
ATOM     27  C   UNL     1       1.140   8.327  20.656  0.00  0.00    +0.000 A 
ENDBRANCH  21  22
ENDBRANCH  20  21
ENDBRANCH  19  20
ENDBRANCH  18  19
ENDBRANCH  17  18
ENDBRANCH  16  17
ENDBRANCH  15  16
ENDBRANCH  11  15
TORSDOF 8
ENDMDL
MODEL 4
REMARK VINA RESULT:      -7.6      3.150      3.923
REMARK  Name = 
REMARK  8 active torsions:
REMARK  status: ('A' for Active; 'I' for Inactive)
REMARK    1  A    between atoms: N_11  and  C_12
REMARK    2  A    between atoms: C_12  and  C_13
REMARK    3  A    between atoms: C_13  and  C_14
REMARK    4  A    between atoms: C_14  and  C_15
REMARK    5  A    between atoms: C_15  and  C_16
REMARK    6  A    between atoms: C_16  and  C_17
REMARK    7  A    between atoms: C_17  and  C_18
REMARK    8  A    between atoms: C_18  and  C_19
REMARK                            x       y       z     vdW  Elec       q    Type
REMARK                         _______ _______ _______ _____ _____    ______ ____
ROOT
ATOM      1  C   UNL     1       0.814   2.916  20.078  0.00  0.00    +0.000 A 
ATOM      2  C   UNL     1       0.817   2.517  18.740  0.00  0.00    +0.000 A 
ATOM      3  C   UNL     1       1.877   2.857  17.897  0.00  0.00    +0.000 A 
ATOM      4  C   UNL     1       2.946   3.617  18.406  0.00  0.00    +0.000 A 
ATOM      5  C   UNL     1       4.137   4.139  17.851  0.00  0.00    +0.000 A 
ATOM      6  C   UNL     1       4.779   4.856  18.835  0.00  0.00    +0.000 A 
ATOM      7  N   UNL     1       4.049   4.751  19.984  0.00  0.00    +0.000 N 
ATOM      8  C   UNL     1       2.912   4.012  19.747  0.00  0.00    +0.000 A 
ATOM      9  C   UNL     1       1.864   3.675  20.605  0.00  0.00    +0.000 A 
ATOM     10  C   UNL     1       6.002   5.673  18.678  0.00  0.00    +0.000 C 
ATOM     11  N   UNL     1       6.590   5.580  17.319  0.00  0.00    +0.000 NA
ATOM     12  C   UNL     1       5.600   5.313  16.243  0.00  0.00    +0.000 C 
ATOM     13  C   UNL     1       4.709   4.072  16.485  0.00  0.00    +0.000 C 
ATOM     14  H   UNL     1       4.281   5.182  20.870  0.00  0.00    +0.000 HD
ENDROOT
BRANCH  11  15
ATOM     15  C   UNL     1       7.326   6.818  17.002  0.00  0.00    +0.000 C 
BRANCH  15  16
ATOM     16  C   UNL     1       7.831   7.524  18.259  0.00  0.00    +0.000 C 
BRANCH  16  17
ATOM     17  C   UNL     1       7.987   9.023  18.030  0.00  0.00    +0.000 C 
BRANCH  17  18
ATOM     18  C   UNL     1       9.233   9.516  18.752  0.00  0.00    +0.000 C 
BRANCH  18  19
ATOM     19  C   UNL     1       9.281  11.036  18.817  0.00  0.00    +0.000 C 
BRANCH  19  20
ATOM     20  C   UNL     1       9.603  11.483  20.239  0.00  0.00    +0.000 C 
BRANCH  20  21
ATOM     21  C   UNL     1      11.015  12.054  20.327  0.00  0.00    +0.000 C 
BRANCH  21  22
ATOM     22  C   UNL     1      11.144  13.332  19.545  0.00  0.00    +0.000 A 
ATOM     23  C   UNL     1      12.251  13.552  18.722  0.00  0.00    +0.000 A 
ATOM     24  C   UNL     1      12.327  14.742  18.016  0.00  0.00    +0.000 A 
ATOM     25  N   UNL     1      11.393  15.715  18.079  0.00  0.00    +0.000 NA
ATOM     26  C   UNL     1      10.340  15.489  18.893  0.00  0.00    +0.000 A 
ATOM     27  C   UNL     1      10.175  14.333  19.641  0.00  0.00    +0.000 A 
ENDBRANCH  21  22
ENDBRANCH  20  21
ENDBRANCH  19  20
ENDBRANCH  18  19
ENDBRANCH  17  18
ENDBRANCH  16  17
ENDBRANCH  15  16
ENDBRANCH  11  15
TORSDOF 8
ENDMDL
MODEL 5
REMARK VINA RESULT:      -7.4      3.384      4.701
REMARK  Name = 
REMARK  8 active torsions:
REMARK  status: ('A' for Active; 'I' for Inactive)
REMARK    1  A    between atoms: N_11  and  C_12
REMARK    2  A    between atoms: C_12  and  C_13
REMARK    3  A    between atoms: C_13  and  C_14
REMARK    4  A    between atoms: C_14  and  C_15
REMARK    5  A    between atoms: C_15  and  C_16
REMARK    6  A    between atoms: C_16  and  C_17
REMARK    7  A    between atoms: C_17  and  C_18
REMARK    8  A    between atoms: C_18  and  C_19
REMARK                            x       y       z     vdW  Elec       q    Type
REMARK                         _______ _______ _______ _____ _____    ______ ____
ROOT
ATOM      1  C   UNL     1       2.747   2.066  18.700  0.00  0.00    +0.000 A 
ATOM      2  C   UNL     1       2.348   2.804  17.584  0.00  0.00    +0.000 A 
ATOM      3  C   UNL     1       3.135   3.853  17.104  0.00  0.00    +0.000 A 
ATOM      4  C   UNL     1       4.337   4.170  17.763  0.00  0.00    +0.000 A 
ATOM      5  C   UNL     1       5.339   5.148  17.568  0.00  0.00    +0.000 A 
ATOM      6  C   UNL     1       6.268   5.002  18.574  0.00  0.00    +0.000 A 
ATOM      7  N   UNL     1       5.896   3.940  19.348  0.00  0.00    +0.000 N 
ATOM      8  C   UNL     1       4.708   3.421  18.884  0.00  0.00    +0.000 A 
ATOM      9  C   UNL     1       3.937   2.365  19.372  0.00  0.00    +0.000 A 
ATOM     10  C   UNL     1       7.429   5.880  18.840  0.00  0.00    +0.000 C 
ATOM     11  N   UNL     1       7.597   6.943  17.818  0.00  0.00    +0.000 NA
ATOM     12  C   UNL     1       6.328   7.378  17.177  0.00  0.00    +0.000 C 
ATOM     13  C   UNL     1       5.491   6.230  16.567  0.00  0.00    +0.000 C 
ATOM     14  H   UNL     1       6.391   3.603  20.163  0.00  0.00    +0.000 HD
ENDROOT
BRANCH  11  15
ATOM     15  C   UNL     1       8.263   8.115  18.415  0.00  0.00    +0.000 C 
BRANCH  15  16
ATOM     16  C   UNL     1       7.867   9.416  17.721  0.00  0.00    +0.000 C 
BRANCH  16  17
ATOM     17  C   UNL     1       8.810  10.554  18.092  0.00  0.00    +0.000 C 
BRANCH  17  18
ATOM     18  C   UNL     1       9.339  10.330  19.503  0.00  0.00    +0.000 C 
BRANCH  18  19
ATOM     19  C   UNL     1      10.679  11.019  19.717  0.00  0.00    +0.000 C 
BRANCH  19  20
ATOM     20  C   UNL     1      10.514  12.178  20.696  0.00  0.00    +0.000 C 
BRANCH  20  21
ATOM     21  C   UNL     1       9.129  12.807  20.572  0.00  0.00    +0.000 C 
BRANCH  21  22
ATOM     22  C   UNL     1       9.117  13.920  19.561  0.00  0.00    +0.000 A 
ATOM     23  C   UNL     1       7.940  14.256  18.888  0.00  0.00    +0.000 A 
ATOM     24  C   UNL     1       7.974  15.292  17.968  0.00  0.00    +0.000 A 
ATOM     25  N   UNL     1       9.085  15.998  17.670  0.00  0.00    +0.000 NA
ATOM     26  C   UNL     1      10.215  15.646  18.320  0.00  0.00    +0.000 A 
ATOM     27  C   UNL     1      10.284  14.625  19.256  0.00  0.00    +0.000 A 
ENDBRANCH  21  22
ENDBRANCH  20  21
ENDBRANCH  19  20
ENDBRANCH  18  19
ENDBRANCH  17  18
ENDBRANCH  16  17
ENDBRANCH  15  16
ENDBRANCH  11  15
TORSDOF 8
ENDMDL
MODEL 6
REMARK VINA RESULT:      -7.3      4.573      6.953
REMARK  Name = 
REMARK  8 active torsions:
REMARK  status: ('A' for Active; 'I' for Inactive)
REMARK    1  A    between atoms: N_11  and  C_12
REMARK    2  A    between atoms: C_12  and  C_13
REMARK    3  A    between atoms: C_13  and  C_14
REMARK    4  A    between atoms: C_14  and  C_15
REMARK    5  A    between atoms: C_15  and  C_16
REMARK    6  A    between atoms: C_16  and  C_17
REMARK    7  A    between atoms: C_17  and  C_18
REMARK    8  A    between atoms: C_18  and  C_19
REMARK                            x       y       z     vdW  Elec       q    Type
REMARK                         _______ _______ _______ _____ _____    ______ ____
ROOT
ATOM      1  C   UNL     1      -0.612  10.311  22.930  0.00  0.00    +0.000 A 
ATOM      2  C   UNL     1      -0.725  11.125  21.801  0.00  0.00    +0.000 A 
ATOM      3  C   UNL     1      -0.125  10.759  20.594  0.00  0.00    +0.000 A 
ATOM      4  C   UNL     1       0.608   9.559  20.526  0.00  0.00    +0.000 A 
ATOM      5  C   UNL     1       1.337   8.907  19.505  0.00  0.00    +0.000 A 
ATOM      6  C   UNL     1       1.891   7.770  20.048  0.00  0.00    +0.000 A 
ATOM      7  N   UNL     1       1.487   7.677  21.349  0.00  0.00    +0.000 N 
ATOM      8  C   UNL     1       0.713   8.768  21.674  0.00  0.00    +0.000 A 
ATOM      9  C   UNL     1       0.114   9.116  22.885  0.00  0.00    +0.000 A 
ATOM     10  C   UNL     1       2.830   6.840  19.382  0.00  0.00    +0.000 C 
ATOM     11  N   UNL     1       3.072   7.181  17.959  0.00  0.00    +0.000 NA
ATOM     12  C   UNL     1       2.944   8.629  17.649  0.00  0.00    +0.000 C 
ATOM     13  C   UNL     1       1.605   9.264  18.092  0.00  0.00    +0.000 C 
ATOM     14  H   UNL     1       1.745   6.941  21.994  0.00  0.00    +0.000 HD
ENDROOT
BRANCH  11  15
ATOM     15  C   UNL     1       4.410   6.716  17.549  0.00  0.00    +0.000 C 
BRANCH  15  16
ATOM     16  C   UNL     1       4.708   7.041  16.086  0.00  0.00    +0.000 C 
BRANCH  16  17
ATOM     17  C   UNL     1       5.276   5.831  15.353  0.00  0.00    +0.000 C 
BRANCH  17  18
ATOM     18  C   UNL     1       5.941   4.900  16.357  0.00  0.00    +0.000 C 
BRANCH  18  19
ATOM     19  C   UNL     1       5.373   3.490  16.279  0.00  0.00    +0.000 C 
BRANCH  19  20
ATOM     20  C   UNL     1       4.105   3.396  17.123  0.00  0.00    +0.000 C 
BRANCH  20  21
ATOM     21  C   UNL     1       4.438   3.083  18.579  0.00  0.00    +0.000 C 
BRANCH  21  22
ATOM     22  C   UNL     1       3.203   3.066  19.436  0.00  0.00    +0.000 A 
ATOM     23  C   UNL     1       3.305   3.071  20.829  0.00  0.00    +0.000 A 
ATOM     24  C   UNL     1       2.140   3.060  21.580  0.00  0.00    +0.000 A 
ATOM     25  N   UNL     1       0.901   3.035  21.046  0.00  0.00    +0.000 NA
ATOM     26  C   UNL     1       0.825   3.015  19.698  0.00  0.00    +0.000 A 
ATOM     27  C   UNL     1       1.930   3.023  18.861  0.00  0.00    +0.000 A 
ENDBRANCH  21  22
ENDBRANCH  20  21
ENDBRANCH  19  20
ENDBRANCH  18  19
ENDBRANCH  17  18
ENDBRANCH  16  17
ENDBRANCH  15  16
ENDBRANCH  11  15
TORSDOF 8
ENDMDL
MODEL 7
REMARK VINA RESULT:      -7.3      5.008     10.825
REMARK  Name = 
REMARK  8 active torsions:
REMARK  status: ('A' for Active; 'I' for Inactive)
REMARK    1  A    between atoms: N_11  and  C_12
REMARK    2  A    between atoms: C_12  and  C_13
REMARK    3  A    between atoms: C_13  and  C_14
REMARK    4  A    between atoms: C_14  and  C_15
REMARK    5  A    between atoms: C_15  and  C_16
REMARK    6  A    between atoms: C_16  and  C_17
REMARK    7  A    between atoms: C_17  and  C_18
REMARK    8  A    between atoms: C_18  and  C_19
REMARK                            x       y       z     vdW  Elec       q    Type
REMARK                         _______ _______ _______ _____ _____    ______ ____
ROOT
ATOM      1  C   UNL     1       4.394   3.407  18.463  0.00  0.00    +0.000 A 
ATOM      2  C   UNL     1       4.538   4.153  17.292  0.00  0.00    +0.000 A 
ATOM      3  C   UNL     1       4.038   5.455  17.209  0.00  0.00    +0.000 A 
ATOM      4  C   UNL     1       3.376   6.010  18.319  0.00  0.00    +0.000 A 
ATOM      5  C   UNL     1       2.751   7.252  18.574  0.00  0.00    +0.000 A 
ATOM      6  C   UNL     1       2.223   7.203  19.844  0.00  0.00    +0.000 A 
ATOM      7  N   UNL     1       2.545   5.996  20.394  0.00  0.00    +0.000 N 
ATOM      8  C   UNL     1       3.238   5.238  19.477  0.00  0.00    +0.000 A 
ATOM      9  C   UNL     1       3.737   3.938  19.578  0.00  0.00    +0.000 A 
ATOM     10  C   UNL     1       1.380   8.232  20.492  0.00  0.00    +0.000 C 
ATOM     11  N   UNL     1       1.215   9.452  19.662  0.00  0.00    +0.000 NA
ATOM     12  C   UNL     1       1.286   9.206  18.198  0.00  0.00    +0.000 C 
ATOM     13  C   UNL     1       2.558   8.458  17.734  0.00  0.00    +0.000 C 
ATOM     14  H   UNL     1       2.285   5.682  21.320  0.00  0.00    +0.000 HD
ENDROOT
BRANCH  11  15
ATOM     15  C   UNL     1      -0.067  10.108  19.980  0.00  0.00    +0.000 C 
BRANCH  15  16
ATOM     16  C   UNL     1      -0.940  10.293  18.741  0.00  0.00    +0.000 C 
BRANCH  16  17
ATOM     17  C   UNL     1      -1.278  11.762  18.514  0.00  0.00    +0.000 C 
BRANCH  17  18
ATOM     18  C   UNL     1      -2.760  11.894  18.192  0.00  0.00    +0.000 C 
BRANCH  18  19
ATOM     19  C   UNL     1      -3.323  10.612  17.597  0.00  0.00    +0.000 C 
BRANCH  19  20
ATOM     20  C   UNL     1      -4.770  10.833  17.168  0.00  0.00    +0.000 C 
BRANCH  20  21
ATOM     21  C   UNL     1      -5.407  11.975  17.954  0.00  0.00    +0.000 C 
BRANCH  21  22
ATOM     22  C   UNL     1      -6.200  11.465  19.126  0.00  0.00    +0.000 A 
ATOM     23  C   UNL     1      -6.397  12.265  20.253  0.00  0.00    +0.000 A 
ATOM     24  C   UNL     1      -7.138  11.756  21.308  0.00  0.00    +0.000 A 
ATOM     25  N   UNL     1      -7.680  10.520  21.319  0.00  0.00    +0.000 NA
ATOM     26  C   UNL     1      -7.463   9.757  20.226  0.00  0.00    +0.000 A 
ATOM     27  C   UNL     1      -6.735  10.175  19.123  0.00  0.00    +0.000 A 
ENDBRANCH  21  22
ENDBRANCH  20  21
ENDBRANCH  19  20
ENDBRANCH  18  19
ENDBRANCH  17  18
ENDBRANCH  16  17
ENDBRANCH  15  16
ENDBRANCH  11  15
TORSDOF 8
ENDMDL
MODEL 8
REMARK VINA RESULT:      -7.3      2.856      4.050
REMARK  Name = 
REMARK  8 active torsions:
REMARK  status: ('A' for Active; 'I' for Inactive)
REMARK    1  A    between atoms: N_11  and  C_12
REMARK    2  A    between atoms: C_12  and  C_13
REMARK    3  A    between atoms: C_13  and  C_14
REMARK    4  A    between atoms: C_14  and  C_15
REMARK    5  A    between atoms: C_15  and  C_16
REMARK    6  A    between atoms: C_16  and  C_17
REMARK    7  A    between atoms: C_17  and  C_18
REMARK    8  A    between atoms: C_18  and  C_19
REMARK                            x       y       z     vdW  Elec       q    Type
REMARK                         _______ _______ _______ _____ _____    ______ ____
ROOT
ATOM      1  C   UNL     1       1.851   2.512  21.179  0.00  0.00    +0.000 A 
ATOM      2  C   UNL     1       1.075   3.353  20.380  0.00  0.00    +0.000 A 
ATOM      3  C   UNL     1       1.660   4.110  19.363  0.00  0.00    +0.000 A 
ATOM      4  C   UNL     1       3.049   4.025  19.152  0.00  0.00    +0.000 A 
ATOM      5  C   UNL     1       3.949   4.642  18.253  0.00  0.00    +0.000 A 
ATOM      6  C   UNL     1       5.215   4.199  18.558  0.00  0.00    +0.000 A 
ATOM      7  N   UNL     1       5.118   3.295  19.578  0.00  0.00    +0.000 N 
ATOM      8  C   UNL     1       3.803   3.182  19.973  0.00  0.00    +0.000 A 
ATOM      9  C   UNL     1       3.234   2.413  20.989  0.00  0.00    +0.000 A 
ATOM     10  C   UNL     1       6.484   4.664  17.957  0.00  0.00    +0.000 C 
ATOM     11  N   UNL     1       6.280   5.636  16.854  0.00  0.00    +0.000 NA
ATOM     12  C   UNL     1       5.047   6.456  16.985  0.00  0.00    +0.000 C 
ATOM     13  C   UNL     1       3.748   5.636  17.172  0.00  0.00    +0.000 C 
ATOM     14  H   UNL     1       5.892   2.809  20.010  0.00  0.00    +0.000 HD
ENDROOT
BRANCH  11  15
ATOM     15  C   UNL     1       7.447   6.532  16.748  0.00  0.00    +0.000 C 
BRANCH  15  16
ATOM     16  C   UNL     1       7.419   7.638  17.801  0.00  0.00    +0.000 C 
BRANCH  16  17
ATOM     17  C   UNL     1       8.467   8.706  17.513  0.00  0.00    +0.000 C 
BRANCH  17  18
ATOM     18  C   UNL     1       8.182   9.935  18.364  0.00  0.00    +0.000 C 
BRANCH  18  19
ATOM     19  C   UNL     1       9.123  10.025  19.556  0.00  0.00    +0.000 C 
BRANCH  19  20
ATOM     20  C   UNL     1      10.274  10.974  19.237  0.00  0.00    +0.000 C 
BRANCH  20  21
ATOM     21  C   UNL     1       9.954  11.831  18.015  0.00  0.00    +0.000 C 
BRANCH  21  22
ATOM     22  C   UNL     1      10.784  13.085  17.987  0.00  0.00    +0.000 A 
ATOM     23  C   UNL     1      10.940  13.807  16.801  0.00  0.00    +0.000 A 
ATOM     24  C   UNL     1      11.710  14.959  16.822  0.00  0.00    +0.000 A 
ATOM     25  N   UNL     1      12.333  15.427  17.925  0.00  0.00    +0.000 NA
ATOM     26  C   UNL     1      12.183  14.705  19.055  0.00  0.00    +0.000 A 
ATOM     27  C   UNL     1      11.435  13.540  19.135  0.00  0.00    +0.000 A 
ENDBRANCH  21  22
ENDBRANCH  20  21
ENDBRANCH  19  20
ENDBRANCH  18  19
ENDBRANCH  17  18
ENDBRANCH  16  17
ENDBRANCH  15  16
ENDBRANCH  11  15
TORSDOF 8
ENDMDL
MODEL 9
REMARK VINA RESULT:      -7.2      3.028      3.796
REMARK  Name = 
REMARK  8 active torsions:
REMARK  status: ('A' for Active; 'I' for Inactive)
REMARK    1  A    between atoms: N_11  and  C_12
REMARK    2  A    between atoms: C_12  and  C_13
REMARK    3  A    between atoms: C_13  and  C_14
REMARK    4  A    between atoms: C_14  and  C_15
REMARK    5  A    between atoms: C_15  and  C_16
REMARK    6  A    between atoms: C_16  and  C_17
REMARK    7  A    between atoms: C_17  and  C_18
REMARK    8  A    between atoms: C_18  and  C_19
REMARK                            x       y       z     vdW  Elec       q    Type
REMARK                         _______ _______ _______ _____ _____    ______ ____
ROOT
ATOM      1  C   UNL     1       0.769   3.308  20.079  0.00  0.00    +0.000 A 
ATOM      2  C   UNL     1       0.892   2.725  18.817  0.00  0.00    +0.000 A 
ATOM      3  C   UNL     1       2.029   2.945  18.036  0.00  0.00    +0.000 A 
ATOM      4  C   UNL     1       3.054   3.772  18.531  0.00  0.00    +0.000 A 
ATOM      5  C   UNL     1       4.297   4.212  18.022  0.00  0.00    +0.000 A 
ATOM      6  C   UNL     1       4.853   5.063  18.951  0.00  0.00    +0.000 A 
ATOM      7  N   UNL     1       4.019   5.120  20.031  0.00  0.00    +0.000 N 
ATOM      8  C   UNL     1       2.901   4.351  19.795  0.00  0.00    +0.000 A 
ATOM      9  C   UNL     1       1.774   4.136  20.589  0.00  0.00    +0.000 A 
ATOM     10  C   UNL     1       6.094   5.853  18.795  0.00  0.00    +0.000 C 
ATOM     11  N   UNL     1       6.805   5.570  17.523  0.00  0.00    +0.000 NA
ATOM     12  C   UNL     1       5.916   5.152  16.409  0.00  0.00    +0.000 C 
ATOM     13  C   UNL     1       4.993   3.955  16.738  0.00  0.00    +0.000 C 
ATOM     14  H   UNL     1       4.172   5.671  20.865  0.00  0.00    +0.000 HD
ENDROOT
BRANCH  11  15
ATOM     15  C   UNL     1       7.580   6.753  17.106  0.00  0.00    +0.000 C 
BRANCH  15  16
ATOM     16  C   UNL     1       7.219   7.993  17.921  0.00  0.00    +0.000 C 
BRANCH  16  17
ATOM     17  C   UNL     1       8.409   8.936  18.054  0.00  0.00    +0.000 C 
BRANCH  17  18
ATOM     18  C   UNL     1       8.014  10.320  17.556  0.00  0.00    +0.000 C 
BRANCH  18  19
ATOM     19  C   UNL     1       8.869  11.409  18.187  0.00  0.00    +0.000 C 
BRANCH  19  20
ATOM     20  C   UNL     1       9.993  10.778  19.003  0.00  0.00    +0.000 C 
BRANCH  20  21
ATOM     21  C   UNL     1      11.360  11.197  18.470  0.00  0.00    +0.000 C 
BRANCH  21  22
ATOM     22  C   UNL     1      11.512  12.693  18.455  0.00  0.00    +0.000 A 
ATOM     23  C   UNL     1      11.486  13.422  19.646  0.00  0.00    +0.000 A 
ATOM     24  C   UNL     1      11.635  14.798  19.586  0.00  0.00    +0.000 A 
ATOM     25  N   UNL     1      11.796  15.488  18.437  0.00  0.00    +0.000 NA
ATOM     26  C   UNL     1      11.801  14.766  17.296  0.00  0.00    +0.000 A 
ATOM     27  C   UNL     1      11.659  13.388  17.252  0.00  0.00    +0.000 A 
ENDBRANCH  21  22
ENDBRANCH  20  21
ENDBRANCH  19  20
ENDBRANCH  18  19
ENDBRANCH  17  18
ENDBRANCH  16  17
ENDBRANCH  15  16
ENDBRANCH  11  15
TORSDOF 8
ENDMDL
