MODEL 1
REMARK VINA RESULT:      -8.2      0.000      0.000
REMARK  Name = 
REMARK  9 active torsions:
REMARK  status: ('A' for Active; 'I' for Inactive)
REMARK    1  A    between atoms: C_1  and  C_2
REMARK    2  A    between atoms: C_2  and  C_26
REMARK    3  A    between atoms: C_3  and  C_4
REMARK    4  A    between atoms: C_3  and  C_10
REMARK    5  A    between atoms: C_13  and  O_14
REMARK    6  A    between atoms: O_14  and  C_15
REMARK    7  A    between atoms: C_15  and  C_16
REMARK    8  A    between atoms: C_16  and  N_17
REMARK    9  A    between atoms: N_20  and  C_21
REMARK                            x       y       z     vdW  Elec       q    Type
REMARK                         _______ _______ _______ _____ _____    ______ ____
ROOT
ATOM      1  C   UNL     1       3.783   3.184  15.771  0.00  0.00    +0.000 C 
ATOM      2  C   UNL     1       4.567   4.253  16.495  0.00  0.00    +0.000 C 
ATOM      3  C   UNL     1       5.679   4.867  16.000  0.00  0.00    +0.000 C 
ENDROOT
BRANCH   2   4
ATOM      4  C   UNL     1       4.037   4.569  17.852  0.00  0.00    +0.000 A 
ATOM      5  C   UNL     1       4.152   3.650  18.908  0.00  0.00    +0.000 A 
ATOM      6  C   UNL     1       3.487   3.872  20.115  0.00  0.00    +0.000 A 
ATOM      7  C   UNL     1       2.734   5.031  20.283  0.00  0.00    +0.000 A 
ATOM      8  F   UNL     1       2.049   5.214  21.421  0.00  0.00    +0.000 F 
ATOM      9  C   UNL     1       2.671   5.983  19.282  0.00  0.00    +0.000 A 
ATOM     10  C   UNL     1       3.324   5.759  18.068  0.00  0.00    +0.000 A 
ENDBRANCH   2   4
BRANCH   3  11
ATOM     11  C   UNL     1       6.148   4.585  14.611  0.00  0.00    +0.000 A 
ATOM     12  C   UNL     1       7.325   5.184  14.137  0.00  0.00    +0.000 A 
ATOM     13  C   UNL     1       7.795   4.924  12.842  0.00  0.00    +0.000 A 
ATOM     14  C   UNL     1       7.095   4.054  12.010  0.00  0.00    +0.000 A 
ATOM     15  C   UNL     1       5.927   3.447  12.468  0.00  0.00    +0.000 A 
ATOM     16  C   UNL     1       5.450   3.717  13.759  0.00  0.00    +0.000 A 
ENDBRANCH   3  11
BRANCH   3  17
ATOM     17  C   UNL     1       6.463   5.792  16.866  0.00  0.00    +0.000 A 
ATOM     18  C   UNL     1       7.291   5.250  17.856  0.00  0.00    +0.000 A 
ATOM     19  C   UNL     1       8.053   6.081  18.672  0.00  0.00    +0.000 A 
ATOM     20  C   UNL     1       8.049   7.465  18.482  0.00  0.00    +0.000 A 
ATOM     21  C   UNL     1       7.204   8.018  17.517  0.00  0.00    +0.000 A 
ATOM     22  C   UNL     1       6.408   7.184  16.716  0.00  0.00    +0.000 A 
BRANCH  20  23
ATOM     23  O   UNL     1       8.859   8.327  19.184  0.00  0.00    +0.000 OA
BRANCH  23  24
ATOM     24  C   UNL     1       8.884   9.655  18.634  0.00  0.00    +0.000 C 
BRANCH  24  25
ATOM     25  C   UNL     1       9.486  10.652  19.631  0.00  0.00    +0.000 C 
BRANCH  25  26
ATOM     26  N   UNL     1      10.512  11.524  19.035  0.00  0.00    +0.000 NA
ATOM     27  C   UNL     1      10.906  12.606  19.958  0.00  0.00    +0.000 C 
ATOM     28  C   UNL     1      12.059  13.457  19.366  0.00  0.00    +0.000 C 
ATOM     29  N   UNL     1      11.812  14.005  18.015  0.00  0.00    +0.000 NA
ATOM     30  C   UNL     1      10.884  15.133  18.048  0.00  0.00    +0.000 C 
ATOM     31  C   UNL     1      11.311  12.928  17.143  0.00  0.00    +0.000 C 
ATOM     32  C   UNL     1      10.139  12.111  17.734  0.00  0.00    +0.000 C 
ENDBRANCH  25  26
ENDBRANCH  24  25
ENDBRANCH  23  24
ENDBRANCH  20  23
ENDBRANCH   3  17
TORSDOF 7
ENDMDL
MODEL 2
REMARK VINA RESULT:      -8.1      2.115      4.842
REMARK  Name = 
REMARK  9 active torsions:
REMARK  status: ('A' for Active; 'I' for Inactive)
REMARK    1  A    between atoms: C_1  and  C_2
REMARK    2  A    between atoms: C_2  and  C_26
REMARK    3  A    between atoms: C_3  and  C_4
REMARK    4  A    between atoms: C_3  and  C_10
REMARK    5  A    between atoms: C_13  and  O_14
REMARK    6  A    between atoms: O_14  and  C_15
REMARK    7  A    between atoms: C_15  and  C_16
REMARK    8  A    between atoms: C_16  and  N_17
REMARK    9  A    between atoms: N_20  and  C_21
REMARK                            x       y       z     vdW  Elec       q    Type
REMARK                         _______ _______ _______ _____ _____    ______ ____
ROOT
ATOM      1  C   UNL     1       3.168   2.887  16.625  0.00  0.00    +0.000 C 
ATOM      2  C   UNL     1       4.331   3.809  16.908  0.00  0.00    +0.000 C 
ATOM      3  C   UNL     1       4.527   4.469  18.085  0.00  0.00    +0.000 C 
ENDROOT
BRANCH   2   4
ATOM      4  C   UNL     1       5.258   3.977  15.752  0.00  0.00    +0.000 A 
ATOM      5  C   UNL     1       6.628   4.220  15.950  0.00  0.00    +0.000 A 
ATOM      6  C   UNL     1       7.448   4.566  14.875  0.00  0.00    +0.000 A 
ATOM      7  C   UNL     1       6.909   4.635  13.593  0.00  0.00    +0.000 A 
ATOM      8  F   UNL     1       7.685   5.025  12.571  0.00  0.00    +0.000 F 
ATOM      9  C   UNL     1       5.580   4.326  13.369  0.00  0.00    +0.000 A 
ATOM     10  C   UNL     1       4.753   3.992  14.442  0.00  0.00    +0.000 A 
ENDBRANCH   2   4
BRANCH   3  11
ATOM     11  C   UNL     1       3.626   4.230  19.250  0.00  0.00    +0.000 A 
ATOM     12  C   UNL     1       3.715   3.025  19.964  0.00  0.00    +0.000 A 
ATOM     13  C   UNL     1       2.890   2.782  21.071  0.00  0.00    +0.000 A 
ATOM     14  C   UNL     1       1.973   3.746  21.481  0.00  0.00    +0.000 A 
ATOM     15  C   UNL     1       1.877   4.950  20.784  0.00  0.00    +0.000 A 
ATOM     16  C   UNL     1       2.693   5.189  19.669  0.00  0.00    +0.000 A 
ENDBRANCH   3  11
BRANCH   3  17
ATOM     17  C   UNL     1       5.622   5.475  18.197  0.00  0.00    +0.000 A 
ATOM     18  C   UNL     1       6.733   5.176  18.993  0.00  0.00    +0.000 A 
ATOM     19  C   UNL     1       7.784   6.081  19.107  0.00  0.00    +0.000 A 
ATOM     20  C   UNL     1       7.775   7.278  18.387  0.00  0.00    +0.000 A 
ATOM     21  C   UNL     1       6.657   7.600  17.614  0.00  0.00    +0.000 A 
ATOM     22  C   UNL     1       5.580   6.704  17.524  0.00  0.00    +0.000 A 
BRANCH  20  23
ATOM     23  O   UNL     1       8.829   8.162  18.377  0.00  0.00    +0.000 OA
BRANCH  23  24
ATOM     24  C   UNL     1       8.421   9.527  18.181  0.00  0.00    +0.000 C 
BRANCH  24  25
ATOM     25  C   UNL     1       9.106  10.456  19.191  0.00  0.00    +0.000 C 
BRANCH  25  26
ATOM     26  N   UNL     1      10.017  11.427  18.562  0.00  0.00    +0.000 NA
ATOM     27  C   UNL     1      11.236  11.627  19.369  0.00  0.00    +0.000 C 
ATOM     28  C   UNL     1      12.236  12.570  18.652  0.00  0.00    +0.000 C 
ATOM     29  N   UNL     1      11.684  13.876  18.231  0.00  0.00    +0.000 NA
ATOM     30  C   UNL     1      11.512  14.782  19.363  0.00  0.00    +0.000 C 
ATOM     31  C   UNL     1      10.409  13.655  17.526  0.00  0.00    +0.000 C 
ATOM     32  C   UNL     1       9.410  12.740  18.271  0.00  0.00    +0.000 C 
ENDBRANCH  25  26
ENDBRANCH  24  25
ENDBRANCH  23  24
ENDBRANCH  20  23
ENDBRANCH   3  17
TORSDOF 7
ENDMDL
MODEL 3
REMARK VINA RESULT:      -8.0      2.062      4.864
REMARK  Name = 
REMARK  9 active torsions:
REMARK  status: ('A' for Active; 'I' for Inactive)
REMARK    1  A    between atoms: C_1  and  C_2
REMARK    2  A    between atoms: C_2  and  C_26
REMARK    3  A    between atoms: C_3  and  C_4
REMARK    4  A    between atoms: C_3  and  C_10
REMARK    5  A    between atoms: C_13  and  O_14
REMARK    6  A    between atoms: O_14  and  C_15
REMARK    7  A    between atoms: C_15  and  C_16
REMARK    8  A    between atoms: C_16  and  N_17
REMARK    9  A    between atoms: N_20  and  C_21
REMARK                            x       y       z     vdW  Elec       q    Type
REMARK                         _______ _______ _______ _____ _____    ______ ____
ROOT
ATOM      1  C   UNL     1       3.163   3.160  16.561  0.00  0.00    +0.000 C 
ATOM      2  C   UNL     1       4.389   3.995  16.843  0.00  0.00    +0.000 C 
ATOM      3  C   UNL     1       4.637   4.633  18.022  0.00  0.00    +0.000 C 
ENDROOT
BRANCH   2   4
ATOM      4  C   UNL     1       5.320   4.102  15.684  0.00  0.00    +0.000 A 
ATOM      5  C   UNL     1       6.687   4.370  15.874  0.00  0.00    +0.000 A 
ATOM      6  C   UNL     1       7.509   4.659  14.783  0.00  0.00    +0.000 A 
ATOM      7  C   UNL     1       6.976   4.647  13.498  0.00  0.00    +0.000 A 
ATOM      8  F   UNL     1       7.755   4.983  12.458  0.00  0.00    +0.000 F 
ATOM      9  C   UNL     1       5.652   4.312  13.285  0.00  0.00    +0.000 A 
ATOM     10  C   UNL     1       4.822   4.035  14.373  0.00  0.00    +0.000 A 
ENDBRANCH   2   4
BRANCH   3  11
ATOM     11  C   UNL     1       3.727   4.452  19.191  0.00  0.00    +0.000 A 
ATOM     12  C   UNL     1       2.872   5.495  19.577  0.00  0.00    +0.000 A 
ATOM     13  C   UNL     1       1.997   5.345  20.662  0.00  0.00    +0.000 A 
ATOM     14  C   UNL     1       1.962   4.144  21.367  0.00  0.00    +0.000 A 
ATOM     15  C   UNL     1       2.802   3.097  20.992  0.00  0.00    +0.000 A 
ATOM     16  C   UNL     1       3.686   3.251  19.914  0.00  0.00    +0.000 A 
ENDBRANCH   3  11
BRANCH   3  17
ATOM     17  C   UNL     1       5.801   5.558  18.134  0.00  0.00    +0.000 A 
ATOM     18  C   UNL     1       5.764   6.774  17.444  0.00  0.00    +0.000 A 
ATOM     19  C   UNL     1       6.823   7.673  17.539  0.00  0.00    +0.000 A 
ATOM     20  C   UNL     1       7.915   7.402  18.368  0.00  0.00    +0.000 A 
ATOM     21  C   UNL     1       7.976   6.177  19.038  0.00  0.00    +0.000 A 
ATOM     22  C   UNL     1       6.925   5.254  18.916  0.00  0.00    +0.000 A 
BRANCH  20  23
ATOM     23  O   UNL     1       8.939   8.294  18.584  0.00  0.00    +0.000 OA
BRANCH  23  24
ATOM     24  C   UNL     1       8.525   9.667  18.481  0.00  0.00    +0.000 C 
BRANCH  24  25
ATOM     25  C   UNL     1       9.110  10.505  19.625  0.00  0.00    +0.000 C 
BRANCH  25  26
ATOM     26  N   UNL     1      10.281  11.302  19.223  0.00  0.00    +0.000 NA
ATOM     27  C   UNL     1      10.385  12.546  20.009  0.00  0.00    +0.000 C 
ATOM     28  C   UNL     1      11.676  13.329  19.654  0.00  0.00    +0.000 C 
ATOM     29  N   UNL     1      11.865  13.618  18.216  0.00  0.00    +0.000 NA
ATOM     30  C   UNL     1      10.987  14.692  17.759  0.00  0.00    +0.000 C 
ATOM     31  C   UNL     1      11.643  12.383  17.443  0.00  0.00    +0.000 C 
ATOM     32  C   UNL     1      10.335  11.633  17.786  0.00  0.00    +0.000 C 
ENDBRANCH  25  26
ENDBRANCH  24  25
ENDBRANCH  23  24
ENDBRANCH  20  23
ENDBRANCH   3  17
TORSDOF 7
ENDMDL
MODEL 4
REMARK VINA RESULT:      -8.0      2.168      5.014
REMARK  Name = 
REMARK  9 active torsions:
REMARK  status: ('A' for Active; 'I' for Inactive)
REMARK    1  A    between atoms: C_1  and  C_2
REMARK    2  A    between atoms: C_2  and  C_26
REMARK    3  A    between atoms: C_3  and  C_4
REMARK    4  A    between atoms: C_3  and  C_10
REMARK    5  A    between atoms: C_13  and  O_14
REMARK    6  A    between atoms: O_14  and  C_15
REMARK    7  A    between atoms: C_15  and  C_16
REMARK    8  A    between atoms: C_16  and  N_17
REMARK    9  A    between atoms: N_20  and  C_21
REMARK                            x       y       z     vdW  Elec       q    Type
REMARK                         _______ _______ _______ _____ _____    ______ ____
ROOT
ATOM      1  C   UNL     1       2.956   3.128  16.564  0.00  0.00    +0.000 C 
ATOM      2  C   UNL     1       4.190   3.956  16.827  0.00  0.00    +0.000 C 
ATOM      3  C   UNL     1       4.506   4.516  18.030  0.00  0.00    +0.000 C 
ENDROOT
BRANCH   2   4
ATOM      4  C   UNL     1       5.048   4.153  15.624  0.00  0.00    +0.000 A 
ATOM      5  C   UNL     1       4.487   4.223  14.337  0.00  0.00    +0.000 A 
ATOM      6  C   UNL     1       5.306   4.213  13.207  0.00  0.00    +0.000 A 
ATOM      7  C   UNL     1       6.689   4.170  13.360  0.00  0.00    +0.000 A 
ATOM      8  F   UNL     1       7.471   4.101  12.272  0.00  0.00    +0.000 F 
ATOM      9  C   UNL     1       7.260   4.178  14.618  0.00  0.00    +0.000 A 
ATOM     10  C   UNL     1       6.445   4.174  15.751  0.00  0.00    +0.000 A 
ENDBRANCH   2   4
BRANCH   3  11
ATOM     11  C   UNL     1       3.670   4.245  19.237  0.00  0.00    +0.000 A 
ATOM     12  C   UNL     1       3.780   3.013  19.899  0.00  0.00    +0.000 A 
ATOM     13  C   UNL     1       3.018   2.740  21.043  0.00  0.00    +0.000 A 
ATOM     14  C   UNL     1       2.142   3.701  21.541  0.00  0.00    +0.000 A 
ATOM     15  C   UNL     1       2.025   4.931  20.896  0.00  0.00    +0.000 A 
ATOM     16  C   UNL     1       2.778   5.201  19.745  0.00  0.00    +0.000 A 
ENDBRANCH   3  11
BRANCH   3  17
ATOM     17  C   UNL     1       5.667   5.445  18.134  0.00  0.00    +0.000 A 
ATOM     18  C   UNL     1       5.631   6.651  17.426  0.00  0.00    +0.000 A 
ATOM     19  C   UNL     1       6.687   7.553  17.512  0.00  0.00    +0.000 A 
ATOM     20  C   UNL     1       7.775   7.297  18.350  0.00  0.00    +0.000 A 
ATOM     21  C   UNL     1       7.835   6.083  19.039  0.00  0.00    +0.000 A 
ATOM     22  C   UNL     1       6.787   5.156  18.925  0.00  0.00    +0.000 A 
BRANCH  20  23
ATOM     23  O   UNL     1       8.796   8.195  18.559  0.00  0.00    +0.000 OA
BRANCH  23  24
ATOM     24  C   UNL     1       8.432   9.550  18.247  0.00  0.00    +0.000 C 
BRANCH  24  25
ATOM     25  C   UNL     1       9.316  10.546  19.007  0.00  0.00    +0.000 C 
BRANCH  25  26
ATOM     26  N   UNL     1       9.600  11.772  18.243  0.00  0.00    +0.000 NA
ATOM     27  C   UNL     1      11.022  11.853  17.855  0.00  0.00    +0.000 C 
ATOM     28  C   UNL     1      11.292  13.092  16.963  0.00  0.00    +0.000 C 
ATOM     29  N   UNL     1      10.842  14.385  17.524  0.00  0.00    +0.000 NA
ATOM     30  C   UNL     1      11.728  14.853  18.587  0.00  0.00    +0.000 C 
ATOM     31  C   UNL     1       9.457  14.245  18.007  0.00  0.00    +0.000 C 
ATOM     32  C   UNL     1       9.213  13.024  18.922  0.00  0.00    +0.000 C 
ENDBRANCH  25  26
ENDBRANCH  24  25
ENDBRANCH  23  24
ENDBRANCH  20  23
ENDBRANCH   3  17
TORSDOF 7
ENDMDL
MODEL 5
REMARK VINA RESULT:      -7.9      2.144      4.928
REMARK  Name = 
REMARK  9 active torsions:
REMARK  status: ('A' for Active; 'I' for Inactive)
REMARK    1  A    between atoms: C_1  and  C_2
REMARK    2  A    between atoms: C_2  and  C_26
REMARK    3  A    between atoms: C_3  and  C_4
REMARK    4  A    between atoms: C_3  and  C_10
REMARK    5  A    between atoms: C_13  and  O_14
REMARK    6  A    between atoms: O_14  and  C_15
REMARK    7  A    between atoms: C_15  and  C_16
REMARK    8  A    between atoms: C_16  and  N_17
REMARK    9  A    between atoms: N_20  and  C_21
REMARK                            x       y       z     vdW  Elec       q    Type
REMARK                         _______ _______ _______ _____ _____    ______ ____
ROOT
ATOM      1  C   UNL     1       3.175   2.992  16.604  0.00  0.00    +0.000 C 
ATOM      2  C   UNL     1       4.331   3.928  16.864  0.00  0.00    +0.000 C 
ATOM      3  C   UNL     1       4.589   4.528  18.061  0.00  0.00    +0.000 C 
ENDROOT
BRANCH   2   4
ATOM      4  C   UNL     1       5.176   4.185  15.663  0.00  0.00    +0.000 A 
ATOM      5  C   UNL     1       4.626   4.153  14.369  0.00  0.00    +0.000 A 
ATOM      6  C   UNL     1       5.455   4.202  13.247  0.00  0.00    +0.000 A 
ATOM      7  C   UNL     1       6.832   4.318  13.414  0.00  0.00    +0.000 A 
ATOM      8  F   UNL     1       7.630   4.305  12.335  0.00  0.00    +0.000 F 
ATOM      9  C   UNL     1       7.384   4.426  14.677  0.00  0.00    +0.000 A 
ATOM     10  C   UNL     1       6.561   4.365  15.802  0.00  0.00    +0.000 A 
ENDBRANCH   2   4
BRANCH   3  11
ATOM     11  C   UNL     1       3.772   4.200  19.267  0.00  0.00    +0.000 A 
ATOM     12  C   UNL     1       2.837   5.128  19.748  0.00  0.00    +0.000 A 
ATOM     13  C   UNL     1       2.047   4.838  20.870  0.00  0.00    +0.000 A 
ATOM     14  C   UNL     1       2.180   3.612  21.516  0.00  0.00    +0.000 A 
ATOM     15  C   UNL     1       3.102   2.678  21.046  0.00  0.00    +0.000 A 
ATOM     16  C   UNL     1       3.901   2.972  19.932  0.00  0.00    +0.000 A 
ENDBRANCH   3  11
BRANCH   3  17
ATOM     17  C   UNL     1       5.665   5.556  18.160  0.00  0.00    +0.000 A 
ATOM     18  C   UNL     1       6.805   5.266  18.916  0.00  0.00    +0.000 A 
ATOM     19  C   UNL     1       7.840   6.192  19.017  0.00  0.00    +0.000 A 
ATOM     20  C   UNL     1       7.783   7.402  18.320  0.00  0.00    +0.000 A 
ATOM     21  C   UNL     1       6.636   7.713  17.586  0.00  0.00    +0.000 A 
ATOM     22  C   UNL     1       5.576   6.795  17.512  0.00  0.00    +0.000 A 
BRANCH  20  23
ATOM     23  O   UNL     1       8.817   8.309  18.295  0.00  0.00    +0.000 OA
BRANCH  23  24
ATOM     24  C   UNL     1       8.373   9.668  18.140  0.00  0.00    +0.000 C 
BRANCH  24  25
ATOM     25  C   UNL     1       9.145  10.607  19.076  0.00  0.00    +0.000 C 
BRANCH  25  26
ATOM     26  N   UNL     1       9.535  11.874  18.435  0.00  0.00    +0.000 NA
ATOM     27  C   UNL     1      10.826  11.750  17.731  0.00  0.00    +0.000 C 
ATOM     28  C   UNL     1      11.180  13.055  16.972  0.00  0.00    +0.000 C 
ATOM     29  N   UNL     1      11.163  14.287  17.790  0.00  0.00    +0.000 NA
ATOM     30  C   UNL     1      12.332  14.377  18.661  0.00  0.00    +0.000 C 
ATOM     31  C   UNL     1       9.913  14.330  18.570  0.00  0.00    +0.000 C 
ATOM     32  C   UNL     1       9.592  13.032  19.347  0.00  0.00    +0.000 C 
ENDBRANCH  25  26
ENDBRANCH  24  25
ENDBRANCH  23  24
ENDBRANCH  20  23
ENDBRANCH   3  17
TORSDOF 7
ENDMDL
MODEL 6
REMARK VINA RESULT:      -7.9      6.431      9.898
REMARK  Name = 
REMARK  9 active torsions:
REMARK  status: ('A' for Active; 'I' for Inactive)
REMARK    1  A    between atoms: C_1  and  C_2
REMARK    2  A    between atoms: C_2  and  C_26
REMARK    3  A    between atoms: C_3  and  C_4
REMARK    4  A    between atoms: C_3  and  C_10
REMARK    5  A    between atoms: C_13  and  O_14
REMARK    6  A    between atoms: O_14  and  C_15
REMARK    7  A    between atoms: C_15  and  C_16
REMARK    8  A    between atoms: C_16  and  N_17
REMARK    9  A    between atoms: N_20  and  C_21
REMARK                            x       y       z     vdW  Elec       q    Type
REMARK                         _______ _______ _______ _____ _____    ______ ____
ROOT
ATOM      1  C   UNL     1      -1.072  14.373  18.720  0.00  0.00    +0.000 C 
ATOM      2  C   UNL     1      -0.303  13.090  18.931  0.00  0.00    +0.000 C 
ATOM      3  C   UNL     1      -0.819  11.840  18.759  0.00  0.00    +0.000 C 
ENDROOT
BRANCH   2   4
ATOM      4  C   UNL     1       1.098  13.302  19.394  0.00  0.00    +0.000 A 
ATOM      5  C   UNL     1       1.398  13.444  20.760  0.00  0.00    +0.000 A 
ATOM      6  C   UNL     1       2.675  13.832  21.167  0.00  0.00    +0.000 A 
ATOM      7  C   UNL     1       3.667  14.044  20.213  0.00  0.00    +0.000 A 
ATOM      8  F   UNL     1       4.876  14.474  20.603  0.00  0.00    +0.000 F 
ATOM      9  C   UNL     1       3.411  13.836  18.870  0.00  0.00    +0.000 A 
ATOM     10  C   UNL     1       2.132  13.460  18.457  0.00  0.00    +0.000 A 
ENDBRANCH   2   4
BRANCH   3  11
ATOM     11  C   UNL     1      -2.202  11.655  18.227  0.00  0.00    +0.000 A 
ATOM     12  C   UNL     1      -2.388  11.224  16.905  0.00  0.00    +0.000 A 
ATOM     13  C   UNL     1      -3.675  11.028  16.387  0.00  0.00    +0.000 A 
ATOM     14  C   UNL     1      -4.791  11.255  17.189  0.00  0.00    +0.000 A 
ATOM     15  C   UNL     1      -4.621  11.679  18.506  0.00  0.00    +0.000 A 
ATOM     16  C   UNL     1      -3.334  11.887  19.022  0.00  0.00    +0.000 A 
ENDBRANCH   3  11
BRANCH   3  17
ATOM     17  C   UNL     1      -0.016  10.646  19.149  0.00  0.00    +0.000 A 
ATOM     18  C   UNL     1       0.803  10.043  18.189  0.00  0.00    +0.000 A 
ATOM     19  C   UNL     1       1.583   8.938  18.520  0.00  0.00    +0.000 A 
ATOM     20  C   UNL     1       1.604   8.447  19.827  0.00  0.00    +0.000 A 
ATOM     21  C   UNL     1       0.766   9.023  20.786  0.00  0.00    +0.000 A 
ATOM     22  C   UNL     1      -0.047  10.116  20.446  0.00  0.00    +0.000 A 
BRANCH  20  23
ATOM     23  O   UNL     1       2.430   7.427  20.239  0.00  0.00    +0.000 OA
BRANCH  23  24
ATOM     24  C   UNL     1       2.514   6.349  19.292  0.00  0.00    +0.000 C 
BRANCH  24  25
ATOM     25  C   UNL     1       3.870   5.638  19.387  0.00  0.00    +0.000 C 
BRANCH  25  26
ATOM     26  N   UNL     1       4.834   6.090  18.370  0.00  0.00    +0.000 NA
ATOM     27  C   UNL     1       4.357   5.799  17.004  0.00  0.00    +0.000 C 
ATOM     28  C   UNL     1       5.327   6.369  15.937  0.00  0.00    +0.000 C 
ATOM     29  N   UNL     1       6.740   5.957  16.081  0.00  0.00    +0.000 NA
ATOM     30  C   UNL     1       6.948   4.576  15.653  0.00  0.00    +0.000 C 
ATOM     31  C   UNL     1       7.158   6.151  17.481  0.00  0.00    +0.000 C 
ATOM     32  C   UNL     1       6.197   5.547  18.531  0.00  0.00    +0.000 C 
ENDBRANCH  25  26
ENDBRANCH  24  25
ENDBRANCH  23  24
ENDBRANCH  20  23
ENDBRANCH   3  17
TORSDOF 7
ENDMDL
MODEL 7
REMARK VINA RESULT:      -7.8      6.208      9.667
REMARK  Name = 
REMARK  9 active torsions:
REMARK  status: ('A' for Active; 'I' for Inactive)
REMARK    1  A    between atoms: C_1  and  C_2
REMARK    2  A    between atoms: C_2  and  C_26
REMARK    3  A    between atoms: C_3  and  C_4
REMARK    4  A    between atoms: C_3  and  C_10
REMARK    5  A    between atoms: C_13  and  O_14
REMARK    6  A    between atoms: O_14  and  C_15
REMARK    7  A    between atoms: C_15  and  C_16
REMARK    8  A    between atoms: C_16  and  N_17
REMARK    9  A    between atoms: N_20  and  C_21
REMARK                            x       y       z     vdW  Elec       q    Type
REMARK                         _______ _______ _______ _____ _____    ______ ____
ROOT
ATOM      1  C   UNL     1      -0.278  14.476  18.450  0.00  0.00    +0.000 C 
ATOM      2  C   UNL     1      -0.055  13.010  18.738  0.00  0.00    +0.000 C 
ATOM      3  C   UNL     1       1.140  12.464  19.101  0.00  0.00    +0.000 C 
ENDROOT
BRANCH   2   4
ATOM      4  C   UNL     1      -1.274  12.172  18.551  0.00  0.00    +0.000 A 
ATOM      5  C   UNL     1      -1.378  11.272  17.477  0.00  0.00    +0.000 A 
ATOM      6  C   UNL     1      -2.591  10.637  17.201  0.00  0.00    +0.000 A 
ATOM      7  C   UNL     1      -3.692  10.873  18.019  0.00  0.00    +0.000 A 
ATOM      8  F   UNL     1      -4.871  10.308  17.716  0.00  0.00    +0.000 F 
ATOM      9  C   UNL     1      -3.588  11.696  19.124  0.00  0.00    +0.000 A 
ATOM     10  C   UNL     1      -2.382  12.343  19.397  0.00  0.00    +0.000 A 
ENDBRANCH   2   4
BRANCH   3  11
ATOM     11  C   UNL     1       2.328  13.333  19.351  0.00  0.00    +0.000 A 
ATOM     12  C   UNL     1       3.077  13.818  18.268  0.00  0.00    +0.000 A 
ATOM     13  C   UNL     1       4.187  14.648  18.475  0.00  0.00    +0.000 A 
ATOM     14  C   UNL     1       4.555  15.008  19.769  0.00  0.00    +0.000 A 
ATOM     15  C   UNL     1       3.818  14.538  20.854  0.00  0.00    +0.000 A 
ATOM     16  C   UNL     1       2.714  13.698  20.648  0.00  0.00    +0.000 A 
ENDBRANCH   3  11
BRANCH   3  17
ATOM     17  C   UNL     1       1.278  10.983  19.205  0.00  0.00    +0.000 A 
ATOM     18  C   UNL     1       1.880  10.287  18.151  0.00  0.00    +0.000 A 
ATOM     19  C   UNL     1       2.045   8.907  18.219  0.00  0.00    +0.000 A 
ATOM     20  C   UNL     1       1.664   8.200  19.362  0.00  0.00    +0.000 A 
ATOM     21  C   UNL     1       1.035   8.881  20.407  0.00  0.00    +0.000 A 
ATOM     22  C   UNL     1       0.837  10.268  20.326  0.00  0.00    +0.000 A 
BRANCH  20  23
ATOM     23  O   UNL     1       1.896   6.855  19.531  0.00  0.00    +0.000 OA
BRANCH  23  24
ATOM     24  C   UNL     1       2.871   6.329  18.614  0.00  0.00    +0.000 C 
BRANCH  24  25
ATOM     25  C   UNL     1       4.058   5.716  19.366  0.00  0.00    +0.000 C 
BRANCH  25  26
ATOM     26  N   UNL     1       4.940   4.911  18.503  0.00  0.00    +0.000 NA
ATOM     27  C   UNL     1       6.289   5.502  18.406  0.00  0.00    +0.000 C 
ATOM     28  C   UNL     1       7.240   4.596  17.582  0.00  0.00    +0.000 C 
ATOM     29  N   UNL     1       6.751   4.219  16.238  0.00  0.00    +0.000 NA
ATOM     30  C   UNL     1       6.853   5.328  15.294  0.00  0.00    +0.000 C 
ATOM     31  C   UNL     1       5.362   3.739  16.349  0.00  0.00    +0.000 C 
ATOM     32  C   UNL     1       4.418   4.671  17.144  0.00  0.00    +0.000 C 
ENDBRANCH  25  26
ENDBRANCH  24  25
ENDBRANCH  23  24
ENDBRANCH  20  23
ENDBRANCH   3  17
TORSDOF 7
ENDMDL
MODEL 8
REMARK VINA RESULT:      -7.7      2.245      5.029
REMARK  Name = 
REMARK  9 active torsions:
REMARK  status: ('A' for Active; 'I' for Inactive)
REMARK    1  A    between atoms: C_1  and  C_2
REMARK    2  A    between atoms: C_2  and  C_26
REMARK    3  A    between atoms: C_3  and  C_4
REMARK    4  A    between atoms: C_3  and  C_10
REMARK    5  A    between atoms: C_13  and  O_14
REMARK    6  A    between atoms: O_14  and  C_15
REMARK    7  A    between atoms: C_15  and  C_16
REMARK    8  A    between atoms: C_16  and  N_17
REMARK    9  A    between atoms: N_20  and  C_21
REMARK                            x       y       z     vdW  Elec       q    Type
REMARK                         _______ _______ _______ _____ _____    ______ ____
ROOT
ATOM      1  C   UNL     1       3.221   3.058  16.539  0.00  0.00    +0.000 C 
ATOM      2  C   UNL     1       4.421   3.932  16.814  0.00  0.00    +0.000 C 
ATOM      3  C   UNL     1       4.650   4.587  17.987  0.00  0.00    +0.000 C 
ENDROOT
BRANCH   2   4
ATOM      4  C   UNL     1       5.348   4.059  15.653  0.00  0.00    +0.000 A 
ATOM      5  C   UNL     1       6.705   4.375  15.839  0.00  0.00    +0.000 A 
ATOM      6  C   UNL     1       7.517   4.681  14.745  0.00  0.00    +0.000 A 
ATOM      7  C   UNL     1       6.984   4.637  13.460  0.00  0.00    +0.000 A 
ATOM      8  F   UNL     1       7.751   4.988  12.416  0.00  0.00    +0.000 F 
ATOM      9  C   UNL     1       5.672   4.256  13.252  0.00  0.00    +0.000 A 
ATOM     10  C   UNL     1       4.853   3.962  14.343  0.00  0.00    +0.000 A 
ENDBRANCH   2   4
BRANCH   3  11
ATOM     11  C   UNL     1       3.746   4.387  19.158  0.00  0.00    +0.000 A 
ATOM     12  C   UNL     1       2.817   5.381  19.499  0.00  0.00    +0.000 A 
ATOM     13  C   UNL     1       1.946   5.211  20.585  0.00  0.00    +0.000 A 
ATOM     14  C   UNL     1       1.991   4.040  21.336  0.00  0.00    +0.000 A 
ATOM     15  C   UNL     1       2.907   3.041  21.007  0.00  0.00    +0.000 A 
ATOM     16  C   UNL     1       3.786   3.216  19.928  0.00  0.00    +0.000 A 
ENDBRANCH   3  11
BRANCH   3  17
ATOM     17  C   UNL     1       5.785   5.548  18.091  0.00  0.00    +0.000 A 
ATOM     18  C   UNL     1       5.695   6.772  17.420  0.00  0.00    +0.000 A 
ATOM     19  C   UNL     1       6.726   7.704  17.508  0.00  0.00    +0.000 A 
ATOM     20  C   UNL     1       7.841   7.458  18.312  0.00  0.00    +0.000 A 
ATOM     21  C   UNL     1       7.955   6.226  18.963  0.00  0.00    +0.000 A 
ATOM     22  C   UNL     1       6.933   5.271  18.847  0.00  0.00    +0.000 A 
BRANCH  20  23
ATOM     23  O   UNL     1       8.840   8.380  18.523  0.00  0.00    +0.000 OA
BRANCH  23  24
ATOM     24  C   UNL     1       8.441   9.726  18.216  0.00  0.00    +0.000 C 
BRANCH  24  25
ATOM     25  C   UNL     1       9.645  10.676  18.242  0.00  0.00    +0.000 C 
BRANCH  25  26
ATOM     26  N   UNL     1       9.425  11.872  19.073  0.00  0.00    +0.000 NA
ATOM     27  C   UNL     1       9.302  13.089  18.247  0.00  0.00    +0.000 C 
ATOM     28  C   UNL     1       8.967  14.327  19.119  0.00  0.00    +0.000 C 
ATOM     29  N   UNL     1       9.886  14.571  20.252  0.00  0.00    +0.000 NA
ATOM     30  C   UNL     1      11.162  15.125  19.806  0.00  0.00    +0.000 C 
ATOM     31  C   UNL     1      10.081  13.312  20.993  0.00  0.00    +0.000 C 
ATOM     32  C   UNL     1      10.448  12.095  20.112  0.00  0.00    +0.000 C 
ENDBRANCH  25  26
ENDBRANCH  24  25
ENDBRANCH  23  24
ENDBRANCH  20  23
ENDBRANCH   3  17
TORSDOF 7
ENDMDL
MODEL 9
REMARK VINA RESULT:      -7.7      6.606     10.375
REMARK  Name = 
REMARK  9 active torsions:
REMARK  status: ('A' for Active; 'I' for Inactive)
REMARK    1  A    between atoms: C_1  and  C_2
REMARK    2  A    between atoms: C_2  and  C_26
REMARK    3  A    between atoms: C_3  and  C_4
REMARK    4  A    between atoms: C_3  and  C_10
REMARK    5  A    between atoms: C_13  and  O_14
REMARK    6  A    between atoms: O_14  and  C_15
REMARK    7  A    between atoms: C_15  and  C_16
REMARK    8  A    between atoms: C_16  and  N_17
REMARK    9  A    between atoms: N_20  and  C_21
REMARK                            x       y       z     vdW  Elec       q    Type
REMARK                         _______ _______ _______ _____ _____    ______ ____
ROOT
ATOM      1  C   UNL     1      -0.889  14.505  18.894  0.00  0.00    +0.000 C 
ATOM      2  C   UNL     1      -0.084  13.230  18.984  0.00  0.00    +0.000 C 
ATOM      3  C   UNL     1      -0.595  11.978  18.808  0.00  0.00    +0.000 C 
ENDROOT
BRANCH   2   4
ATOM      4  C   UNL     1       1.349  13.450  19.328  0.00  0.00    +0.000 A 
ATOM      5  C   UNL     1       1.776  13.495  20.666  0.00  0.00    +0.000 A 
ATOM      6  C   UNL     1       3.077  13.891  20.982  0.00  0.00    +0.000 A 
ATOM      7  C   UNL     1       3.966  14.209  19.959  0.00  0.00    +0.000 A 
ATOM      8  F   UNL     1       5.196  14.646  20.267  0.00  0.00    +0.000 F 
ATOM      9  C   UNL     1       3.587  14.098  18.634  0.00  0.00    +0.000 A 
ATOM     10  C   UNL     1       2.283  13.715  18.314  0.00  0.00    +0.000 A 
ENDBRANCH   2   4
BRANCH   3  11
ATOM     11  C   UNL     1      -2.016  11.788  18.394  0.00  0.00    +0.000 A 
ATOM     12  C   UNL     1      -2.310  11.315  17.106  0.00  0.00    +0.000 A 
ATOM     13  C   UNL     1      -3.636  11.114  16.699  0.00  0.00    +0.000 A 
ATOM     14  C   UNL     1      -4.682  11.376  17.579  0.00  0.00    +0.000 A 
ATOM     15  C   UNL     1      -4.405  11.842  18.863  0.00  0.00    +0.000 A 
ATOM     16  C   UNL     1      -3.080  12.055  19.268  0.00  0.00    +0.000 A 
ENDBRANCH   3  11
BRANCH   3  17
ATOM     17  C   UNL     1       0.259  10.785  19.076  0.00  0.00    +0.000 A 
ATOM     18  C   UNL     1       0.182  10.171  20.331  0.00  0.00    +0.000 A 
ATOM     19  C   UNL     1       0.948   9.044  20.614  0.00  0.00    +0.000 A 
ATOM     20  C   UNL     1       1.764   8.473  19.633  0.00  0.00    +0.000 A 
ATOM     21  C   UNL     1       1.870   9.096  18.387  0.00  0.00    +0.000 A 
ATOM     22  C   UNL     1       1.124  10.253  18.112  0.00  0.00    +0.000 A 
BRANCH  20  23
ATOM     23  O   UNL     1       2.461   7.302  19.818  0.00  0.00    +0.000 OA
BRANCH  23  24
ATOM     24  C   UNL     1       1.629   6.208  20.239  0.00  0.00    +0.000 C 
BRANCH  24  25
ATOM     25  C   UNL     1       2.480   5.016  20.696  0.00  0.00    +0.000 C 
BRANCH  25  26
ATOM     26  N   UNL     1       3.225   4.378  19.598  0.00  0.00    +0.000 NA
ATOM     27  C   UNL     1       4.603   4.899  19.505  0.00  0.00    +0.000 C 
ATOM     28  C   UNL     1       5.414   4.151  18.416  0.00  0.00    +0.000 C 
ATOM     29  N   UNL     1       4.792   4.116  17.075  0.00  0.00    +0.000 NA
ATOM     30  C   UNL     1       4.902   5.403  16.392  0.00  0.00    +0.000 C 
ATOM     31  C   UNL     1       3.384   3.703  17.208  0.00  0.00    +0.000 C 
ATOM     32  C   UNL     1       2.580   4.482  18.275  0.00  0.00    +0.000 C 
ENDBRANCH  25  26
ENDBRANCH  24  25
ENDBRANCH  23  24
ENDBRANCH  20  23
ENDBRANCH   3  17
TORSDOF 7
ENDMDL
