MODEL 1
REMARK VINA RESULT:      -8.4      0.000      0.000
REMARK  Name = 
REMARK  5 active torsions:
REMARK  status: ('A' for Active; 'I' for Inactive)
REMARK    1  A    between atoms: C_1  and  C_2
REMARK    2  A    between atoms: C_2  and  C_3
REMARK    3  A    between atoms: C_3  and  C_4
REMARK    4  A    between atoms: C_3  and  N_10
REMARK    5  A    between atoms: C_14  and  C_15
REMARK                            x       y       z     vdW  Elec       q    Type
REMARK                         _______ _______ _______ _____ _____    ______ ____
ROOT
ATOM      1  N   UNL     1       4.270   5.620  18.522  0.00  0.00    +0.000 N 
ATOM      2  N   UNL     1       3.872   5.778  17.207  0.00  0.00    +0.000 NA
ATOM      3  N   UNL     1       4.659   5.520  16.265  0.00  0.00    +0.000 NA
ATOM      4  C   UNL     1       5.911   5.081  16.513  0.00  0.00    +0.000 A 
ATOM      5  C   UNL     1       7.004   4.721  15.742  0.00  0.00    +0.000 A 
ATOM      6  N   UNL     1       8.063   4.330  16.559  0.00  0.00    +0.000 NA
ATOM      7  C   UNL     1       7.613   4.472  17.786  0.00  0.00    +0.000 A 
ATOM      8  N   UNL     1       6.323   4.930  17.806  0.00  0.00    +0.000 N 
ATOM      9  C   UNL     1       5.538   5.217  18.904  0.00  0.00    +0.000 A 
ATOM     10  O   UNL     1       6.010   5.108  20.026  0.00  0.00    +0.000 OA
ENDROOT
BRANCH   5  11
ATOM     11  C   UNL     1       7.115   4.732  14.288  0.00  0.00    +0.000 C 
ATOM     12  N   UNL     1       6.320   3.804  13.679  0.00  0.00    +0.000 N 
ATOM     13  O   UNL     1       7.843   5.482  13.648  0.00  0.00    +0.000 OA
ATOM     14  H   UNL     1       5.741   3.195  14.246  0.00  0.00    +0.000 HD
ATOM     15  H   UNL     1       6.333   3.715  12.675  0.00  0.00    +0.000 HD
ENDBRANCH   5  11
BRANCH   1  16
ATOM     16  C   UNL     1       3.302   5.995  19.566  0.00  0.00    +0.000 C 
BRANCH  16  17
ATOM     17  C   UNL     1       2.474   4.804  20.046  0.00  0.00    +0.000 A 
ATOM     18  C   UNL     1       1.534   4.166  19.222  0.00  0.00    +0.000 A 
ATOM     19  C   UNL     1       0.810   3.059  19.678  0.00  0.00    +0.000 A 
ATOM     20  C   UNL     1       1.012   2.576  20.970  0.00  0.00    +0.000 A 
ATOM     21  C   UNL     1       1.928   3.207  21.807  0.00  0.00    +0.000 A 
ATOM     22  C   UNL     1       2.653   4.312  21.352  0.00  0.00    +0.000 A 
ENDBRANCH  16  17
BRANCH  16  24
ATOM     23  C   UNL     1       1.714   7.835  20.354  0.00  0.00    +0.000 C 
ATOM     24  C   UNL     1       2.425   7.200  19.163  0.00  0.00    +0.000 C 
ENDBRANCH  16  24
ENDBRANCH   1  16
TORSDOF 4
ENDMDL
MODEL 2
REMARK VINA RESULT:      -8.3      0.027      1.028
REMARK  Name = 
REMARK  5 active torsions:
REMARK  status: ('A' for Active; 'I' for Inactive)
REMARK    1  A    between atoms: C_1  and  C_2
REMARK    2  A    between atoms: C_2  and  C_3
REMARK    3  A    between atoms: C_3  and  C_4
REMARK    4  A    between atoms: C_3  and  N_10
REMARK    5  A    between atoms: C_14  and  C_15
REMARK                            x       y       z     vdW  Elec       q    Type
REMARK                         _______ _______ _______ _____ _____    ______ ____
ROOT
ATOM      1  N   UNL     1       4.275   5.613  18.519  0.00  0.00    +0.000 N 
ATOM      2  N   UNL     1       3.876   5.774  17.204  0.00  0.00    +0.000 NA
ATOM      3  N   UNL     1       4.662   5.519  16.261  0.00  0.00    +0.000 NA
ATOM      4  C   UNL     1       5.914   5.080  16.506  0.00  0.00    +0.000 A 
ATOM      5  C   UNL     1       7.007   4.722  15.734  0.00  0.00    +0.000 A 
ATOM      6  N   UNL     1       8.067   4.328  16.548  0.00  0.00    +0.000 NA
ATOM      7  C   UNL     1       7.618   4.467  17.776  0.00  0.00    +0.000 A 
ATOM      8  N   UNL     1       6.328   4.925  17.798  0.00  0.00    +0.000 N 
ATOM      9  C   UNL     1       5.544   5.209  18.898  0.00  0.00    +0.000 A 
ATOM     10  O   UNL     1       6.017   5.097  20.020  0.00  0.00    +0.000 OA
ENDROOT
BRANCH   5  11
ATOM     11  C   UNL     1       7.116   4.736  14.280  0.00  0.00    +0.000 C 
ATOM     12  N   UNL     1       6.324   3.807  13.669  0.00  0.00    +0.000 N 
ATOM     13  O   UNL     1       7.841   5.490  13.640  0.00  0.00    +0.000 OA
ATOM     14  H   UNL     1       5.748   3.194  14.235  0.00  0.00    +0.000 HD
ATOM     15  H   UNL     1       6.336   3.720  12.664  0.00  0.00    +0.000 HD
ENDBRANCH   5  11
BRANCH   1  16
ATOM     16  C   UNL     1       3.309   5.986  19.564  0.00  0.00    +0.000 C 
BRANCH  16  17
ATOM     17  C   UNL     1       2.504   4.787  20.064  0.00  0.00    +0.000 A 
ATOM     18  C   UNL     1       2.656   4.273  21.362  0.00  0.00    +0.000 A 
ATOM     19  C   UNL     1       1.885   3.192  21.802  0.00  0.00    +0.000 A 
ATOM     20  C   UNL     1       0.953   2.603  20.949  0.00  0.00    +0.000 A 
ATOM     21  C   UNL     1       0.802   3.088  19.653  0.00  0.00    +0.000 A 
ATOM     22  C   UNL     1       1.570   4.170  19.212  0.00  0.00    +0.000 A 
ENDBRANCH  16  17
BRANCH  16  24
ATOM     23  C   UNL     1       1.720   7.828  20.344  0.00  0.00    +0.000 C 
ATOM     24  C   UNL     1       2.410   7.171  19.153  0.00  0.00    +0.000 C 
ENDBRANCH  16  24
ENDBRANCH   1  16
TORSDOF 4
ENDMDL
MODEL 3
REMARK VINA RESULT:      -7.5      3.945      6.996
REMARK  Name = 
REMARK  5 active torsions:
REMARK  status: ('A' for Active; 'I' for Inactive)
REMARK    1  A    between atoms: C_1  and  C_2
REMARK    2  A    between atoms: C_2  and  C_3
REMARK    3  A    between atoms: C_3  and  C_4
REMARK    4  A    between atoms: C_3  and  N_10
REMARK    5  A    between atoms: C_14  and  C_15
REMARK                            x       y       z     vdW  Elec       q    Type
REMARK                         _______ _______ _______ _____ _____    ______ ____
ROOT
ATOM      1  N   UNL     1       2.256   7.247  18.899  0.00  0.00    +0.000 N 
ATOM      2  N   UNL     1       1.948   6.904  20.204  0.00  0.00    +0.000 NA
ATOM      3  N   UNL     1       1.347   7.711  20.952  0.00  0.00    +0.000 NA
ATOM      4  C   UNL     1       0.984   8.930  20.502  0.00  0.00    +0.000 A 
ATOM      5  C   UNL     1       0.337  10.031  21.039  0.00  0.00    +0.000 A 
ATOM      6  N   UNL     1       0.227  11.041  20.084  0.00  0.00    +0.000 NA
ATOM      7  C   UNL     1       0.812  10.554  19.011  0.00  0.00    +0.000 A 
ATOM      8  N   UNL     1       1.289   9.289  19.220  0.00  0.00    +0.000 N 
ATOM      9  C   UNL     1       1.974   8.480  18.336  0.00  0.00    +0.000 A 
ATOM     10  O   UNL     1       2.256   8.905  17.225  0.00  0.00    +0.000 OA
ENDROOT
BRANCH   5  11
ATOM     11  C   UNL     1      -0.174  10.194  22.395  0.00  0.00    +0.000 C 
ATOM     12  N   UNL     1      -0.567   9.019  22.968  0.00  0.00    +0.000 N 
ATOM     13  O   UNL     1      -0.260  11.264  22.986  0.00  0.00    +0.000 OA
ATOM     14  H   UNL     1      -0.490   8.157  22.441  0.00  0.00    +0.000 HD
ATOM     15  H   UNL     1      -0.953   9.020  23.900  0.00  0.00    +0.000 HD
ENDBRANCH   5  11
BRANCH   1  16
ATOM     16  C   UNL     1       3.010   6.262  18.107  0.00  0.00    +0.000 C 
BRANCH  16  17
ATOM     17  C   UNL     1       2.678   4.823  18.501  0.00  0.00    +0.000 A 
ATOM     18  C   UNL     1       1.494   4.190  18.091  0.00  0.00    +0.000 A 
ATOM     19  C   UNL     1       1.230   2.862  18.443  0.00  0.00    +0.000 A 
ATOM     20  C   UNL     1       2.143   2.148  19.216  0.00  0.00    +0.000 A 
ATOM     21  C   UNL     1       3.314   2.766  19.647  0.00  0.00    +0.000 A 
ATOM     22  C   UNL     1       3.581   4.092  19.295  0.00  0.00    +0.000 A 
ENDBRANCH  16  17
BRANCH  16  24
ATOM     23  C   UNL     1       5.107   6.610  16.689  0.00  0.00    +0.000 C 
ATOM     24  C   UNL     1       4.529   6.537  18.098  0.00  0.00    +0.000 C 
ENDBRANCH  16  24
ENDBRANCH   1  16
TORSDOF 4
ENDMDL
MODEL 4
REMARK VINA RESULT:      -7.5      3.958      7.073
REMARK  Name = 
REMARK  5 active torsions:
REMARK  status: ('A' for Active; 'I' for Inactive)
REMARK    1  A    between atoms: C_1  and  C_2
REMARK    2  A    between atoms: C_2  and  C_3
REMARK    3  A    between atoms: C_3  and  C_4
REMARK    4  A    between atoms: C_3  and  N_10
REMARK    5  A    between atoms: C_14  and  C_15
REMARK                            x       y       z     vdW  Elec       q    Type
REMARK                         _______ _______ _______ _____ _____    ______ ____
ROOT
ATOM      1  N   UNL     1       2.229   7.271  18.898  0.00  0.00    +0.000 N 
ATOM      2  N   UNL     1       1.928   6.927  20.203  0.00  0.00    +0.000 NA
ATOM      3  N   UNL     1       1.333   7.734  20.956  0.00  0.00    +0.000 NA
ATOM      4  C   UNL     1       0.970   8.955  20.510  0.00  0.00    +0.000 A 
ATOM      5  C   UNL     1       0.329  10.056  21.052  0.00  0.00    +0.000 A 
ATOM      6  N   UNL     1       0.215  11.067  20.099  0.00  0.00    +0.000 NA
ATOM      7  C   UNL     1       0.793  10.581  19.022  0.00  0.00    +0.000 A 
ATOM      8  N   UNL     1       1.268   9.314  19.226  0.00  0.00    +0.000 N 
ATOM      9  C   UNL     1       1.946   8.505  18.338  0.00  0.00    +0.000 A 
ATOM     10  O   UNL     1       2.223   8.932  17.226  0.00  0.00    +0.000 OA
ENDROOT
BRANCH   5  11
ATOM     11  C   UNL     1      -0.174  10.219  22.411  0.00  0.00    +0.000 C 
ATOM     12  N   UNL     1      -0.542   9.041  22.995  0.00  0.00    +0.000 N 
ATOM     13  O   UNL     1      -0.274  11.291  22.996  0.00  0.00    +0.000 OA
ATOM     14  H   UNL     1      -0.454   8.177  22.472  0.00  0.00    +0.000 HD
ATOM     15  H   UNL     1      -0.920   9.041  23.930  0.00  0.00    +0.000 HD
ENDBRANCH   5  11
BRANCH   1  16
ATOM     16  C   UNL     1       2.977   6.286  18.100  0.00  0.00    +0.000 C 
BRANCH  16  17
ATOM     17  C   UNL     1       2.684   4.848  18.529  0.00  0.00    +0.000 A 
ATOM     18  C   UNL     1       3.536   4.136  19.387  0.00  0.00    +0.000 A 
ATOM     19  C   UNL     1       3.228   2.831  19.786  0.00  0.00    +0.000 A 
ATOM     20  C   UNL     1       2.065   2.215  19.328  0.00  0.00    +0.000 A 
ATOM     21  C   UNL     1       1.217   2.900  18.462  0.00  0.00    +0.000 A 
ATOM     22  C   UNL     1       1.522   4.205  18.064  0.00  0.00    +0.000 A 
ENDBRANCH  16  17
BRANCH  16  24
ATOM     23  C   UNL     1       5.038   6.567  16.616  0.00  0.00    +0.000 C 
ATOM     24  C   UNL     1       4.489   6.588  18.039  0.00  0.00    +0.000 C 
ENDBRANCH  16  24
ENDBRANCH   1  16
TORSDOF 4
ENDMDL
MODEL 5
REMARK VINA RESULT:      -7.4      3.315      6.360
REMARK  Name = 
REMARK  5 active torsions:
REMARK  status: ('A' for Active; 'I' for Inactive)
REMARK    1  A    between atoms: C_1  and  C_2
REMARK    2  A    between atoms: C_2  and  C_3
REMARK    3  A    between atoms: C_3  and  C_4
REMARK    4  A    between atoms: C_3  and  N_10
REMARK    5  A    between atoms: C_14  and  C_15
REMARK                            x       y       z     vdW  Elec       q    Type
REMARK                         _______ _______ _______ _____ _____    ______ ____
ROOT
ATOM      1  N   UNL     1       2.797   5.886  18.744  0.00  0.00    +0.000 N 
ATOM      2  N   UNL     1       2.889   6.815  17.723  0.00  0.00    +0.000 NA
ATOM      3  N   UNL     1       2.456   7.982  17.880  0.00  0.00    +0.000 NA
ATOM      4  C   UNL     1       1.894   8.358  19.048  0.00  0.00    +0.000 A 
ATOM      5  C   UNL     1       1.328   9.521  19.544  0.00  0.00    +0.000 A 
ATOM      6  N   UNL     1       0.903   9.329  20.858  0.00  0.00    +0.000 NA
ATOM      7  C   UNL     1       1.196   8.075  21.127  0.00  0.00    +0.000 A 
ATOM      8  N   UNL     1       1.787   7.451  20.063  0.00  0.00    +0.000 N 
ATOM      9  C   UNL     1       2.207   6.139  19.970  0.00  0.00    +0.000 A 
ATOM     10  O   UNL     1       2.017   5.379  20.909  0.00  0.00    +0.000 OA
ENDROOT
BRANCH   5  11
ATOM     11  C   UNL     1       1.154  10.795  18.857  0.00  0.00    +0.000 C 
ATOM     12  N   UNL     1       2.055  10.992  17.850  0.00  0.00    +0.000 N 
ATOM     13  O   UNL     1       0.299  11.628  19.134  0.00  0.00    +0.000 OA
ATOM     14  H   UNL     1       2.754  10.283  17.661  0.00  0.00    +0.000 HD
ATOM     15  H   UNL     1       2.035  11.850  17.320  0.00  0.00    +0.000 HD
ENDBRANCH   5  11
BRANCH   1  16
ATOM     16  C   UNL     1       3.281   4.526  18.458  0.00  0.00    +0.000 C 
BRANCH  16  17
ATOM     17  C   UNL     1       4.691   4.523  17.868  0.00  0.00    +0.000 A 
ATOM     18  C   UNL     1       4.945   4.139  16.542  0.00  0.00    +0.000 A 
ATOM     19  C   UNL     1       6.242   4.173  16.019  0.00  0.00    +0.000 A 
ATOM     20  C   UNL     1       7.308   4.586  16.818  0.00  0.00    +0.000 A 
ATOM     21  C   UNL     1       7.076   4.952  18.141  0.00  0.00    +0.000 A 
ATOM     22  C   UNL     1       5.780   4.921  18.664  0.00  0.00    +0.000 A 
ENDBRANCH  16  17
BRANCH  16  24
ATOM     23  C   UNL     1       1.443   2.750  18.458  0.00  0.00    +0.000 C 
ATOM     24  C   UNL     1       2.285   3.702  17.614  0.00  0.00    +0.000 C 
ENDBRANCH  16  24
ENDBRANCH   1  16
TORSDOF 4
ENDMDL
MODEL 6
REMARK VINA RESULT:      -7.3      3.352      6.476
REMARK  Name = 
REMARK  5 active torsions:
REMARK  status: ('A' for Active; 'I' for Inactive)
REMARK    1  A    between atoms: C_1  and  C_2
REMARK    2  A    between atoms: C_2  and  C_3
REMARK    3  A    between atoms: C_3  and  C_4
REMARK    4  A    between atoms: C_3  and  N_10
REMARK    5  A    between atoms: C_14  and  C_15
REMARK                            x       y       z     vdW  Elec       q    Type
REMARK                         _______ _______ _______ _____ _____    ______ ____
ROOT
ATOM      1  N   UNL     1       2.811   5.975  18.742  0.00  0.00    +0.000 N 
ATOM      2  N   UNL     1       2.927   6.921  17.739  0.00  0.00    +0.000 NA
ATOM      3  N   UNL     1       2.495   8.086  17.905  0.00  0.00    +0.000 NA
ATOM      4  C   UNL     1       1.909   8.445  19.066  0.00  0.00    +0.000 A 
ATOM      5  C   UNL     1       1.335   9.601  19.569  0.00  0.00    +0.000 A 
ATOM      6  N   UNL     1       0.881   9.389  20.870  0.00  0.00    +0.000 NA
ATOM      7  C   UNL     1       1.164   8.130  21.124  0.00  0.00    +0.000 A 
ATOM      8  N   UNL     1       1.776   7.521  20.063  0.00  0.00    +0.000 N 
ATOM      9  C   UNL     1       2.194   6.210  19.959  0.00  0.00    +0.000 A 
ATOM     10  O   UNL     1       1.982   5.435  20.880  0.00  0.00    +0.000 OA
ENDROOT
BRANCH   5  11
ATOM     11  C   UNL     1       1.180  10.887  18.899  0.00  0.00    +0.000 C 
ATOM     12  N   UNL     1       2.012  11.041  17.828  0.00  0.00    +0.000 N 
ATOM     13  O   UNL     1       0.396  11.764  19.242  0.00  0.00    +0.000 OA
ATOM     14  H   UNL     1       2.655  10.296  17.585  0.00  0.00    +0.000 HD
ATOM     15  H   UNL     1       1.999  11.902  17.302  0.00  0.00    +0.000 HD
ENDBRANCH   5  11
BRANCH   1  16
ATOM     16  C   UNL     1       3.296   4.618  18.444  0.00  0.00    +0.000 C 
BRANCH  16  17
ATOM     17  C   UNL     1       4.716   4.621  17.878  0.00  0.00    +0.000 A 
ATOM     18  C   UNL     1       5.823   5.027  18.639  0.00  0.00    +0.000 A 
ATOM     19  C   UNL     1       7.116   4.993  18.106  0.00  0.00    +0.000 A 
ATOM     20  C   UNL     1       7.321   4.555  16.798  0.00  0.00    +0.000 A 
ATOM     21  C   UNL     1       6.232   4.165  16.023  0.00  0.00    +0.000 A 
ATOM     22  C   UNL     1       4.941   4.198  16.556  0.00  0.00    +0.000 A 
ENDBRANCH  16  17
BRANCH  16  24
ATOM     23  C   UNL     1       1.694   2.632  18.316  0.00  0.00    +0.000 C 
ATOM     24  C   UNL     1       2.314   3.810  17.570  0.00  0.00    +0.000 C 
ENDBRANCH  16  24
ENDBRANCH   1  16
TORSDOF 4
ENDMDL
MODEL 7
REMARK VINA RESULT:      -7.3      2.394      6.504
REMARK  Name = 
REMARK  5 active torsions:
REMARK  status: ('A' for Active; 'I' for Inactive)
REMARK    1  A    between atoms: C_1  and  C_2
REMARK    2  A    between atoms: C_2  and  C_3
REMARK    3  A    between atoms: C_3  and  C_4
REMARK    4  A    between atoms: C_3  and  N_10
REMARK    5  A    between atoms: C_14  and  C_15
REMARK                            x       y       z     vdW  Elec       q    Type
REMARK                         _______ _______ _______ _____ _____    ______ ____
ROOT
ATOM      1  N   UNL     1       5.094   5.564  17.878  0.00  0.00    +0.000 N 
ATOM      2  N   UNL     1       5.457   4.353  18.438  0.00  0.00    +0.000 NA
ATOM      3  N   UNL     1       4.726   3.799  19.294  0.00  0.00    +0.000 NA
ATOM      4  C   UNL     1       3.569   4.371  19.686  0.00  0.00    +0.000 A 
ATOM      5  C   UNL     1       2.561   4.052  20.581  0.00  0.00    +0.000 A 
ATOM      6  N   UNL     1       1.575   5.037  20.571  0.00  0.00    +0.000 NA
ATOM      7  C   UNL     1       2.000   5.929  19.702  0.00  0.00    +0.000 A 
ATOM      8  N   UNL     1       3.200   5.572  19.151  0.00  0.00    +0.000 N 
ATOM      9  C   UNL     1       3.954   6.268  18.228  0.00  0.00    +0.000 A 
ATOM     10  O   UNL     1       3.575   7.366  17.846  0.00  0.00    +0.000 OA
ENDROOT
BRANCH   5  11
ATOM     11  C   UNL     1       2.473   2.883  21.449  0.00  0.00    +0.000 C 
ATOM     12  N   UNL     1       3.543   2.043  21.333  0.00  0.00    +0.000 N 
ATOM     13  O   UNL     1       1.544   2.647  22.212  0.00  0.00    +0.000 OA
ATOM     14  H   UNL     1       4.286   2.269  20.681  0.00  0.00    +0.000 HD
ATOM     15  H   UNL     1       3.576   1.195  21.877  0.00  0.00    +0.000 HD
ENDBRANCH   5  11
BRANCH   1  16
ATOM     16  C   UNL     1       6.034   6.170  16.921  0.00  0.00    +0.000 C 
BRANCH  16  17
ATOM     17  C   UNL     1       6.143   5.365  15.626  0.00  0.00    +0.000 A 
ATOM     18  C   UNL     1       5.104   4.540  15.169  0.00  0.00    +0.000 A 
ATOM     19  C   UNL     1       5.220   3.837  13.965  0.00  0.00    +0.000 A 
ATOM     20  C   UNL     1       6.381   3.944  13.202  0.00  0.00    +0.000 A 
ATOM     21  C   UNL     1       7.429   4.744  13.649  0.00  0.00    +0.000 A 
ATOM     22  C   UNL     1       7.314   5.448  14.850  0.00  0.00    +0.000 A 
ENDBRANCH  16  17
BRANCH  16  24
ATOM     23  C   UNL     1       7.723   7.966  17.594  0.00  0.00    +0.000 C 
ATOM     24  C   UNL     1       7.412   6.473  17.546  0.00  0.00    +0.000 C 
ENDBRANCH  16  24
ENDBRANCH   1  16
TORSDOF 4
ENDMDL
MODEL 8
REMARK VINA RESULT:      -7.2      2.402      6.521
REMARK  Name = 
REMARK  5 active torsions:
REMARK  status: ('A' for Active; 'I' for Inactive)
REMARK    1  A    between atoms: C_1  and  C_2
REMARK    2  A    between atoms: C_2  and  C_3
REMARK    3  A    between atoms: C_3  and  C_4
REMARK    4  A    between atoms: C_3  and  N_10
REMARK    5  A    between atoms: C_14  and  C_15
REMARK                            x       y       z     vdW  Elec       q    Type
REMARK                         _______ _______ _______ _____ _____    ______ ____
ROOT
ATOM      1  N   UNL     1       5.088   5.560  17.933  0.00  0.00    +0.000 N 
ATOM      2  N   UNL     1       5.451   4.352  18.501  0.00  0.00    +0.000 NA
ATOM      3  N   UNL     1       4.711   3.795  19.347  0.00  0.00    +0.000 NA
ATOM      4  C   UNL     1       3.543   4.359  19.720  0.00  0.00    +0.000 A 
ATOM      5  C   UNL     1       2.523   4.035  20.599  0.00  0.00    +0.000 A 
ATOM      6  N   UNL     1       1.530   5.013  20.570  0.00  0.00    +0.000 NA
ATOM      7  C   UNL     1       1.962   5.905  19.707  0.00  0.00    +0.000 A 
ATOM      8  N   UNL     1       3.174   5.556  19.176  0.00  0.00    +0.000 N 
ATOM      9  C   UNL     1       3.937   6.256  18.263  0.00  0.00    +0.000 A 
ATOM     10  O   UNL     1       3.556   7.350  17.873  0.00  0.00    +0.000 OA
ENDROOT
BRANCH   5  11
ATOM     11  C   UNL     1       2.430   2.867  21.468  0.00  0.00    +0.000 C 
ATOM     12  N   UNL     1       1.171   2.650  21.947  0.00  0.00    +0.000 N 
ATOM     13  O   UNL     1       3.371   2.139  21.763  0.00  0.00    +0.000 OA
ATOM     14  H   UNL     1       0.423   3.284  21.689  0.00  0.00    +0.000 HD
ATOM     15  H   UNL     1       0.998   1.878  22.573  0.00  0.00    +0.000 HD
ENDBRANCH   5  11
BRANCH   1  16
ATOM     16  C   UNL     1       6.038   6.170  16.990  0.00  0.00    +0.000 C 
BRANCH  16  17
ATOM     17  C   UNL     1       6.142   5.387  15.682  0.00  0.00    +0.000 A 
ATOM     18  C   UNL     1       7.325   5.345  14.927  0.00  0.00    +0.000 A 
ATOM     19  C   UNL     1       7.401   4.597  13.747  0.00  0.00    +0.000 A 
ATOM     20  C   UNL     1       6.291   3.882  13.300  0.00  0.00    +0.000 A 
ATOM     21  C   UNL     1       5.104   3.926  14.027  0.00  0.00    +0.000 A 
ATOM     22  C   UNL     1       5.028   4.672  15.206  0.00  0.00    +0.000 A 
ENDBRANCH  16  17
BRANCH  16  24
ATOM     23  C   UNL     1       7.769   7.930  17.650  0.00  0.00    +0.000 C 
ATOM     24  C   UNL     1       7.418   6.446  17.625  0.00  0.00    +0.000 C 
ENDBRANCH  16  24
ENDBRANCH   1  16
TORSDOF 4
ENDMDL
MODEL 9
REMARK VINA RESULT:      -7.2      0.910      2.746
REMARK  Name = 
REMARK  5 active torsions:
REMARK  status: ('A' for Active; 'I' for Inactive)
REMARK    1  A    between atoms: C_1  and  C_2
REMARK    2  A    between atoms: C_2  and  C_3
REMARK    3  A    between atoms: C_3  and  C_4
REMARK    4  A    between atoms: C_3  and  N_10
REMARK    5  A    between atoms: C_14  and  C_15
REMARK                            x       y       z     vdW  Elec       q    Type
REMARK                         _______ _______ _______ _____ _____    ______ ____
ROOT
ATOM      1  N   UNL     1       3.783   4.408  18.310  0.00  0.00    +0.000 N 
ATOM      2  N   UNL     1       3.426   4.313  16.977  0.00  0.00    +0.000 NA
ATOM      3  N   UNL     1       4.301   4.332  16.078  0.00  0.00    +0.000 NA
ATOM      4  C   UNL     1       5.609   4.441  16.390  0.00  0.00    +0.000 A 
ATOM      5  C   UNL     1       6.795   4.497  15.678  0.00  0.00    +0.000 A 
ATOM      6  N   UNL     1       7.878   4.608  16.548  0.00  0.00    +0.000 NA
ATOM      7  C   UNL     1       7.342   4.636  17.749  0.00  0.00    +0.000 A 
ATOM      8  N   UNL     1       5.978   4.545  17.701  0.00  0.00    +0.000 N 
ATOM      9  C   UNL     1       5.085   4.565  18.753  0.00  0.00    +0.000 A 
ATOM     10  O   UNL     1       5.501   4.722  19.892  0.00  0.00    +0.000 OA
ENDROOT
BRANCH   5  11
ATOM     11  C   UNL     1       6.971   4.461  14.230  0.00  0.00    +0.000 C 
ATOM     12  N   UNL     1       6.325   3.417  13.634  0.00  0.00    +0.000 N 
ATOM     13  O   UNL     1       7.630   5.268  13.586  0.00  0.00    +0.000 OA
ATOM     14  H   UNL     1       5.800   2.764  14.205  0.00  0.00    +0.000 HD
ATOM     15  H   UNL     1       6.394   3.288  12.636  0.00  0.00    +0.000 HD
ENDBRANCH   5  11
BRANCH   1  16
ATOM     16  C   UNL     1       2.691   4.433  19.296  0.00  0.00    +0.000 C 
BRANCH  16  17
ATOM     17  C   UNL     1       2.241   5.855  19.629  0.00  0.00    +0.000 A 
ATOM     18  C   UNL     1       1.650   6.184  20.859  0.00  0.00    +0.000 A 
ATOM     19  C   UNL     1       1.274   7.500  21.147  0.00  0.00    +0.000 A 
ATOM     20  C   UNL     1       1.477   8.508  20.206  0.00  0.00    +0.000 A 
ATOM     21  C   UNL     1       2.045   8.197  18.974  0.00  0.00    +0.000 A 
ATOM     22  C   UNL     1       2.423   6.882  18.685  0.00  0.00    +0.000 A 
ENDBRANCH  16  17
BRANCH  16  24
ATOM     23  C   UNL     1       1.841   2.714  20.986  0.00  0.00    +0.000 C 
ATOM     24  C   UNL     1       3.006   3.602  20.559  0.00  0.00    +0.000 C 
ENDBRANCH  16  24
ENDBRANCH   1  16
TORSDOF 4
ENDMDL
