MODEL 1
REMARK VINA RESULT:      -7.8      0.000      0.000
REMARK  Name = 
REMARK  4 active torsions:
REMARK  status: ('A' for Active; 'I' for Inactive)
REMARK    1  A    between atoms: C_2  and  C_14
REMARK    2  A    between atoms: N_3  and  N_4
REMARK    3  A    between atoms: N_4  and  C_5
REMARK    4  A    between atoms: C_5  and  N_7
REMARK                            x       y       z     vdW  Elec       q    Type
REMARK                         _______ _______ _______ _____ _____    ______ ____
ROOT
ATOM      1  N   UNL     1       7.011   4.180  17.683  0.00  0.00    +0.000 N 
ATOM      2  C   UNL     1       6.248   4.901  16.782  0.00  0.00    +0.000 C 
ATOM      3  N   UNL     1       5.313   5.744  17.120  0.00  0.00    +0.000 NA
ATOM      4  H   UNL     1       7.172   4.665  18.559  0.00  0.00    +0.000 HD
ATOM      5  H   UNL     1       7.882   3.856  17.264  0.00  0.00    +0.000 HD
ENDROOT
BRANCH   2   6
ATOM      6  C   UNL     1       6.531   4.730  15.307  0.00  0.00    +0.000 A 
ATOM      7  C   UNL     1       5.786   3.827  14.547  0.00  0.00    +0.000 A 
ATOM      8  C   UNL     1       6.099   3.665  13.199  0.00  0.00    +0.000 A 
ATOM      9  C   UNL     1       7.139   4.412  12.664  0.00  0.00    +0.000 A 
ATOM     10  F   UNL     1       7.479   4.279  11.380  0.00  0.00    +0.000 F 
ATOM     11  C   UNL     1       7.825   5.299  13.485  0.00  0.00    +0.000 A 
ATOM     12  N   UNL     1       7.542   5.491  14.801  0.00  0.00    +0.000 NA
ENDBRANCH   2   6
BRANCH   3  13
ATOM     13  N   UNL     1       4.982   5.835  18.440  0.00  0.00    +0.000 N 
ATOM     14  H   UNL     1       5.611   5.355  19.072  0.00  0.00    +0.000 HD
BRANCH  13  15
ATOM     15  C   UNL     1       3.643   5.924  18.832  0.00  0.00    +0.000 C 
ATOM     16  S   UNL     1       2.670   7.264  18.512  0.00  0.00    +0.000 S 
BRANCH  15  17
ATOM     17  N   UNL     1       3.194   4.781  19.532  0.00  0.00    +0.000 N 
ATOM     18  C   UNL     1       3.806   3.471  19.302  0.00  0.00    +0.000 C 
ATOM     19  C   UNL     1       2.926   2.581  18.429  0.00  0.00    +0.000 C 
ATOM     20  C   UNL     1       1.737   1.966  19.161  0.00  0.00    +0.000 C 
ATOM     21  C   UNL     1       0.815   2.970  19.852  0.00  0.00    +0.000 C 
ATOM     22  C   UNL     1       1.476   3.664  21.042  0.00  0.00    +0.000 C 
ATOM     23  C   UNL     1       2.274   4.915  20.669  0.00  0.00    +0.000 C 
ENDBRANCH  15  17
ENDBRANCH  13  15
ENDBRANCH   3  13
TORSDOF 4
ENDMDL
MODEL 2
REMARK VINA RESULT:      -7.7      0.818      1.398
REMARK  Name = 
REMARK  4 active torsions:
REMARK  status: ('A' for Active; 'I' for Inactive)
REMARK    1  A    between atoms: C_2  and  C_14
REMARK    2  A    between atoms: N_3  and  N_4
REMARK    3  A    between atoms: N_4  and  C_5
REMARK    4  A    between atoms: C_5  and  N_7
REMARK                            x       y       z     vdW  Elec       q    Type
REMARK                         _______ _______ _______ _____ _____    ______ ____
ROOT
ATOM      1  N   UNL     1       7.122   4.317  17.502  0.00  0.00    +0.000 N 
ATOM      2  C   UNL     1       6.275   4.923  16.591  0.00  0.00    +0.000 C 
ATOM      3  N   UNL     1       5.262   5.676  16.918  0.00  0.00    +0.000 NA
ATOM      4  H   UNL     1       7.244   4.847  18.358  0.00  0.00    +0.000 HD
ATOM      5  H   UNL     1       8.015   4.071  17.078  0.00  0.00    +0.000 HD
ENDROOT
BRANCH   2   6
ATOM      6  C   UNL     1       6.553   4.732  15.117  0.00  0.00    +0.000 A 
ATOM      7  C   UNL     1       5.780   3.847  14.365  0.00  0.00    +0.000 A 
ATOM      8  C   UNL     1       6.088   3.664  13.018  0.00  0.00    +0.000 A 
ATOM      9  C   UNL     1       7.152   4.373  12.478  0.00  0.00    +0.000 A 
ATOM     10  F   UNL     1       7.488   4.219  11.195  0.00  0.00    +0.000 F 
ATOM     11  C   UNL     1       7.865   5.245  13.292  0.00  0.00    +0.000 A 
ATOM     12  N   UNL     1       7.589   5.456  14.606  0.00  0.00    +0.000 NA
ENDBRANCH   2   6
BRANCH   3  13
ATOM     13  N   UNL     1       4.942   5.778  18.240  0.00  0.00    +0.000 N 
ATOM     14  H   UNL     1       5.627   5.388  18.876  0.00  0.00    +0.000 HD
BRANCH  13  15
ATOM     15  C   UNL     1       3.607   5.743  18.652  0.00  0.00    +0.000 C 
ATOM     16  S   UNL     1       2.606   7.100  18.671  0.00  0.00    +0.000 S 
BRANCH  15  17
ATOM     17  N   UNL     1       3.188   4.456  19.061  0.00  0.00    +0.000 N 
ATOM     18  C   UNL     1       1.818   4.000  18.818  0.00  0.00    +0.000 C 
ATOM     19  C   UNL     1       0.971   4.057  20.086  0.00  0.00    +0.000 C 
ATOM     20  C   UNL     1       1.239   2.922  21.069  0.00  0.00    +0.000 C 
ATOM     21  C   UNL     1       2.696   2.781  21.509  0.00  0.00    +0.000 C 
ATOM     22  C   UNL     1       3.618   2.322  20.380  0.00  0.00    +0.000 C 
ATOM     23  C   UNL     1       4.167   3.463  19.521  0.00  0.00    +0.000 C 
ENDBRANCH  15  17
ENDBRANCH  13  15
ENDBRANCH   3  13
TORSDOF 4
ENDMDL
MODEL 3
REMARK VINA RESULT:      -7.5      0.923      1.526
REMARK  Name = 
REMARK  4 active torsions:
REMARK  status: ('A' for Active; 'I' for Inactive)
REMARK    1  A    between atoms: C_2  and  C_14
REMARK    2  A    between atoms: N_3  and  N_4
REMARK    3  A    between atoms: N_4  and  C_5
REMARK    4  A    between atoms: C_5  and  N_7
REMARK                            x       y       z     vdW  Elec       q    Type
REMARK                         _______ _______ _______ _____ _____    ______ ____
ROOT
ATOM      1  N   UNL     1       6.317   4.008  17.918  0.00  0.00    +0.000 N 
ATOM      2  C   UNL     1       5.664   4.766  16.963  0.00  0.00    +0.000 C 
ATOM      3  N   UNL     1       4.690   5.594  17.220  0.00  0.00    +0.000 NA
ATOM      4  H   UNL     1       6.368   4.456  18.826  0.00  0.00    +0.000 HD
ATOM      5  H   UNL     1       7.233   3.703  17.594  0.00  0.00    +0.000 HD
ENDROOT
BRANCH   2   6
ATOM      6  C   UNL     1       6.125   4.659  15.526  0.00  0.00    +0.000 A 
ATOM      7  C   UNL     1       5.454   3.822  14.633  0.00  0.00    +0.000 A 
ATOM      8  C   UNL     1       5.928   3.715  13.328  0.00  0.00    +0.000 A 
ATOM      9  C   UNL     1       7.050   4.449  12.966  0.00  0.00    +0.000 A 
ATOM     10  F   UNL     1       7.544   4.367  11.728  0.00  0.00    +0.000 F 
ATOM     11  C   UNL     1       7.654   5.268  13.912  0.00  0.00    +0.000 A 
ATOM     12  N   UNL     1       7.215   5.405  15.191  0.00  0.00    +0.000 NA
ENDBRANCH   2   6
BRANCH   3  13
ATOM     13  N   UNL     1       4.202   5.629  18.492  0.00  0.00    +0.000 N 
ATOM     14  H   UNL     1       4.562   4.911  19.108  0.00  0.00    +0.000 HD
BRANCH  13  15
ATOM     15  C   UNL     1       2.902   6.078  18.741  0.00  0.00    +0.000 C 
ATOM     16  S   UNL     1       2.433   7.692  18.596  0.00  0.00    +0.000 S 
BRANCH  15  17
ATOM     17  N   UNL     1       2.025   5.042  19.138  0.00  0.00    +0.000 N 
ATOM     18  C   UNL     1       1.453   5.017  20.486  0.00  0.00    +0.000 C 
ATOM     19  C   UNL     1       2.152   3.995  21.377  0.00  0.00    +0.000 C 
ATOM     20  C   UNL     1       1.743   2.549  21.111  0.00  0.00    +0.000 C 
ATOM     21  C   UNL     1       1.925   2.084  19.667  0.00  0.00    +0.000 C 
ATOM     22  C   UNL     1       0.966   2.770  18.694  0.00  0.00    +0.000 C 
ATOM     23  C   UNL     1       1.482   4.103  18.149  0.00  0.00    +0.000 C 
ENDBRANCH  15  17
ENDBRANCH  13  15
ENDBRANCH   3  13
TORSDOF 4
ENDMDL
MODEL 4
REMARK VINA RESULT:      -7.2      1.407      1.431
REMARK  Name = 
REMARK  4 active torsions:
REMARK  status: ('A' for Active; 'I' for Inactive)
REMARK    1  A    between atoms: C_2  and  C_14
REMARK    2  A    between atoms: N_3  and  N_4
REMARK    3  A    between atoms: N_4  and  C_5
REMARK    4  A    between atoms: C_5  and  N_7
REMARK                            x       y       z     vdW  Elec       q    Type
REMARK                         _______ _______ _______ _____ _____    ______ ____
ROOT
ATOM      1  N   UNL     1       6.481   6.781  16.317  0.00  0.00    +0.000 N 
ATOM      2  C   UNL     1       5.783   5.676  15.862  0.00  0.00    +0.000 C 
ATOM      3  N   UNL     1       4.748   5.161  16.464  0.00  0.00    +0.000 NA
ATOM      4  H   UNL     1       5.904   7.448  16.816  0.00  0.00    +0.000 HD
ATOM      5  H   UNL     1       7.012   7.224  15.569  0.00  0.00    +0.000 HD
ENDROOT
BRANCH   2   6
ATOM      6  C   UNL     1       6.223   5.036  14.564  0.00  0.00    +0.000 A 
ATOM      7  C   UNL     1       5.446   4.039  13.973  0.00  0.00    +0.000 A 
ATOM      8  C   UNL     1       5.900   3.442  12.799  0.00  0.00    +0.000 A 
ATOM      9  C   UNL     1       7.108   3.865  12.262  0.00  0.00    +0.000 A 
ATOM     10  F   UNL     1       7.585   3.311  11.145  0.00  0.00    +0.000 F 
ATOM     11  C   UNL     1       7.817   4.872  12.906  0.00  0.00    +0.000 A 
ATOM     12  N   UNL     1       7.402   5.484  14.047  0.00  0.00    +0.000 NA
ENDBRANCH   2   6
BRANCH   3  13
ATOM     13  N   UNL     1       4.401   5.667  17.682  0.00  0.00    +0.000 N 
ATOM     14  H   UNL     1       4.265   6.670  17.704  0.00  0.00    +0.000 HD
BRANCH  13  15
ATOM     15  C   UNL     1       4.861   5.067  18.857  0.00  0.00    +0.000 C 
ATOM     16  S   UNL     1       6.431   5.260  19.445  0.00  0.00    +0.000 S 
BRANCH  15  17
ATOM     17  N   UNL     1       3.879   4.274  19.494  0.00  0.00    +0.000 N 
ATOM     18  C   UNL     1       4.027   2.820  19.577  0.00  0.00    +0.000 C 
ATOM     19  C   UNL     1       3.135   2.103  18.568  0.00  0.00    +0.000 C 
ATOM     20  C   UNL     1       1.665   2.038  18.967  0.00  0.00    +0.000 C 
ATOM     21  C   UNL     1       1.015   3.390  19.259  0.00  0.00    +0.000 C 
ATOM     22  C   UNL     1       1.562   4.054  20.523  0.00  0.00    +0.000 C 
ATOM     23  C   UNL     1       2.815   4.899  20.289  0.00  0.00    +0.000 C 
ENDBRANCH  15  17
ENDBRANCH  13  15
ENDBRANCH   3  13
TORSDOF 4
ENDMDL
MODEL 5
REMARK VINA RESULT:      -7.1      1.389      1.866
REMARK  Name = 
REMARK  4 active torsions:
REMARK  status: ('A' for Active; 'I' for Inactive)
REMARK    1  A    between atoms: C_2  and  C_14
REMARK    2  A    between atoms: N_3  and  N_4
REMARK    3  A    between atoms: N_4  and  C_5
REMARK    4  A    between atoms: C_5  and  N_7
REMARK                            x       y       z     vdW  Elec       q    Type
REMARK                         _______ _______ _______ _____ _____    ______ ____
ROOT
ATOM      1  N   UNL     1       6.564   5.053  19.115  0.00  0.00    +0.000 N 
ATOM      2  C   UNL     1       5.597   5.271  18.150  0.00  0.00    +0.000 C 
ATOM      3  N   UNL     1       4.390   5.696  18.400  0.00  0.00    +0.000 NA
ATOM      4  H   UNL     1       6.489   5.674  19.912  0.00  0.00    +0.000 HD
ATOM      5  H   UNL     1       7.501   5.059  18.716  0.00  0.00    +0.000 HD
ENDROOT
BRANCH   2   6
ATOM      6  C   UNL     1       5.964   5.035  16.702  0.00  0.00    +0.000 A 
ATOM      7  C   UNL     1       5.017   4.533  15.809  0.00  0.00    +0.000 A 
ATOM      8  C   UNL     1       5.399   4.289  14.492  0.00  0.00    +0.000 A 
ATOM      9  C   UNL     1       6.709   4.557  14.119  0.00  0.00    +0.000 A 
ATOM     10  F   UNL     1       7.120   4.327  12.869  0.00  0.00    +0.000 F 
ATOM     11  C   UNL     1       7.589   5.067  15.066  0.00  0.00    +0.000 A 
ATOM     12  N   UNL     1       7.250   5.326  16.357  0.00  0.00    +0.000 NA
ENDBRANCH   2   6
BRANCH   3  13
ATOM     13  N   UNL     1       4.016   5.820  19.706  0.00  0.00    +0.000 N 
ATOM     14  H   UNL     1       4.758   5.671  20.379  0.00  0.00    +0.000 HD
BRANCH  13  15
ATOM     15  C   UNL     1       2.722   5.478  20.109  0.00  0.00    +0.000 C 
ATOM     16  S   UNL     1       1.653   6.571  20.823  0.00  0.00    +0.000 S 
BRANCH  15  17
ATOM     17  N   UNL     1       2.407   4.121  19.866  0.00  0.00    +0.000 N 
ATOM     18  C   UNL     1       3.106   3.049  20.578  0.00  0.00    +0.000 C 
ATOM     19  C   UNL     1       4.152   2.374  19.696  0.00  0.00    +0.000 C 
ATOM     20  C   UNL     1       3.574   1.402  18.673  0.00  0.00    +0.000 C 
ATOM     21  C   UNL     1       2.519   1.997  17.742  0.00  0.00    +0.000 C 
ATOM     22  C   UNL     1       1.222   2.358  18.465  0.00  0.00    +0.000 C 
ATOM     23  C   UNL     1       1.222   3.759  19.080  0.00  0.00    +0.000 C 
ENDBRANCH  15  17
ENDBRANCH  13  15
ENDBRANCH   3  13
TORSDOF 4
ENDMDL
MODEL 6
REMARK VINA RESULT:      -7.1      1.282      1.674
REMARK  Name = 
REMARK  4 active torsions:
REMARK  status: ('A' for Active; 'I' for Inactive)
REMARK    1  A    between atoms: C_2  and  C_14
REMARK    2  A    between atoms: N_3  and  N_4
REMARK    3  A    between atoms: N_4  and  C_5
REMARK    4  A    between atoms: C_5  and  N_7
REMARK                            x       y       z     vdW  Elec       q    Type
REMARK                         _______ _______ _______ _____ _____    ______ ____
ROOT
ATOM      1  N   UNL     1       7.618   5.032  16.920  0.00  0.00    +0.000 N 
ATOM      2  C   UNL     1       6.641   4.505  16.094  0.00  0.00    +0.000 C 
ATOM      3  N   UNL     1       5.531   3.968  16.518  0.00  0.00    +0.000 NA
ATOM      4  H   UNL     1       7.253   5.430  17.778  0.00  0.00    +0.000 HD
ATOM      5  H   UNL     1       8.217   5.688  16.422  0.00  0.00    +0.000 HD
ENDROOT
BRANCH   2   6
ATOM      6  C   UNL     1       6.850   4.581  14.598  0.00  0.00    +0.000 A 
ATOM      7  C   UNL     1       6.093   3.782  13.741  0.00  0.00    +0.000 A 
ATOM      8  C   UNL     1       6.339   3.847  12.371  0.00  0.00    +0.000 A 
ATOM      9  C   UNL     1       7.326   4.708  11.913  0.00  0.00    +0.000 A 
ATOM     10  F   UNL     1       7.601   4.793  10.609  0.00  0.00    +0.000 F 
ATOM     11  C   UNL     1       8.027   5.480  12.832  0.00  0.00    +0.000 A 
ATOM     12  N   UNL     1       7.810   5.450  14.173  0.00  0.00    +0.000 NA
ENDBRANCH   2   6
BRANCH   3  13
ATOM     13  N   UNL     1       5.374   3.805  17.863  0.00  0.00    +0.000 N 
ATOM     14  H   UNL     1       5.714   2.924  18.229  0.00  0.00    +0.000 HD
BRANCH  13  15
ATOM     15  C   UNL     1       4.290   4.387  18.526  0.00  0.00    +0.000 C 
ATOM     16  S   UNL     1       3.972   6.043  18.508  0.00  0.00    +0.000 S 
BRANCH  15  17
ATOM     17  N   UNL     1       3.497   3.445  19.223  0.00  0.00    +0.000 N 
ATOM     18  C   UNL     1       2.184   3.047  18.712  0.00  0.00    +0.000 C 
ATOM     19  C   UNL     1       1.051   3.719  19.481  0.00  0.00    +0.000 C 
ATOM     20  C   UNL     1       0.774   3.106  20.850  0.00  0.00    +0.000 C 
ATOM     21  C   UNL     1       1.979   3.049  21.787  0.00  0.00    +0.000 C 
ATOM     22  C   UNL     1       3.054   2.068  21.317  0.00  0.00    +0.000 C 
ATOM     23  C   UNL     1       4.061   2.673  20.336  0.00  0.00    +0.000 C 
ENDBRANCH  15  17
ENDBRANCH  13  15
ENDBRANCH   3  13
TORSDOF 4
ENDMDL
MODEL 7
REMARK VINA RESULT:      -7.0      1.282      1.953
REMARK  Name = 
REMARK  4 active torsions:
REMARK  status: ('A' for Active; 'I' for Inactive)
REMARK    1  A    between atoms: C_2  and  C_14
REMARK    2  A    between atoms: N_3  and  N_4
REMARK    3  A    between atoms: N_4  and  C_5
REMARK    4  A    between atoms: C_5  and  N_7
REMARK                            x       y       z     vdW  Elec       q    Type
REMARK                         _______ _______ _______ _____ _____    ______ ____
ROOT
ATOM      1  N   UNL     1       4.923   3.239  17.549  0.00  0.00    +0.000 N 
ATOM      2  C   UNL     1       5.187   4.446  16.926  0.00  0.00    +0.000 C 
ATOM      3  N   UNL     1       4.946   5.614  17.453  0.00  0.00    +0.000 NA
ATOM      4  H   UNL     1       5.009   3.277  18.559  0.00  0.00    +0.000 HD
ATOM      5  H   UNL     1       5.475   2.481  17.150  0.00  0.00    +0.000 HD
ENDROOT
BRANCH   2   6
ATOM      6  C   UNL     1       5.827   4.419  15.556  0.00  0.00    +0.000 A 
ATOM      7  C   UNL     1       7.022   5.101  15.325  0.00  0.00    +0.000 A 
ATOM      8  C   UNL     1       7.564   5.090  14.041  0.00  0.00    +0.000 A 
ATOM      9  C   UNL     1       6.893   4.397  13.043  0.00  0.00    +0.000 A 
ATOM     10  F   UNL     1       7.372   4.370  11.796  0.00  0.00    +0.000 F 
ATOM     11  C   UNL     1       5.714   3.733  13.358  0.00  0.00    +0.000 A 
ATOM     12  N   UNL     1       5.160   3.715  14.599  0.00  0.00    +0.000 NA
ENDBRANCH   2   6
BRANCH   3  13
ATOM     13  N   UNL     1       4.282   5.652  18.643  0.00  0.00    +0.000 N 
ATOM     14  H   UNL     1       4.557   4.940  19.309  0.00  0.00    +0.000 HD
BRANCH  13  15
ATOM     15  C   UNL     1       2.957   6.092  18.703  0.00  0.00    +0.000 C 
ATOM     16  S   UNL     1       2.487   7.674  18.353  0.00  0.00    +0.000 S 
BRANCH  15  17
ATOM     17  N   UNL     1       2.055   5.077  19.097  0.00  0.00    +0.000 N 
ATOM     18  C   UNL     1       1.469   5.073  20.439  0.00  0.00    +0.000 C 
ATOM     19  C   UNL     1       2.137   4.042  21.344  0.00  0.00    +0.000 C 
ATOM     20  C   UNL     1       1.700   2.604  21.083  0.00  0.00    +0.000 C 
ATOM     21  C   UNL     1       1.886   2.125  19.644  0.00  0.00    +0.000 C 
ATOM     22  C   UNL     1       0.952   2.826  18.657  0.00  0.00    +0.000 C 
ATOM     23  C   UNL     1       1.502   4.144  18.108  0.00  0.00    +0.000 C 
ENDBRANCH  15  17
ENDBRANCH  13  15
ENDBRANCH   3  13
TORSDOF 4
ENDMDL
MODEL 8
REMARK VINA RESULT:      -7.0      1.460      1.982
REMARK  Name = 
REMARK  4 active torsions:
REMARK  status: ('A' for Active; 'I' for Inactive)
REMARK    1  A    between atoms: C_2  and  C_14
REMARK    2  A    between atoms: N_3  and  N_4
REMARK    3  A    between atoms: N_4  and  C_5
REMARK    4  A    between atoms: C_5  and  N_7
REMARK                            x       y       z     vdW  Elec       q    Type
REMARK                         _______ _______ _______ _____ _____    ______ ____
ROOT
ATOM      1  N   UNL     1       7.380   6.045  16.621  0.00  0.00    +0.000 N 
ATOM      2  C   UNL     1       6.294   5.717  15.829  0.00  0.00    +0.000 C 
ATOM      3  N   UNL     1       5.054   5.972  16.140  0.00  0.00    +0.000 NA
ATOM      4  H   UNL     1       7.243   6.887  17.169  0.00  0.00    +0.000 HD
ATOM      5  H   UNL     1       8.242   6.081  16.079  0.00  0.00    +0.000 HD
ENDROOT
BRANCH   2   6
ATOM      6  C   UNL     1       6.554   5.047  14.499  0.00  0.00    +0.000 A 
ATOM      7  C   UNL     1       5.724   4.016  14.057  0.00  0.00    +0.000 A 
ATOM      8  C   UNL     1       6.015   3.393  12.845  0.00  0.00    +0.000 A 
ATOM      9  C   UNL     1       7.119   3.826  12.123  0.00  0.00    +0.000 A 
ATOM     10  F   UNL     1       7.440   3.248  10.963  0.00  0.00    +0.000 F 
ATOM     11  C   UNL     1       7.888   4.867  12.627  0.00  0.00    +0.000 A 
ATOM     12  N   UNL     1       7.631   5.505  13.800  0.00  0.00    +0.000 NA
ENDBRANCH   2   6
BRANCH   3  13
ATOM     13  N   UNL     1       4.799   6.486  17.377  0.00  0.00    +0.000 N 
ATOM     14  H   UNL     1       5.264   7.363  17.580  0.00  0.00    +0.000 HD
BRANCH  13  15
ATOM     15  C   UNL     1       4.552   5.640  18.461  0.00  0.00    +0.000 C 
ATOM     16  S   UNL     1       5.759   5.087  19.502  0.00  0.00    +0.000 S 
BRANCH  15  17
ATOM     17  N   UNL     1       3.188   5.286  18.588  0.00  0.00    +0.000 N 
ATOM     18  C   UNL     1       2.320   5.975  19.545  0.00  0.00    +0.000 C 
ATOM     19  C   UNL     1       2.068   5.128  20.789  0.00  0.00    +0.000 C 
ATOM     20  C   UNL     1       1.057   4.004  20.587  0.00  0.00    +0.000 C 
ATOM     21  C   UNL     1       1.384   3.040  19.447  0.00  0.00    +0.000 C 
ATOM     22  C   UNL     1       1.276   3.689  18.068  0.00  0.00    +0.000 C 
ATOM     23  C   UNL     1       2.555   4.394  17.610  0.00  0.00    +0.000 C 
ENDBRANCH  15  17
ENDBRANCH  13  15
ENDBRANCH   3  13
TORSDOF 4
ENDMDL
MODEL 9
REMARK VINA RESULT:      -6.8      0.881      1.245
REMARK  Name = 
REMARK  4 active torsions:
REMARK  status: ('A' for Active; 'I' for Inactive)
REMARK    1  A    between atoms: C_2  and  C_14
REMARK    2  A    between atoms: N_3  and  N_4
REMARK    3  A    between atoms: N_4  and  C_5
REMARK    4  A    between atoms: C_5  and  N_7
REMARK                            x       y       z     vdW  Elec       q    Type
REMARK                         _______ _______ _______ _____ _____    ______ ____
ROOT
ATOM      1  N   UNL     1       6.869   4.287  18.172  0.00  0.00    +0.000 N 
ATOM      2  C   UNL     1       6.014   4.874  17.257  0.00  0.00    +0.000 C 
ATOM      3  N   UNL     1       5.009   5.641  17.576  0.00  0.00    +0.000 NA
ATOM      4  H   UNL     1       7.004   4.838  19.013  0.00  0.00    +0.000 HD
ATOM      5  H   UNL     1       7.755   4.025  17.744  0.00  0.00    +0.000 HD
ENDROOT
BRANCH   2   6
ATOM      6  C   UNL     1       6.272   4.644  15.785  0.00  0.00    +0.000 A 
ATOM      7  C   UNL     1       7.418   5.163  15.182  0.00  0.00    +0.000 A 
ATOM      8  C   UNL     1       7.606   4.967  13.816  0.00  0.00    +0.000 A 
ATOM      9  C   UNL     1       6.645   4.259  13.108  0.00  0.00    +0.000 A 
ATOM     10  F   UNL     1       6.780   4.058  11.795  0.00  0.00    +0.000 F 
ATOM     11  C   UNL     1       5.537   3.764  13.785  0.00  0.00    +0.000 A 
ATOM     12  N   UNL     1       5.324   3.928  15.117  0.00  0.00    +0.000 NA
ENDBRANCH   2   6
BRANCH   3  13
ATOM     13  N   UNL     1       4.706   5.779  18.899  0.00  0.00    +0.000 N 
ATOM     14  H   UNL     1       5.361   5.339  19.535  0.00  0.00    +0.000 HD
BRANCH  13  15
ATOM     15  C   UNL     1       3.376   5.854  19.319  0.00  0.00    +0.000 C 
ATOM     16  S   UNL     1       2.477   7.283  19.303  0.00  0.00    +0.000 S 
BRANCH  15  17
ATOM     17  N   UNL     1       2.865   4.614  19.767  0.00  0.00    +0.000 N 
ATOM     18  C   UNL     1       3.690   3.405  19.730  0.00  0.00    +0.000 C 
ATOM     19  C   UNL     1       3.307   2.496  18.566  0.00  0.00    +0.000 C 
ATOM     20  C   UNL     1       2.031   1.693  18.792  0.00  0.00    +0.000 C 
ATOM     21  C   UNL     1       0.797   2.526  19.135  0.00  0.00    +0.000 C 
ATOM     22  C   UNL     1       0.889   3.191  20.508  0.00  0.00    +0.000 C 
ATOM     23  C   UNL     1       1.591   4.551  20.494  0.00  0.00    +0.000 C 
ENDBRANCH  15  17
ENDBRANCH  13  15
ENDBRANCH   3  13
TORSDOF 4
ENDMDL
