MODEL 1
REMARK VINA RESULT:      -3.3      0.000      0.000
REMARK  Name = 
REMARK  0 active torsions:
REMARK  status: ('A' for Active; 'I' for Inactive)
REMARK                            x       y       z     vdW  Elec       q    Type
REMARK                         _______ _______ _______ _____ _____    ______ ____
ROOT
ATOM      1  O   UNL     1       7.937   5.494  14.075  0.00  0.00    +0.000 OA
ATOM      2 SE   UNL     1       6.904   4.971  15.244  0.00  0.00    +0.000 Se
ATOM      3  O   UNL     1       6.190   3.652  14.569  0.00  0.00    +0.000 OA
ATOM      4  O   UNL     1       7.876   4.443  16.712  0.00  0.00    +0.000 OA
ATOM      5  O   UNL     1       5.628   6.260  15.539  0.00  0.00    +0.000 OA
ENDROOT
TORSDOF 0
ENDMDL
MODEL 2
REMARK VINA RESULT:      -3.3      0.035      2.562
REMARK  Name = 
REMARK  0 active torsions:
REMARK  status: ('A' for Active; 'I' for Inactive)
REMARK                            x       y       z     vdW  Elec       q    Type
REMARK                         _______ _______ _______ _____ _____    ______ ____
ROOT
ATOM      1  O   UNL     1       6.152   3.689  14.563  0.00  0.00    +0.000 OA
ATOM      2 SE   UNL     1       6.889   4.994  15.243  0.00  0.00    +0.000 Se
ATOM      3  O   UNL     1       7.924   5.507  14.073  0.00  0.00    +0.000 OA
ATOM      4  O   UNL     1       5.635   6.299  15.552  0.00  0.00    +0.000 OA
ATOM      5  O   UNL     1       7.859   4.441  16.703  0.00  0.00    +0.000 OA
ENDROOT
TORSDOF 0
ENDMDL
MODEL 3
REMARK VINA RESULT:      -3.3      0.201      2.302
REMARK  Name = 
REMARK  0 active torsions:
REMARK  status: ('A' for Active; 'I' for Inactive)
REMARK                            x       y       z     vdW  Elec       q    Type
REMARK                         _______ _______ _______ _____ _____    ______ ____
ROOT
ATOM      1  O   UNL     1       5.856   6.039  15.623  0.00  0.00    +0.000 OA
ATOM      2 SE   UNL     1       7.005   4.928  15.232  0.00  0.00    +0.000 Se
ATOM      3  O   UNL     1       6.133   3.647  14.680  0.00  0.00    +0.000 OA
ATOM      4  O   UNL     1       8.039   5.587  13.864  0.00  0.00    +0.000 OA
ATOM      5  O   UNL     1       7.902   4.430  16.757  0.00  0.00    +0.000 OA
ENDROOT
TORSDOF 0
ENDMDL
MODEL 4
REMARK VINA RESULT:      -3.3      0.201      2.154
REMARK  Name = 
REMARK  0 active torsions:
REMARK  status: ('A' for Active; 'I' for Inactive)
REMARK                            x       y       z     vdW  Elec       q    Type
REMARK                         _______ _______ _______ _____ _____    ______ ____
ROOT
ATOM      1  O   UNL     1       6.118   3.643  14.710  0.00  0.00    +0.000 OA
ATOM      2 SE   UNL     1       6.999   4.929  15.238  0.00  0.00    +0.000 Se
ATOM      3  O   UNL     1       5.857   6.052  15.614  0.00  0.00    +0.000 OA
ATOM      4  O   UNL     1       7.901   4.453  16.766  0.00  0.00    +0.000 OA
ATOM      5  O   UNL     1       8.029   5.560  13.853  0.00  0.00    +0.000 OA
ENDROOT
TORSDOF 0
ENDMDL
MODEL 5
REMARK VINA RESULT:      -3.3      0.216      2.317
REMARK  Name = 
REMARK  0 active torsions:
REMARK  status: ('A' for Active; 'I' for Inactive)
REMARK                            x       y       z     vdW  Elec       q    Type
REMARK                         _______ _______ _______ _____ _____    ______ ____
ROOT
ATOM      1  O   UNL     1       8.012   5.632  14.117  0.00  0.00    +0.000 OA
ATOM      2 SE   UNL     1       6.962   4.926  15.170  0.00  0.00    +0.000 Se
ATOM      3  O   UNL     1       5.917   6.138  15.547  0.00  0.00    +0.000 OA
ATOM      4  O   UNL     1       6.047   3.591  14.302  0.00  0.00    +0.000 OA
ATOM      5  O   UNL     1       7.876   4.428  16.685  0.00  0.00    +0.000 OA
ENDROOT
TORSDOF 0
ENDMDL
MODEL 6
REMARK VINA RESULT:      -3.2      0.315      2.159
REMARK  Name = 
REMARK  0 active torsions:
REMARK  status: ('A' for Active; 'I' for Inactive)
REMARK                            x       y       z     vdW  Elec       q    Type
REMARK                         _______ _______ _______ _____ _____    ______ ____
ROOT
ATOM      1  O   UNL     1       5.901   6.143  15.349  0.00  0.00    +0.000 OA
ATOM      2 SE   UNL     1       6.957   4.929  15.001  0.00  0.00    +0.000 Se
ATOM      3  O   UNL     1       8.037   5.635  13.982  0.00  0.00    +0.000 OA
ATOM      4  O   UNL     1       7.822   4.426  16.541  0.00  0.00    +0.000 OA
ATOM      5  O   UNL     1       6.065   3.597  14.102  0.00  0.00    +0.000 OA
ENDROOT
TORSDOF 0
ENDMDL
MODEL 7
REMARK VINA RESULT:      -3.2      1.327      1.886
REMARK  Name = 
REMARK  0 active torsions:
REMARK  status: ('A' for Active; 'I' for Inactive)
REMARK                            x       y       z     vdW  Elec       q    Type
REMARK                         _______ _______ _______ _____ _____    ______ ____
ROOT
ATOM      1  O   UNL     1       7.124   6.844  16.665  0.00  0.00    +0.000 OA
ATOM      2 SE   UNL     1       6.996   5.287  16.149  0.00  0.00    +0.000 Se
ATOM      3  O   UNL     1       7.596   5.335  14.618  0.00  0.00    +0.000 OA
ATOM      4  O   UNL     1       8.075   4.220  17.184  0.00  0.00    +0.000 OA
ATOM      5  O   UNL     1       5.220   4.820  16.083  0.00  0.00    +0.000 OA
ENDROOT
TORSDOF 0
ENDMDL
MODEL 8
REMARK VINA RESULT:      -3.2      1.176      2.646
REMARK  Name = 
REMARK  0 active torsions:
REMARK  status: ('A' for Active; 'I' for Inactive)
REMARK                            x       y       z     vdW  Elec       q    Type
REMARK                         _______ _______ _______ _____ _____    ______ ____
ROOT
ATOM      1  O   UNL     1       7.611   5.411  14.559  0.00  0.00    +0.000 OA
ATOM      2 SE   UNL     1       6.891   5.239  16.029  0.00  0.00    +0.000 Se
ATOM      3  O   UNL     1       6.716   6.786  16.559  0.00  0.00    +0.000 OA
ATOM      4  O   UNL     1       5.230   4.490  15.801  0.00  0.00    +0.000 OA
ATOM      5  O   UNL     1       8.035   4.345  17.156  0.00  0.00    +0.000 OA
ENDROOT
TORSDOF 0
ENDMDL
MODEL 9
REMARK VINA RESULT:      -3.2      1.348      2.325
REMARK  Name = 
REMARK  0 active torsions:
REMARK  status: ('A' for Active; 'I' for Inactive)
REMARK                            x       y       z     vdW  Elec       q    Type
REMARK                         _______ _______ _______ _____ _____    ______ ____
ROOT
ATOM      1  O   UNL     1       7.960   4.367  17.016  0.00  0.00    +0.000 OA
ATOM      2 SE   UNL     1       6.954   5.341  16.152  0.00  0.00    +0.000 Se
ATOM      3  O   UNL     1       7.590   5.308  14.636  0.00  0.00    +0.000 OA
ATOM      4  O   UNL     1       5.276   4.594  16.117  0.00  0.00    +0.000 OA
ATOM      5  O   UNL     1       7.065   7.053  16.812  0.00  0.00    +0.000 OA
ENDROOT
TORSDOF 0
ENDMDL
