MODEL 1
REMARK VINA RESULT:      -7.9      0.000      0.000
REMARK  Name = 
REMARK  2 active torsions:
REMARK  status: ('A' for Active; 'I' for Inactive)
REMARK    1  A    between atoms: C_1  and  C_2
REMARK    2  A    between atoms: C_7  and  N_8
REMARK                            x       y       z     vdW  Elec       q    Type
REMARK                         _______ _______ _______ _____ _____    ______ ____
ROOT
ATOM      1  C   UNL     1       7.514   4.475  12.321  0.00  0.00    +0.000 C 
ATOM      2  C   UNL     1       6.993   4.711  13.694  0.00  0.00    +0.000 A 
ATOM      3  N   UNL     1       7.634   5.369  14.637  0.00  0.00    +0.000 NA
ATOM      4  C   UNL     1       6.863   5.410  15.788  0.00  0.00    +0.000 A 
ATOM      5  C   UNL     1       7.203   6.033  17.005  0.00  0.00    +0.000 A 
ATOM      6  C   UNL     1       6.298   6.013  18.079  0.00  0.00    +0.000 A 
ATOM      7  C   UNL     1       5.056   5.376  17.978  0.00  0.00    +0.000 A 
ATOM      8  C   UNL     1       4.735   4.728  16.775  0.00  0.00    +0.000 A 
ATOM      9  C   UNL     1       5.633   4.764  15.698  0.00  0.00    +0.000 A 
ATOM     10  S   UNL     1       5.453   4.094  14.126  0.00  0.00    +0.000 S 
ENDROOT
BRANCH   7  11
ATOM     11  N   UNL     1       4.133   5.488  19.041  0.00  0.00    +0.000 N 
ATOM     12  C   UNL     1       3.194   4.544  19.428  0.00  0.00    +0.000 C 
ATOM     13  N   UNL     1       2.930   3.522  18.695  0.00  0.00    +0.000 NA
ATOM     14  C   UNL     1       2.022   2.422  18.913  0.00  0.00    +0.000 C 
ATOM     15  C   UNL     1       0.787   2.751  19.724  0.00  0.00    +0.000 C 
ATOM     16  C   UNL     1       1.075   2.776  21.221  0.00  0.00    +0.000 C 
ATOM     17  C   UNL     1       2.290   3.614  21.616  0.00  0.00    +0.000 C 
ATOM     18  C   UNL     1       2.476   4.846  20.743  0.00  0.00    +0.000 C 
ATOM     19  H   UNL     1       4.173   6.361  19.547  0.00  0.00    +0.000 HD
ENDBRANCH   7  11
TORSDOF 1
ENDMDL
MODEL 2
REMARK VINA RESULT:      -7.5      1.210      1.571
REMARK  Name = 
REMARK  2 active torsions:
REMARK  status: ('A' for Active; 'I' for Inactive)
REMARK    1  A    between atoms: C_1  and  C_2
REMARK    2  A    between atoms: C_7  and  N_8
REMARK                            x       y       z     vdW  Elec       q    Type
REMARK                         _______ _______ _______ _____ _____    ______ ____
ROOT
ATOM      1  C   UNL     1       7.482   5.199  11.934  0.00  0.00    +0.000 C 
ATOM      2  C   UNL     1       7.153   4.912  13.356  0.00  0.00    +0.000 A 
ATOM      3  N   UNL     1       7.701   5.515  14.390  0.00  0.00    +0.000 NA
ATOM      4  C   UNL     1       7.164   5.014  15.565  0.00  0.00    +0.000 A 
ATOM      5  C   UNL     1       7.488   5.416  16.875  0.00  0.00    +0.000 A 
ATOM      6  C   UNL     1       6.831   4.831  17.971  0.00  0.00    +0.000 A 
ATOM      7  C   UNL     1       5.859   3.839  17.797  0.00  0.00    +0.000 A 
ATOM      8  C   UNL     1       5.562   3.418  16.491  0.00  0.00    +0.000 A 
ATOM      9  C   UNL     1       6.207   4.017  15.398  0.00  0.00    +0.000 A 
ATOM     10  S   UNL     1       5.987   3.711  13.721  0.00  0.00    +0.000 S 
ENDROOT
BRANCH   7  11
ATOM     11  N   UNL     1       5.142   3.370  18.919  0.00  0.00    +0.000 N 
ATOM     12  C   UNL     1       3.893   3.797  19.343  0.00  0.00    +0.000 C 
ATOM     13  N   UNL     1       3.341   4.848  18.849  0.00  0.00    +0.000 NA
ATOM     14  C   UNL     1       2.057   5.449  19.124  0.00  0.00    +0.000 C 
ATOM     15  C   UNL     1       1.544   5.267  20.536  0.00  0.00    +0.000 C 
ATOM     16  C   UNL     1       0.916   3.893  20.743  0.00  0.00    +0.000 C 
ATOM     17  C   UNL     1       1.778   2.726  20.266  0.00  0.00    +0.000 C 
ATOM     18  C   UNL     1       3.268   2.964  20.462  0.00  0.00    +0.000 C 
ATOM     19  H   UNL     1       5.615   2.659  19.458  0.00  0.00    +0.000 HD
ENDBRANCH   7  11
TORSDOF 1
ENDMDL
MODEL 3
REMARK VINA RESULT:      -7.4      4.747      7.267
REMARK  Name = 
REMARK  2 active torsions:
REMARK  status: ('A' for Active; 'I' for Inactive)
REMARK    1  A    between atoms: C_1  and  C_2
REMARK    2  A    between atoms: C_7  and  N_8
REMARK                            x       y       z     vdW  Elec       q    Type
REMARK                         _______ _______ _______ _____ _____    ______ ____
ROOT
ATOM      1  C   UNL     1      -0.988  11.640  22.663  0.00  0.00    +0.000 C 
ATOM      2  C   UNL     1      -0.247  10.706  21.773  0.00  0.00    +0.000 A 
ATOM      3  N   UNL     1      -0.054  10.892  20.484  0.00  0.00    +0.000 NA
ATOM      4  C   UNL     1       0.679   9.838  19.962  0.00  0.00    +0.000 A 
ATOM      5  C   UNL     1       1.093   9.684  18.625  0.00  0.00    +0.000 A 
ATOM      6  C   UNL     1       1.862   8.568  18.253  0.00  0.00    +0.000 A 
ATOM      7  C   UNL     1       2.223   7.586  19.184  0.00  0.00    +0.000 A 
ATOM      8  C   UNL     1       1.781   7.727  20.508  0.00  0.00    +0.000 A 
ATOM      9  C   UNL     1       1.029   8.851  20.880  0.00  0.00    +0.000 A 
ATOM     10  S   UNL     1       0.415   9.269  22.430  0.00  0.00    +0.000 S 
ENDROOT
BRANCH   7  11
ATOM     11  N   UNL     1       3.097   6.549  18.789  0.00  0.00    +0.000 N 
ATOM     12  C   UNL     1       2.805   5.194  18.734  0.00  0.00    +0.000 C 
ATOM     13  N   UNL     1       1.731   4.719  19.254  0.00  0.00    +0.000 NA
ATOM     14  C   UNL     1       1.226   3.367  19.290  0.00  0.00    +0.000 C 
ATOM     15  C   UNL     1       2.280   2.281  19.311  0.00  0.00    +0.000 C 
ATOM     16  C   UNL     1       2.846   2.005  17.922  0.00  0.00    +0.000 C 
ATOM     17  C   UNL     1       3.289   3.254  17.162  0.00  0.00    +0.000 C 
ATOM     18  C   UNL     1       3.873   4.328  18.066  0.00  0.00    +0.000 C 
ATOM     19  H   UNL     1       4.027   6.851  18.537  0.00  0.00    +0.000 HD
ENDBRANCH   7  11
TORSDOF 1
ENDMDL
MODEL 4
REMARK VINA RESULT:      -7.3      4.777      6.717
REMARK  Name = 
REMARK  2 active torsions:
REMARK  status: ('A' for Active; 'I' for Inactive)
REMARK    1  A    between atoms: C_1  and  C_2
REMARK    2  A    between atoms: C_7  and  N_8
REMARK                            x       y       z     vdW  Elec       q    Type
REMARK                         _______ _______ _______ _____ _____    ______ ____
ROOT
ATOM      1  C   UNL     1      -1.102  12.581  19.812  0.00  0.00    +0.000 C 
ATOM      2  C   UNL     1      -0.290  11.344  19.659  0.00  0.00    +0.000 A 
ATOM      3  N   UNL     1       0.301  10.968  18.545  0.00  0.00    +0.000 NA
ATOM      4  C   UNL     1       0.978   9.777  18.751  0.00  0.00    +0.000 A 
ATOM      5  C   UNL     1       1.739   9.067  17.802  0.00  0.00    +0.000 A 
ATOM      6  C   UNL     1       2.394   7.881  18.174  0.00  0.00    +0.000 A 
ATOM      7  C   UNL     1       2.302   7.371  19.474  0.00  0.00    +0.000 A 
ATOM      8  C   UNL     1       1.516   8.064  20.408  0.00  0.00    +0.000 A 
ATOM      9  C   UNL     1       0.878   9.257  20.039  0.00  0.00    +0.000 A 
ATOM     10  S   UNL     1      -0.091  10.299  21.003  0.00  0.00    +0.000 S 
ENDROOT
BRANCH   7  11
ATOM     11  N   UNL     1       3.076   6.245  19.830  0.00  0.00    +0.000 N 
ATOM     12  C   UNL     1       2.814   4.922  19.506  0.00  0.00    +0.000 C 
ATOM     13  N   UNL     1       1.685   4.566  19.006  0.00  0.00    +0.000 NA
ATOM     14  C   UNL     1       1.216   3.269  18.579  0.00  0.00    +0.000 C 
ATOM     15  C   UNL     1       1.787   2.091  19.339  0.00  0.00    +0.000 C 
ATOM     16  C   UNL     1       3.183   1.718  18.854  0.00  0.00    +0.000 C 
ATOM     17  C   UNL     1       4.153   2.893  18.758  0.00  0.00    +0.000 C 
ATOM     18  C   UNL     1       3.935   3.938  19.841  0.00  0.00    +0.000 C 
ATOM     19  H   UNL     1       3.892   6.450  20.388  0.00  0.00    +0.000 HD
ENDBRANCH   7  11
TORSDOF 1
ENDMDL
MODEL 5
REMARK VINA RESULT:      -7.2      3.674      4.961
REMARK  Name = 
REMARK  2 active torsions:
REMARK  status: ('A' for Active; 'I' for Inactive)
REMARK    1  A    between atoms: C_1  and  C_2
REMARK    2  A    between atoms: C_7  and  N_8
REMARK                            x       y       z     vdW  Elec       q    Type
REMARK                         _______ _______ _______ _____ _____    ______ ____
ROOT
ATOM      1  C   UNL     1       5.966   4.110  14.656  0.00  0.00    +0.000 C 
ATOM      2  C   UNL     1       5.127   4.572  15.795  0.00  0.00    +0.000 A 
ATOM      3  N   UNL     1       4.235   3.831  16.419  0.00  0.00    +0.000 NA
ATOM      4  C   UNL     1       3.641   4.566  17.432  0.00  0.00    +0.000 A 
ATOM      5  C   UNL     1       2.649   4.116  18.325  0.00  0.00    +0.000 A 
ATOM      6  C   UNL     1       2.162   4.976  19.324  0.00  0.00    +0.000 A 
ATOM      7  C   UNL     1       2.633   6.288  19.453  0.00  0.00    +0.000 A 
ATOM      8  C   UNL     1       3.597   6.743  18.540  0.00  0.00    +0.000 A 
ATOM      9  C   UNL     1       4.093   5.877  17.555  0.00  0.00    +0.000 A 
ATOM     10  S   UNL     1       5.295   6.180  16.364  0.00  0.00    +0.000 S 
ENDROOT
BRANCH   7  11
ATOM     11  N   UNL     1       2.203   7.072  20.545  0.00  0.00    +0.000 N 
ATOM     12  C   UNL     1       1.507   8.270  20.485  0.00  0.00    +0.000 C 
ATOM     13  N   UNL     1       1.363   8.905  19.377  0.00  0.00    +0.000 NA
ATOM     14  C   UNL     1       0.667  10.136  19.086  0.00  0.00    +0.000 C 
ATOM     15  C   UNL     1       0.633  11.144  20.215  0.00  0.00    +0.000 C 
ATOM     16  C   UNL     1      -0.440  10.811  21.247  0.00  0.00    +0.000 C 
ATOM     17  C   UNL     1      -0.417   9.365  21.737  0.00  0.00    +0.000 C 
ATOM     18  C   UNL     1       0.987   8.786  21.826  0.00  0.00    +0.000 C 
ATOM     19  H   UNL     1       2.451   6.706  21.454  0.00  0.00    +0.000 HD
ENDBRANCH   7  11
TORSDOF 1
ENDMDL
MODEL 6
REMARK VINA RESULT:      -6.9      1.306      2.095
REMARK  Name = 
REMARK  2 active torsions:
REMARK  status: ('A' for Active; 'I' for Inactive)
REMARK    1  A    between atoms: C_1  and  C_2
REMARK    2  A    between atoms: C_7  and  N_8
REMARK                            x       y       z     vdW  Elec       q    Type
REMARK                         _______ _______ _______ _____ _____    ______ ____
ROOT
ATOM      1  C   UNL     1       7.307   4.654  11.932  0.00  0.00    +0.000 C 
ATOM      2  C   UNL     1       6.916   4.561  13.364  0.00  0.00    +0.000 A 
ATOM      3  N   UNL     1       7.669   4.942  14.375  0.00  0.00    +0.000 NA
ATOM      4  C   UNL     1       6.999   4.723  15.568  0.00  0.00    +0.000 A 
ATOM      5  C   UNL     1       7.472   5.013  16.862  0.00  0.00    +0.000 A 
ATOM      6  C   UNL     1       6.659   4.759  17.980  0.00  0.00    +0.000 A 
ATOM      7  C   UNL     1       5.379   4.209  17.843  0.00  0.00    +0.000 A 
ATOM      8  C   UNL     1       4.924   3.891  16.554  0.00  0.00    +0.000 A 
ATOM      9  C   UNL     1       5.731   4.162  15.439  0.00  0.00    +0.000 A 
ATOM     10  S   UNL     1       5.385   3.908  13.775  0.00  0.00    +0.000 S 
ENDROOT
BRANCH   7  11
ATOM     11  N   UNL     1       4.555   4.086  18.983  0.00  0.00    +0.000 N 
ATOM     12  C   UNL     1       3.575   4.976  19.398  0.00  0.00    +0.000 C 
ATOM     13  N   UNL     1       3.465   6.143  18.872  0.00  0.00    +0.000 NA
ATOM     14  C   UNL     1       2.518   7.202  19.132  0.00  0.00    +0.000 C 
ATOM     15  C   UNL     1       1.997   7.273  20.551  0.00  0.00    +0.000 C 
ATOM     16  C   UNL     1       0.890   6.255  20.806  0.00  0.00    +0.000 C 
ATOM     17  C   UNL     1       1.227   4.833  20.364  0.00  0.00    +0.000 C 
ATOM     18  C   UNL     1       2.695   4.481  20.546  0.00  0.00    +0.000 C 
ATOM     19  H   UNL     1       4.725   3.263  19.543  0.00  0.00    +0.000 HD
ENDBRANCH   7  11
TORSDOF 1
ENDMDL
MODEL 7
REMARK VINA RESULT:      -6.9      1.964      6.991
REMARK  Name = 
REMARK  2 active torsions:
REMARK  status: ('A' for Active; 'I' for Inactive)
REMARK    1  A    between atoms: C_1  and  C_2
REMARK    2  A    between atoms: C_7  and  N_8
REMARK                            x       y       z     vdW  Elec       q    Type
REMARK                         _______ _______ _______ _____ _____    ______ ____
ROOT
ATOM      1  C   UNL     1       1.730   3.411  21.343  0.00  0.00    +0.000 C 
ATOM      2  C   UNL     1       2.603   3.878  20.232  0.00  0.00    +0.000 A 
ATOM      3  N   UNL     1       2.593   5.094  19.730  0.00  0.00    +0.000 NA
ATOM      4  C   UNL     1       3.532   5.191  18.716  0.00  0.00    +0.000 A 
ATOM      5  C   UNL     1       3.824   6.335  17.948  0.00  0.00    +0.000 A 
ATOM      6  C   UNL     1       4.831   6.284  16.969  0.00  0.00    +0.000 A 
ATOM      7  C   UNL     1       5.554   5.111  16.723  0.00  0.00    +0.000 A 
ATOM      8  C   UNL     1       5.237   3.964  17.468  0.00  0.00    +0.000 A 
ATOM      9  C   UNL     1       4.244   4.023  18.456  0.00  0.00    +0.000 A 
ATOM     10  S   UNL     1       3.711   2.782  19.519  0.00  0.00    +0.000 S 
ENDROOT
BRANCH   7  11
ATOM     11  N   UNL     1       6.635   5.144  15.816  0.00  0.00    +0.000 N 
ATOM     12  C   UNL     1       6.628   4.707  14.500  0.00  0.00    +0.000 C 
ATOM     13  N   UNL     1       5.653   4.016  14.029  0.00  0.00    +0.000 NA
ATOM     14  C   UNL     1       5.432   3.487  12.704  0.00  0.00    +0.000 C 
ATOM     15  C   UNL     1       6.684   3.120  11.935  0.00  0.00    +0.000 C 
ATOM     16  C   UNL     1       7.350   4.341  11.310  0.00  0.00    +0.000 C 
ATOM     17  C   UNL     1       7.561   5.508  12.273  0.00  0.00    +0.000 C 
ATOM     18  C   UNL     1       7.877   5.062  13.692  0.00  0.00    +0.000 C 
ATOM     19  H   UNL     1       7.494   5.517  16.193  0.00  0.00    +0.000 HD
ENDBRANCH   7  11
TORSDOF 1
ENDMDL
MODEL 8
REMARK VINA RESULT:      -6.8      4.568      7.768
REMARK  Name = 
REMARK  2 active torsions:
REMARK  status: ('A' for Active; 'I' for Inactive)
REMARK    1  A    between atoms: C_1  and  C_2
REMARK    2  A    between atoms: C_7  and  N_8
REMARK                            x       y       z     vdW  Elec       q    Type
REMARK                         _______ _______ _______ _____ _____    ______ ____
ROOT
ATOM      1  C   UNL     1       3.875   3.183  17.889  0.00  0.00    +0.000 C 
ATOM      2  C   UNL     1       4.843   4.310  17.967  0.00  0.00    +0.000 A 
ATOM      3  N   UNL     1       5.925   4.319  18.716  0.00  0.00    +0.000 NA
ATOM      4  C   UNL     1       6.604   5.515  18.546  0.00  0.00    +0.000 A 
ATOM      5  C   UNL     1       7.810   5.892  19.168  0.00  0.00    +0.000 A 
ATOM      6  C   UNL     1       8.394   7.135  18.870  0.00  0.00    +0.000 A 
ATOM      7  C   UNL     1       7.799   8.025  17.968  0.00  0.00    +0.000 A 
ATOM      8  C   UNL     1       6.581   7.659  17.375  0.00  0.00    +0.000 A 
ATOM      9  C   UNL     1       6.009   6.411  17.662  0.00  0.00    +0.000 A 
ATOM     10  S   UNL     1       4.564   5.722  17.036  0.00  0.00    +0.000 S 
ENDROOT
BRANCH   7  11
ATOM     11  N   UNL     1       8.486   9.206  17.609  0.00  0.00    +0.000 N 
ATOM     12  C   UNL     1       9.069  10.122  18.472  0.00  0.00    +0.000 C 
ATOM     13  N   UNL     1       8.850  10.082  19.737  0.00  0.00    +0.000 NA
ATOM     14  C   UNL     1       9.364  10.909  20.803  0.00  0.00    +0.000 C 
ATOM     15  C   UNL     1       9.672  12.342  20.423  0.00  0.00    +0.000 C 
ATOM     16  C   UNL     1      11.014  12.469  19.711  0.00  0.00    +0.000 C 
ATOM     17  C   UNL     1      11.212  11.489  18.557  0.00  0.00    +0.000 C 
ATOM     18  C   UNL     1       9.928  11.191  17.797  0.00  0.00    +0.000 C 
ATOM     19  H   UNL     1       8.532   9.384  16.616  0.00  0.00    +0.000 HD
ENDBRANCH   7  11
TORSDOF 1
ENDMDL
MODEL 9
REMARK VINA RESULT:      -6.7      2.531      6.919
REMARK  Name = 
REMARK  2 active torsions:
REMARK  status: ('A' for Active; 'I' for Inactive)
REMARK    1  A    between atoms: C_1  and  C_2
REMARK    2  A    between atoms: C_7  and  N_8
REMARK                            x       y       z     vdW  Elec       q    Type
REMARK                         _______ _______ _______ _____ _____    ______ ____
ROOT
ATOM      1  C   UNL     1       1.534   6.547  20.403  0.00  0.00    +0.000 C 
ATOM      2  C   UNL     1       2.750   6.278  19.589  0.00  0.00    +0.000 A 
ATOM      3  N   UNL     1       3.682   5.403  19.899  0.00  0.00    +0.000 NA
ATOM      4  C   UNL     1       4.667   5.401  18.924  0.00  0.00    +0.000 A 
ATOM      5  C   UNL     1       5.820   4.593  18.897  0.00  0.00    +0.000 A 
ATOM      6  C   UNL     1       6.717   4.686  17.819  0.00  0.00    +0.000 A 
ATOM      7  C   UNL     1       6.500   5.579  16.762  0.00  0.00    +0.000 A 
ATOM      8  C   UNL     1       5.366   6.406  16.810  0.00  0.00    +0.000 A 
ATOM      9  C   UNL     1       4.464   6.297  17.879  0.00  0.00    +0.000 A 
ATOM     10  S   UNL     1       2.998   7.156  18.138  0.00  0.00    +0.000 S 
ENDROOT
BRANCH   7  11
ATOM     11  N   UNL     1       7.363   5.549  15.645  0.00  0.00    +0.000 N 
ATOM     12  C   UNL     1       7.100   4.977  14.409  0.00  0.00    +0.000 C 
ATOM     13  N   UNL     1       6.084   4.211  14.228  0.00  0.00    +0.000 NA
ATOM     14  C   UNL     1       5.617   3.541  13.038  0.00  0.00    +0.000 C 
ATOM     15  C   UNL     1       6.695   3.133  12.057  0.00  0.00    +0.000 C 
ATOM     16  C   UNL     1       7.150   4.302  11.189  0.00  0.00    +0.000 C 
ATOM     17  C   UNL     1       7.499   5.568  11.968  0.00  0.00    +0.000 C 
ATOM     18  C   UNL     1       8.130   5.283  13.322  0.00  0.00    +0.000 C 
ATOM     19  H   UNL     1       8.261   5.986  15.791  0.00  0.00    +0.000 HD
ENDBRANCH   7  11
TORSDOF 1
ENDMDL
