MODEL 1
REMARK VINA RESULT:      -7.6      0.000      0.000
REMARK  Name = 
REMARK  14 active torsions:
REMARK  status: ('A' for Active; 'I' for Inactive)
REMARK    1  A    between atoms: C_1  and  O_2
REMARK    2  A    between atoms: O_2  and  C_3
REMARK    3  A    between atoms: C_10  and  C_11
REMARK    4  A    between atoms: C_11  and  C_12
REMARK    5  A    between atoms: C_12  and  S_19
REMARK    6  A    between atoms: N_13  and  O_14
REMARK    7  A    between atoms: O_14  and  S_15
REMARK    8  A    between atoms: S_15  and  O_18
REMARK    9  A    between atoms: S_19  and  C_20
REMARK   10  A    between atoms: C_22  and  C_23
REMARK   11  A    between atoms: C_23  and  O_24
REMARK   12  A    between atoms: C_25  and  O_26
REMARK   13  A    between atoms: C_27  and  O_28
REMARK   14  A    between atoms: C_29  and  O_30
REMARK                            x       y       z     vdW  Elec       q    Type
REMARK                         _______ _______ _______ _____ _____    ______ ____
ROOT
ATOM      1  C   UNL     1       2.810   6.010  19.414  0.00  0.00    +0.000 C 
ATOM      2  N   UNL     1       2.002   5.492  20.283  0.00  0.00    +0.000 NA
ENDROOT
BRANCH   1   3
ATOM      3  C   UNL     1       4.299   5.709  19.270  0.00  0.00    +0.000 C 
BRANCH   3  11
ATOM      4  C   UNL     1       6.337   6.009  16.616  0.00  0.00    +0.000 A 
ATOM      5  C   UNL     1       6.976   5.889  15.368  0.00  0.00    +0.000 A 
ATOM      6  C   UNL     1       6.817   4.754  14.570  0.00  0.00    +0.000 A 
ATOM      7  C   UNL     1       6.038   3.686  15.001  0.00  0.00    +0.000 A 
ATOM      8  C   UNL     1       5.408   3.800  16.246  0.00  0.00    +0.000 A 
ATOM      9  N   UNL     1       4.618   2.891  16.904  0.00  0.00    +0.000 N 
ATOM     10  C   UNL     1       4.155   3.422  18.075  0.00  0.00    +0.000 A 
ATOM     11  C   UNL     1       4.631   4.715  18.191  0.00  0.00    +0.000 A 
ATOM     12  C   UNL     1       5.501   4.941  17.053  0.00  0.00    +0.000 A 
ATOM     13  H   UNL     1       4.399   1.964  16.559  0.00  0.00    +0.000 HD
BRANCH   4  15
ATOM     14  C   UNL     1       7.747   7.323  18.025  0.00  0.00    +0.000 C 
ATOM     15  O   UNL     1       6.465   7.103  17.440  0.00  0.00    +0.000 OA
ENDBRANCH   4  15
ENDBRANCH   3  11
ENDBRANCH   1   3
BRANCH   2  16
ATOM     16  O   UNL     1       2.592   4.466  21.045  0.00  0.00    +0.000 OA
BRANCH  16  17
ATOM     17  S   UNL     1       1.725   3.062  20.996  0.00  0.00    +0.000 S 
ATOM     18  O   UNL     1       2.351   2.140  20.072  0.00  0.00    +0.000 OA
ATOM     19  O   UNL     1       1.407   2.683  22.353  0.00  0.00    +0.000 OA
BRANCH  17  20
ATOM     20  O   UNL     1       0.322   3.520  20.324  0.00  0.00    +0.000 OA
ATOM     21  H   UNL     1      -0.027   4.273  20.844  0.00  0.00    +0.000 HD
ENDBRANCH  17  20
ENDBRANCH  16  17
ENDBRANCH   2  16
BRANCH   1  22
ATOM     22  S   UNL     1       2.147   7.168  18.256  0.00  0.00    +0.000 S 
BRANCH  22  23
ATOM     23  C   UNL     1       1.857   8.676  19.262  0.00  0.00    +0.000 C 
ATOM     24  O   UNL     1       1.063   8.367  20.412  0.00  0.00    +0.000 OA
ATOM     25  C   UNL     1       0.989   9.444  21.352  0.00  0.00    +0.000 C 
ATOM     26  C   UNL     1       0.321  10.669  20.709  0.00  0.00    +0.000 C 
ATOM     27  C   UNL     1       1.124  11.093  19.470  0.00  0.00    +0.000 C 
ATOM     28  C   UNL     1       1.326   9.915  18.489  0.00  0.00    +0.000 C 
BRANCH  26  29
ATOM     29  O   UNL     1       0.222  11.736  21.666  0.00  0.00    +0.000 OA
ATOM     30  H   UNL     1      -0.128  11.372  22.501  0.00  0.00    +0.000 HD
ENDBRANCH  26  29
BRANCH  27  31
ATOM     31  O   UNL     1       0.483  12.203  18.831  0.00  0.00    +0.000 OA
ATOM     32  H   UNL     1       0.833  12.282  17.923  0.00  0.00    +0.000 HD
ENDBRANCH  27  31
BRANCH  28  33
ATOM     33  O   UNL     1       2.214  10.297  17.429  0.00  0.00    +0.000 OA
ATOM     34  H   UNL     1       2.466   9.506  16.923  0.00  0.00    +0.000 HD
ENDBRANCH  28  33
BRANCH  25  35
ATOM     35  C   UNL     1       0.218   8.965  22.593  0.00  0.00    +0.000 C 
BRANCH  35  36
ATOM     36  O   UNL     1       0.473   9.765  23.742  0.00  0.00    +0.000 OA
ATOM     37  H   UNL     1      -0.360  10.242  23.948  0.00  0.00    +0.000 HD
ENDBRANCH  35  36
ENDBRANCH  25  35
ENDBRANCH  22  23
ENDBRANCH   1  22
TORSDOF 13
ENDMDL
MODEL 2
REMARK VINA RESULT:      -7.5      1.328      2.214
REMARK  Name = 
REMARK  14 active torsions:
REMARK  status: ('A' for Active; 'I' for Inactive)
REMARK    1  A    between atoms: C_1  and  O_2
REMARK    2  A    between atoms: O_2  and  C_3
REMARK    3  A    between atoms: C_10  and  C_11
REMARK    4  A    between atoms: C_11  and  C_12
REMARK    5  A    between atoms: C_12  and  S_19
REMARK    6  A    between atoms: N_13  and  O_14
REMARK    7  A    between atoms: O_14  and  S_15
REMARK    8  A    between atoms: S_15  and  O_18
REMARK    9  A    between atoms: S_19  and  C_20
REMARK   10  A    between atoms: C_22  and  C_23
REMARK   11  A    between atoms: C_23  and  O_24
REMARK   12  A    between atoms: C_25  and  O_26
REMARK   13  A    between atoms: C_27  and  O_28
REMARK   14  A    between atoms: C_29  and  O_30
REMARK                            x       y       z     vdW  Elec       q    Type
REMARK                         _______ _______ _______ _____ _____    ______ ____
ROOT
ATOM      1  C   UNL     1       2.927   5.994  19.495  0.00  0.00    +0.000 C 
ATOM      2  N   UNL     1       2.036   5.593  20.344  0.00  0.00    +0.000 NA
ENDROOT
BRANCH   1   3
ATOM      3  C   UNL     1       4.401   5.598  19.473  0.00  0.00    +0.000 C 
BRANCH   3  11
ATOM      4  C   UNL     1       4.807   3.797  16.667  0.00  0.00    +0.000 A 
ATOM      5  C   UNL     1       5.267   3.244  15.457  0.00  0.00    +0.000 A 
ATOM      6  C   UNL     1       6.153   3.932  14.626  0.00  0.00    +0.000 A 
ATOM      7  C   UNL     1       6.589   5.210  14.957  0.00  0.00    +0.000 A 
ATOM      8  C   UNL     1       6.126   5.767  16.155  0.00  0.00    +0.000 A 
ATOM      9  N   UNL     1       6.380   7.004  16.691  0.00  0.00    +0.000 N 
ATOM     10  C   UNL     1       5.775   7.129  17.910  0.00  0.00    +0.000 A 
ATOM     11  C   UNL     1       5.120   5.946  18.199  0.00  0.00    +0.000 A 
ATOM     12  C   UNL     1       5.278   5.089  17.041  0.00  0.00    +0.000 A 
ATOM     13  H   UNL     1       6.949   7.716  16.249  0.00  0.00    +0.000 HD
BRANCH   4  15
ATOM     14  C   UNL     1       2.553   3.181  17.154  0.00  0.00    +0.000 C 
ATOM     15  O   UNL     1       3.933   3.162  17.516  0.00  0.00    +0.000 OA
ENDBRANCH   4  15
ENDBRANCH   3  11
ENDBRANCH   1   3
BRANCH   2  16
ATOM     16  O   UNL     1       2.513   4.599  21.220  0.00  0.00    +0.000 OA
BRANCH  16  17
ATOM     17  S   UNL     1       1.766   3.145  20.994  0.00  0.00    +0.000 S 
ATOM     18  O   UNL     1       1.543   2.514  22.279  0.00  0.00    +0.000 OA
ATOM     19  O   UNL     1       0.697   3.331  20.042  0.00  0.00    +0.000 OA
BRANCH  17  20
ATOM     20  O   UNL     1       2.895   2.267  20.230  0.00  0.00    +0.000 OA
ATOM     21  H   UNL     1       3.713   2.298  20.768  0.00  0.00    +0.000 HD
ENDBRANCH  17  20
ENDBRANCH  16  17
ENDBRANCH   2  16
BRANCH   1  22
ATOM     22  S   UNL     1       2.409   7.091  18.210  0.00  0.00    +0.000 S 
BRANCH  22  23
ATOM     23  C   UNL     1       1.952   8.627  19.105  0.00  0.00    +0.000 C 
ATOM     24  O   UNL     1       1.156   8.321  20.255  0.00  0.00    +0.000 OA
ATOM     25  C   UNL     1       0.955   9.444  21.118  0.00  0.00    +0.000 C 
ATOM     26  C   UNL     1       0.196  10.557  20.378  0.00  0.00    +0.000 C 
ATOM     27  C   UNL     1       0.993  10.973  19.132  0.00  0.00    +0.000 C 
ATOM     28  C   UNL     1       1.332   9.758  18.238  0.00  0.00    +0.000 C 
BRANCH  26  29
ATOM     29  O   UNL     1      -0.029  11.669  21.258  0.00  0.00    +0.000 OA
ATOM     30  H   UNL     1       0.702  11.708  21.903  0.00  0.00    +0.000 HD
ENDBRANCH  26  29
BRANCH  27  31
ATOM     31  O   UNL     1       0.271  11.974  18.405  0.00  0.00    +0.000 OA
ATOM     32  H   UNL     1       0.781  12.807  18.437  0.00  0.00    +0.000 HD
ENDBRANCH  27  31
BRANCH  28  33
ATOM     33  O   UNL     1       2.212  10.152  17.175  0.00  0.00    +0.000 OA
ATOM     34  H   UNL     1       1.792   9.952  16.322  0.00  0.00    +0.000 HD
ENDBRANCH  28  33
BRANCH  25  35
ATOM     35  C   UNL     1       0.195   8.977  22.370  0.00  0.00    +0.000 C 
BRANCH  35  36
ATOM     36  O   UNL     1       0.384   9.843  23.483  0.00  0.00    +0.000 OA
ATOM     37  H   UNL     1      -0.004  10.711  23.238  0.00  0.00    +0.000 HD
ENDBRANCH  35  36
ENDBRANCH  25  35
ENDBRANCH  22  23
ENDBRANCH   1  22
TORSDOF 13
ENDMDL
MODEL 3
REMARK VINA RESULT:      -7.1      2.504      4.508
REMARK  Name = 
REMARK  14 active torsions:
REMARK  status: ('A' for Active; 'I' for Inactive)
REMARK    1  A    between atoms: C_1  and  O_2
REMARK    2  A    between atoms: O_2  and  C_3
REMARK    3  A    between atoms: C_10  and  C_11
REMARK    4  A    between atoms: C_11  and  C_12
REMARK    5  A    between atoms: C_12  and  S_19
REMARK    6  A    between atoms: N_13  and  O_14
REMARK    7  A    between atoms: O_14  and  S_15
REMARK    8  A    between atoms: S_15  and  O_18
REMARK    9  A    between atoms: S_19  and  C_20
REMARK   10  A    between atoms: C_22  and  C_23
REMARK   11  A    between atoms: C_23  and  O_24
REMARK   12  A    between atoms: C_25  and  O_26
REMARK   13  A    between atoms: C_27  and  O_28
REMARK   14  A    between atoms: C_29  and  O_30
REMARK                            x       y       z     vdW  Elec       q    Type
REMARK                         _______ _______ _______ _____ _____    ______ ____
ROOT
ATOM      1  C   UNL     1       3.513   6.990  18.261  0.00  0.00    +0.000 C 
ATOM      2  N   UNL     1       4.478   7.101  17.405  0.00  0.00    +0.000 NA
ENDROOT
BRANCH   1   3
ATOM      3  C   UNL     1       3.587   6.312  19.627  0.00  0.00    +0.000 C 
BRANCH   3  11
ATOM      4  C   UNL     1       3.157   3.234  18.352  0.00  0.00    +0.000 A 
ATOM      5  C   UNL     1       2.636   2.011  17.889  0.00  0.00    +0.000 A 
ATOM      6  C   UNL     1       1.388   1.542  18.303  0.00  0.00    +0.000 A 
ATOM      7  C   UNL     1       0.627   2.261  19.218  0.00  0.00    +0.000 A 
ATOM      8  C   UNL     1       1.147   3.474  19.687  0.00  0.00    +0.000 A 
ATOM      9  N   UNL     1       0.615   4.349  20.601  0.00  0.00    +0.000 N 
ATOM     10  C   UNL     1       1.420   5.445  20.735  0.00  0.00    +0.000 A 
ATOM     11  C   UNL     1       2.499   5.306  19.882  0.00  0.00    +0.000 A 
ATOM     12  C   UNL     1       2.371   4.004  19.258  0.00  0.00    +0.000 A 
ATOM     13  H   UNL     1      -0.258   4.205  21.093  0.00  0.00    +0.000 HD
BRANCH   4  15
ATOM     14  C   UNL     1       4.773   3.535  16.622  0.00  0.00    +0.000 C 
ATOM     15  O   UNL     1       4.380   3.736  17.978  0.00  0.00    +0.000 OA
ENDBRANCH   4  15
ENDBRANCH   3  11
ENDBRANCH   1   3
BRANCH   2  16
ATOM     16  O   UNL     1       5.715   6.648  17.903  0.00  0.00    +0.000 OA
BRANCH  16  17
ATOM     17  S   UNL     1       6.874   6.558  16.732  0.00  0.00    +0.000 S 
ATOM     18  O   UNL     1       6.251   6.265  15.458  0.00  0.00    +0.000 OA
ATOM     19  O   UNL     1       7.772   7.677  16.901  0.00  0.00    +0.000 OA
BRANCH  17  20
ATOM     20  O   UNL     1       7.721   5.242  17.154  0.00  0.00    +0.000 OA
ATOM     21  H   UNL     1       7.660   4.598  16.417  0.00  0.00    +0.000 HD
ENDBRANCH  17  20
ENDBRANCH  16  17
ENDBRANCH   2  16
BRANCH   1  22
ATOM     22  S   UNL     1       1.952   7.703  17.843  0.00  0.00    +0.000 S 
BRANCH  22  23
ATOM     23  C   UNL     1       1.775   9.094  19.027  0.00  0.00    +0.000 C 
ATOM     24  O   UNL     1       0.962   8.706  20.140  0.00  0.00    +0.000 OA
ATOM     25  C   UNL     1       0.970   9.662  21.204  0.00  0.00    +0.000 C 
ATOM     26  C   UNL     1       0.392  11.003  20.722  0.00  0.00    +0.000 C 
ATOM     27  C   UNL     1       1.222  11.514  19.535  0.00  0.00    +0.000 C 
ATOM     28  C   UNL     1       1.336  10.453  18.417  0.00  0.00    +0.000 C 
BRANCH  26  29
ATOM     29  O   UNL     1       0.373  11.949  21.802  0.00  0.00    +0.000 OA
ATOM     30  H   UNL     1       0.178  11.471  22.630  0.00  0.00    +0.000 HD
ENDBRANCH  26  29
BRANCH  27  31
ATOM     31  O   UNL     1       0.663  12.738  19.043  0.00  0.00    +0.000 OA
ATOM     32  H   UNL     1       1.141  12.991  18.229  0.00  0.00    +0.000 HD
ENDBRANCH  27  31
BRANCH  28  33
ATOM     33  O   UNL     1       2.248  10.896  17.401  0.00  0.00    +0.000 OA
ATOM     34  H   UNL     1       1.985  11.782  17.100  0.00  0.00    +0.000 HD
ENDBRANCH  28  33
BRANCH  25  35
ATOM     35  C   UNL     1       0.167   9.093  22.386  0.00  0.00    +0.000 C 
BRANCH  35  36
ATOM     36  O   UNL     1       0.446   9.760  23.612  0.00  0.00    +0.000 OA
ATOM     37  H   UNL     1      -0.259  10.432  23.738  0.00  0.00    +0.000 HD
ENDBRANCH  35  36
ENDBRANCH  25  35
ENDBRANCH  22  23
ENDBRANCH   1  22
TORSDOF 13
ENDMDL
MODEL 4
REMARK VINA RESULT:      -7.0      2.877      5.203
REMARK  Name = 
REMARK  14 active torsions:
REMARK  status: ('A' for Active; 'I' for Inactive)
REMARK    1  A    between atoms: C_1  and  O_2
REMARK    2  A    between atoms: O_2  and  C_3
REMARK    3  A    between atoms: C_10  and  C_11
REMARK    4  A    between atoms: C_11  and  C_12
REMARK    5  A    between atoms: C_12  and  S_19
REMARK    6  A    between atoms: N_13  and  O_14
REMARK    7  A    between atoms: O_14  and  S_15
REMARK    8  A    between atoms: S_15  and  O_18
REMARK    9  A    between atoms: S_19  and  C_20
REMARK   10  A    between atoms: C_22  and  C_23
REMARK   11  A    between atoms: C_23  and  O_24
REMARK   12  A    between atoms: C_25  and  O_26
REMARK   13  A    between atoms: C_27  and  O_28
REMARK   14  A    between atoms: C_29  and  O_30
REMARK                            x       y       z     vdW  Elec       q    Type
REMARK                         _______ _______ _______ _____ _____    ______ ____
ROOT
ATOM      1  C   UNL     1       1.593   8.608  19.997  0.00  0.00    +0.000 C 
ATOM      2  N   UNL     1       1.461   9.459  20.964  0.00  0.00    +0.000 NA
ENDROOT
BRANCH   1   3
ATOM      3  C   UNL     1       1.885   7.116  20.138  0.00  0.00    +0.000 C 
BRANCH   3  11
ATOM      4  C   UNL     1       2.079   3.929  19.092  0.00  0.00    +0.000 A 
ATOM      5  C   UNL     1       2.474   2.701  18.529  0.00  0.00    +0.000 A 
ATOM      6  C   UNL     1       3.448   2.631  17.533  0.00  0.00    +0.000 A 
ATOM      7  C   UNL     1       4.045   3.787  17.040  0.00  0.00    +0.000 A 
ATOM      8  C   UNL     1       3.648   5.011  17.592  0.00  0.00    +0.000 A 
ATOM      9  N   UNL     1       4.056   6.281  17.269  0.00  0.00    +0.000 N 
ATOM     10  C   UNL     1       3.461   7.196  18.091  0.00  0.00    +0.000 A 
ATOM     11  C   UNL     1       2.655   6.522  18.990  0.00  0.00    +0.000 A 
ATOM     12  C   UNL     1       2.710   5.119  18.628  0.00  0.00    +0.000 A 
ATOM     13  H   UNL     1       4.717   6.502  16.534  0.00  0.00    +0.000 HD
BRANCH   4  15
ATOM     14  C   UNL     1       1.161   3.101  21.134  0.00  0.00    +0.000 C 
ATOM     15  O   UNL     1       1.121   4.051  20.071  0.00  0.00    +0.000 OA
ENDBRANCH   4  15
ENDBRANCH   3  11
ENDBRANCH   1   3
BRANCH   2  16
ATOM     16  O   UNL     1       1.469   8.858  22.236  0.00  0.00    +0.000 OA
BRANCH  16  17
ATOM     17  S   UNL     1       0.333   9.499  23.247  0.00  0.00    +0.000 S 
ATOM     18  O   UNL     1       0.739   9.291  24.622  0.00  0.00    +0.000 OA
ATOM     19  O   UNL     1      -0.027  10.805  22.749  0.00  0.00    +0.000 OA
BRANCH  17  20
ATOM     20  O   UNL     1      -0.960   8.555  22.992  0.00  0.00    +0.000 OA
ATOM     21  H   UNL     1      -1.342   8.328  23.865  0.00  0.00    +0.000 HD
ENDBRANCH  17  20
ENDBRANCH  16  17
ENDBRANCH   2  16
BRANCH   1  22
ATOM     22  S   UNL     1       1.399   9.198  18.343  0.00  0.00    +0.000 S 
BRANCH  22  23
ATOM     23  C   UNL     1      -0.235  10.033  18.365  0.00  0.00    +0.000 C 
ATOM     24  O   UNL     1      -0.968   9.734  17.172  0.00  0.00    +0.000 OA
ATOM     25  C   UNL     1      -2.331  10.165  17.225  0.00  0.00    +0.000 C 
ATOM     26  C   UNL     1      -2.403  11.693  17.378  0.00  0.00    +0.000 C 
ATOM     27  C   UNL     1      -1.658  12.110  18.655  0.00  0.00    +0.000 C 
ATOM     28  C   UNL     1      -0.216  11.553  18.684  0.00  0.00    +0.000 C 
BRANCH  26  29
ATOM     29  O   UNL     1      -3.773  12.123  17.398  0.00  0.00    +0.000 OA
ATOM     30  H   UNL     1      -4.250  11.605  18.073  0.00  0.00    +0.000 HD
ENDBRANCH  26  29
BRANCH  27  31
ATOM     31  O   UNL     1      -1.673  13.537  18.782  0.00  0.00    +0.000 OA
ATOM     32  H   UNL     1      -0.750  13.851  18.839  0.00  0.00    +0.000 HD
ENDBRANCH  27  31
BRANCH  28  33
ATOM     33  O   UNL     1       0.394  11.819  19.956  0.00  0.00    +0.000 OA
ATOM     34  H   UNL     1      -0.299  12.021  20.607  0.00  0.00    +0.000 HD
ENDBRANCH  28  33
BRANCH  25  35
ATOM     35  C   UNL     1      -3.050   9.690  15.951  0.00  0.00    +0.000 C 
BRANCH  35  36
ATOM     36  O   UNL     1      -2.999  10.649  14.901  0.00  0.00    +0.000 OA
ATOM     37  H   UNL     1      -3.895  11.046  14.834  0.00  0.00    +0.000 HD
ENDBRANCH  35  36
ENDBRANCH  25  35
ENDBRANCH  22  23
ENDBRANCH   1  22
TORSDOF 13
ENDMDL
MODEL 5
REMARK VINA RESULT:      -6.9      2.982      4.972
REMARK  Name = 
REMARK  14 active torsions:
REMARK  status: ('A' for Active; 'I' for Inactive)
REMARK    1  A    between atoms: C_1  and  O_2
REMARK    2  A    between atoms: O_2  and  C_3
REMARK    3  A    between atoms: C_10  and  C_11
REMARK    4  A    between atoms: C_11  and  C_12
REMARK    5  A    between atoms: C_12  and  S_19
REMARK    6  A    between atoms: N_13  and  O_14
REMARK    7  A    between atoms: O_14  and  S_15
REMARK    8  A    between atoms: S_15  and  O_18
REMARK    9  A    between atoms: S_19  and  C_20
REMARK   10  A    between atoms: C_22  and  C_23
REMARK   11  A    between atoms: C_23  and  O_24
REMARK   12  A    between atoms: C_25  and  O_26
REMARK   13  A    between atoms: C_27  and  O_28
REMARK   14  A    between atoms: C_29  and  O_30
REMARK                            x       y       z     vdW  Elec       q    Type
REMARK                         _______ _______ _______ _____ _____    ______ ____
ROOT
ATOM      1  C   UNL     1       1.694   8.516  19.734  0.00  0.00    +0.000 C 
ATOM      2  N   UNL     1       1.043   9.168  20.644  0.00  0.00    +0.000 NA
ENDROOT
BRANCH   1   3
ATOM      3  C   UNL     1       2.728   7.419  19.970  0.00  0.00    +0.000 C 
BRANCH   3  11
ATOM      4  C   UNL     1       3.452   4.906  17.862  0.00  0.00    +0.000 A 
ATOM      5  C   UNL     1       3.426   3.749  17.060  0.00  0.00    +0.000 A 
ATOM      6  C   UNL     1       2.529   2.709  17.304  0.00  0.00    +0.000 A 
ATOM      7  C   UNL     1       1.644   2.770  18.374  0.00  0.00    +0.000 A 
ATOM      8  C   UNL     1       1.673   3.915  19.179  0.00  0.00    +0.000 A 
ATOM      9  N   UNL     1       0.933   4.209  20.297  0.00  0.00    +0.000 N 
ATOM     10  C   UNL     1       1.233   5.462  20.751  0.00  0.00    +0.000 A 
ATOM     11  C   UNL     1       2.177   6.021  19.910  0.00  0.00    +0.000 A 
ATOM     12  C   UNL     1       2.522   5.003  18.937  0.00  0.00    +0.000 A 
ATOM     13  H   UNL     1       0.251   3.586  20.714  0.00  0.00    +0.000 HD
BRANCH   4  15
ATOM     14  C   UNL     1       5.137   5.906  16.499  0.00  0.00    +0.000 C 
ATOM     15  O   UNL     1       4.318   5.955  17.665  0.00  0.00    +0.000 OA
ENDBRANCH   4  15
ENDBRANCH   3  11
ENDBRANCH   1   3
BRANCH   2  16
ATOM     16  O   UNL     1       1.264   8.673  21.943  0.00  0.00    +0.000 OA
BRANCH  16  17
ATOM     17  S   UNL     1       0.407   9.497  23.088  0.00  0.00    +0.000 S 
ATOM     18  O   UNL     1       1.002   9.272  24.390  0.00  0.00    +0.000 OA
ATOM     19  O   UNL     1       0.152  10.827  22.589  0.00  0.00    +0.000 OA
BRANCH  17  20
ATOM     20  O   UNL     1      -1.026   8.740  23.090  0.00  0.00    +0.000 OA
ATOM     21  H   UNL     1      -1.528   9.048  22.307  0.00  0.00    +0.000 HD
ENDBRANCH  17  20
ENDBRANCH  16  17
ENDBRANCH   2  16
BRANCH   1  22
ATOM     22  S   UNL     1       1.356   8.899  18.043  0.00  0.00    +0.000 S 
BRANCH  22  23
ATOM     23  C   UNL     1      -0.220   9.838  18.113  0.00  0.00    +0.000 C 
ATOM     24  O   UNL     1      -1.024   9.555  16.962  0.00  0.00    +0.000 OA
ATOM     25  C   UNL     1      -2.354  10.074  17.063  0.00  0.00    +0.000 C 
ATOM     26  C   UNL     1      -2.322  11.607  17.174  0.00  0.00    +0.000 C 
ATOM     27  C   UNL     1      -1.494  12.009  18.404  0.00  0.00    +0.000 C 
ATOM     28  C   UNL     1      -0.091  11.362  18.386  0.00  0.00    +0.000 C 
BRANCH  26  29
ATOM     29  O   UNL     1      -3.659  12.125  17.242  0.00  0.00    +0.000 OA
ATOM     30  H   UNL     1      -3.629  13.085  17.077  0.00  0.00    +0.000 HD
ENDBRANCH  26  29
BRANCH  27  31
ATOM     31  O   UNL     1      -1.413  13.437  18.490  0.00  0.00    +0.000 OA
ATOM     32  H   UNL     1      -2.140  13.819  17.961  0.00  0.00    +0.000 HD
ENDBRANCH  27  31
BRANCH  28  33
ATOM     33  O   UNL     1       0.593  11.621  19.621  0.00  0.00    +0.000 OA
ATOM     34  H   UNL     1      -0.044  11.954  20.275  0.00  0.00    +0.000 HD
ENDBRANCH  28  33
BRANCH  25  35
ATOM     35  C   UNL     1      -3.158   9.613  15.836  0.00  0.00    +0.000 C 
BRANCH  35  36
ATOM     36  O   UNL     1      -3.183  10.585  14.797  0.00  0.00    +0.000 OA
ATOM     37  H   UNL     1      -4.104  10.921  14.744  0.00  0.00    +0.000 HD
ENDBRANCH  35  36
ENDBRANCH  25  35
ENDBRANCH  22  23
ENDBRANCH   1  22
TORSDOF 13
ENDMDL
MODEL 6
REMARK VINA RESULT:      -6.9      3.143      5.367
REMARK  Name = 
REMARK  14 active torsions:
REMARK  status: ('A' for Active; 'I' for Inactive)
REMARK    1  A    between atoms: C_1  and  O_2
REMARK    2  A    between atoms: O_2  and  C_3
REMARK    3  A    between atoms: C_10  and  C_11
REMARK    4  A    between atoms: C_11  and  C_12
REMARK    5  A    between atoms: C_12  and  S_19
REMARK    6  A    between atoms: N_13  and  O_14
REMARK    7  A    between atoms: O_14  and  S_15
REMARK    8  A    between atoms: S_15  and  O_18
REMARK    9  A    between atoms: S_19  and  C_20
REMARK   10  A    between atoms: C_22  and  C_23
REMARK   11  A    between atoms: C_23  and  O_24
REMARK   12  A    between atoms: C_25  and  O_26
REMARK   13  A    between atoms: C_27  and  O_28
REMARK   14  A    between atoms: C_29  and  O_30
REMARK                            x       y       z     vdW  Elec       q    Type
REMARK                         _______ _______ _______ _____ _____    ______ ____
ROOT
ATOM      1  C   UNL     1       1.389   9.111  19.835  0.00  0.00    +0.000 C 
ATOM      2  N   UNL     1       1.382   9.877  20.878  0.00  0.00    +0.000 NA
ENDROOT
BRANCH   1   3
ATOM      3  C   UNL     1       1.622   7.602  19.821  0.00  0.00    +0.000 C 
BRANCH   3  11
ATOM      4  C   UNL     1       2.328   4.479  18.805  0.00  0.00    +0.000 A 
ATOM      5  C   UNL     1       2.930   3.320  18.281  0.00  0.00    +0.000 A 
ATOM      6  C   UNL     1       3.984   3.390  17.368  0.00  0.00    +0.000 A 
ATOM      7  C   UNL     1       4.457   4.619  16.922  0.00  0.00    +0.000 A 
ATOM      8  C   UNL     1       3.854   5.774  17.436  0.00  0.00    +0.000 A 
ATOM      9  N   UNL     1       4.112   7.090  17.143  0.00  0.00    +0.000 N 
ATOM     10  C   UNL     1       3.334   7.910  17.911  0.00  0.00    +0.000 A 
ATOM     11  C   UNL     1       2.556   7.127  18.743  0.00  0.00    +0.000 A 
ATOM     12  C   UNL     1       2.829   5.747  18.391  0.00  0.00    +0.000 A 
ATOM     13  H   UNL     1       4.795   7.404  16.464  0.00  0.00    +0.000 HD
BRANCH   4  15
ATOM     14  C   UNL     1       0.863   3.186  20.175  0.00  0.00    +0.000 C 
ATOM     15  O   UNL     1       1.287   4.462  19.702  0.00  0.00    +0.000 OA
ENDBRANCH   4  15
ENDBRANCH   3  11
ENDBRANCH   1   3
BRANCH   2  16
ATOM     16  O   UNL     1       1.473   9.166  22.089  0.00  0.00    +0.000 OA
BRANCH  16  17
ATOM     17  S   UNL     1       0.181   9.434  23.080  0.00  0.00    +0.000 S 
ATOM     18  O   UNL     1      -0.960   8.682  22.600  0.00  0.00    +0.000 OA
ATOM     19  O   UNL     1       0.635   9.339  24.448  0.00  0.00    +0.000 OA
BRANCH  17  20
ATOM     20  O   UNL     1      -0.153  11.001  22.831  0.00  0.00    +0.000 OA
ATOM     21  H   UNL     1      -0.352  11.117  21.879  0.00  0.00    +0.000 HD
ENDBRANCH  17  20
ENDBRANCH  16  17
ENDBRANCH   2  16
BRANCH   1  22
ATOM     22  S   UNL     1       1.080   9.853  18.262  0.00  0.00    +0.000 S 
BRANCH  22  23
ATOM     23  C   UNL     1      -0.724  10.191  18.284  0.00  0.00    +0.000 C 
ATOM     24  O   UNL     1      -1.288   9.995  16.983  0.00  0.00    +0.000 OA
ATOM     25  C   UNL     1      -2.718  10.022  16.979  0.00  0.00    +0.000 C 
ATOM     26  C   UNL     1      -3.228  11.395  17.444  0.00  0.00    +0.000 C 
ATOM     27  C   UNL     1      -2.691  11.684  18.854  0.00  0.00    +0.000 C 
ATOM     28  C   UNL     1      -1.153  11.542  18.920  0.00  0.00    +0.000 C 
BRANCH  26  29
ATOM     29  O   UNL     1      -4.664  11.426  17.408  0.00  0.00    +0.000 OA
ATOM     30  H   UNL     1      -4.986  11.854  18.223  0.00  0.00    +0.000 HD
ENDBRANCH  26  29
BRANCH  27  31
ATOM     31  O   UNL     1      -3.117  12.984  19.279  0.00  0.00    +0.000 OA
ATOM     32  H   UNL     1      -3.793  13.308  18.652  0.00  0.00    +0.000 HD
ENDBRANCH  27  31
BRANCH  28  33
ATOM     33  O   UNL     1      -0.700  11.656  20.277  0.00  0.00    +0.000 OA
ATOM     34  H   UNL     1      -1.275  11.123  20.851  0.00  0.00    +0.000 HD
ENDBRANCH  28  33
BRANCH  25  35
ATOM     35  C   UNL     1      -3.215   9.685  15.563  0.00  0.00    +0.000 C 
BRANCH  35  36
ATOM     36  O   UNL     1      -3.345  10.836  14.737  0.00  0.00    +0.000 OA
ATOM     37  H   UNL     1      -3.133  10.555  13.820  0.00  0.00    +0.000 HD
ENDBRANCH  35  36
ENDBRANCH  25  35
ENDBRANCH  22  23
ENDBRANCH   1  22
TORSDOF 13
ENDMDL
MODEL 7
REMARK VINA RESULT:      -6.9      2.090      7.475
REMARK  Name = 
REMARK  14 active torsions:
REMARK  status: ('A' for Active; 'I' for Inactive)
REMARK    1  A    between atoms: C_1  and  O_2
REMARK    2  A    between atoms: O_2  and  C_3
REMARK    3  A    between atoms: C_10  and  C_11
REMARK    4  A    between atoms: C_11  and  C_12
REMARK    5  A    between atoms: C_12  and  S_19
REMARK    6  A    between atoms: N_13  and  O_14
REMARK    7  A    between atoms: O_14  and  S_15
REMARK    8  A    between atoms: S_15  and  O_18
REMARK    9  A    between atoms: S_19  and  C_20
REMARK   10  A    between atoms: C_22  and  C_23
REMARK   11  A    between atoms: C_23  and  O_24
REMARK   12  A    between atoms: C_25  and  O_26
REMARK   13  A    between atoms: C_27  and  O_28
REMARK   14  A    between atoms: C_29  and  O_30
REMARK                            x       y       z     vdW  Elec       q    Type
REMARK                         _______ _______ _______ _____ _____    ______ ____
ROOT
ATOM      1  C   UNL     1       2.495   6.479  19.352  0.00  0.00    +0.000 C 
ATOM      2  N   UNL     1       2.396   5.202  19.542  0.00  0.00    +0.000 NA
ENDROOT
BRANCH   1   3
ATOM      3  C   UNL     1       1.835   7.573  20.188  0.00  0.00    +0.000 C 
BRANCH   3  11
ATOM      4  C   UNL     1       0.629  10.521  21.256  0.00  0.00    +0.000 A 
ATOM      5  C   UNL     1      -0.029  11.759  21.384  0.00  0.00    +0.000 A 
ATOM      6  C   UNL     1      -0.448  12.484  20.268  0.00  0.00    +0.000 A 
ATOM      7  C   UNL     1      -0.201  12.016  18.982  0.00  0.00    +0.000 A 
ATOM      8  C   UNL     1       0.461  10.789  18.852  0.00  0.00    +0.000 A 
ATOM      9  N   UNL     1       0.845  10.128  17.712  0.00  0.00    +0.000 N 
ATOM     10  C   UNL     1       1.416   8.927  18.028  0.00  0.00    +0.000 A 
ATOM     11  C   UNL     1       1.398   8.778  19.402  0.00  0.00    +0.000 A 
ATOM     12  C   UNL     1       0.852  10.007  19.946  0.00  0.00    +0.000 A 
ATOM     13  H   UNL     1       0.707  10.477  16.771  0.00  0.00    +0.000 HD
BRANCH   4  15
ATOM     14  C   UNL     1       0.107   9.477  23.339  0.00  0.00    +0.000 C 
ATOM     15  O   UNL     1       1.064   9.771  22.323  0.00  0.00    +0.000 OA
ENDBRANCH   4  15
ENDBRANCH   3  11
ENDBRANCH   1   3
BRANCH   2  16
ATOM     16  O   UNL     1       1.709   4.870  20.725  0.00  0.00    +0.000 OA
BRANCH  16  17
ATOM     17  S   UNL     1       1.516   3.241  20.908  0.00  0.00    +0.000 S 
ATOM     18  O   UNL     1       1.522   2.911  22.318  0.00  0.00    +0.000 OA
ATOM     19  O   UNL     1       0.453   2.812  20.030  0.00  0.00    +0.000 OA
BRANCH  17  20
ATOM     20  O   UNL     1       2.882   2.636  20.279  0.00  0.00    +0.000 OA
ATOM     21  H   UNL     1       3.332   3.358  19.792  0.00  0.00    +0.000 HD
ENDBRANCH  17  20
ENDBRANCH  16  17
ENDBRANCH   2  16
BRANCH   1  22
ATOM     22  S   UNL     1       3.504   7.041  18.015  0.00  0.00    +0.000 S 
BRANCH  22  23
ATOM     23  C   UNL     1       4.877   5.825  17.963  0.00  0.00    +0.000 C 
ATOM     24  O   UNL     1       6.017   6.324  18.671  0.00  0.00    +0.000 OA
ATOM     25  C   UNL     1       7.038   5.339  18.862  0.00  0.00    +0.000 C 
ATOM     26  C   UNL     1       7.576   4.858  17.505  0.00  0.00    +0.000 C 
ATOM     27  C   UNL     1       6.419   4.278  16.677  0.00  0.00    +0.000 C 
ATOM     28  C   UNL     1       5.246   5.277  16.557  0.00  0.00    +0.000 C 
BRANCH  26  29
ATOM     29  O   UNL     1       8.622   3.894  17.703  0.00  0.00    +0.000 OA
ATOM     30  H   UNL     1       8.520   3.503  18.591  0.00  0.00    +0.000 HD
ENDBRANCH  26  29
BRANCH  27  31
ATOM     31  O   UNL     1       6.899   3.873  15.389  0.00  0.00    +0.000 OA
ATOM     32  H   UNL     1       7.298   4.650  14.950  0.00  0.00    +0.000 HD
ENDBRANCH  27  31
BRANCH  28  33
ATOM     33  O   UNL     1       4.121   4.649  15.922  0.00  0.00    +0.000 OA
ATOM     34  H   UNL     1       4.221   4.715  14.958  0.00  0.00    +0.000 HD
ENDBRANCH  28  33
BRANCH  25  35
ATOM     35  C   UNL     1       8.153   5.945  19.730  0.00  0.00    +0.000 C 
BRANCH  35  36
ATOM     36  O   UNL     1       8.545   5.089  20.797  0.00  0.00    +0.000 OA
ATOM     37  H   UNL     1       9.478   4.833  20.629  0.00  0.00    +0.000 HD
ENDBRANCH  35  36
ENDBRANCH  25  35
ENDBRANCH  22  23
ENDBRANCH   1  22
TORSDOF 13
ENDMDL
MODEL 8
REMARK VINA RESULT:      -6.8      1.932      7.575
REMARK  Name = 
REMARK  14 active torsions:
REMARK  status: ('A' for Active; 'I' for Inactive)
REMARK    1  A    between atoms: C_1  and  O_2
REMARK    2  A    between atoms: O_2  and  C_3
REMARK    3  A    between atoms: C_10  and  C_11
REMARK    4  A    between atoms: C_11  and  C_12
REMARK    5  A    between atoms: C_12  and  S_19
REMARK    6  A    between atoms: N_13  and  O_14
REMARK    7  A    between atoms: O_14  and  S_15
REMARK    8  A    between atoms: S_15  and  O_18
REMARK    9  A    between atoms: S_19  and  C_20
REMARK   10  A    between atoms: C_22  and  C_23
REMARK   11  A    between atoms: C_23  and  O_24
REMARK   12  A    between atoms: C_25  and  O_26
REMARK   13  A    between atoms: C_27  and  O_28
REMARK   14  A    between atoms: C_29  and  O_30
REMARK                            x       y       z     vdW  Elec       q    Type
REMARK                         _______ _______ _______ _____ _____    ______ ____
ROOT
ATOM      1  C   UNL     1       2.204   6.793  19.318  0.00  0.00    +0.000 C 
ATOM      2  N   UNL     1       2.126   5.509  19.466  0.00  0.00    +0.000 NA
ENDROOT
BRANCH   1   3
ATOM      3  C   UNL     1       1.599   7.849  20.240  0.00  0.00    +0.000 C 
BRANCH   3  11
ATOM      4  C   UNL     1       0.398  10.725  21.496  0.00  0.00    +0.000 A 
ATOM      5  C   UNL     1      -0.280  11.938  21.714  0.00  0.00    +0.000 A 
ATOM      6  C   UNL     1      -0.800  12.687  20.657  0.00  0.00    +0.000 A 
ATOM      7  C   UNL     1      -0.636  12.269  19.342  0.00  0.00    +0.000 A 
ATOM      8  C   UNL     1       0.046  11.067  19.121  0.00  0.00    +0.000 A 
ATOM      9  N   UNL     1       0.362  10.454  17.934  0.00  0.00    +0.000 N 
ATOM     10  C   UNL     1       0.986   9.261  18.165  0.00  0.00    +0.000 A 
ATOM     11  C   UNL     1       1.074   9.066  19.531  0.00  0.00    +0.000 A 
ATOM     12  C   UNL     1       0.538  10.260  20.155  0.00  0.00    +0.000 A 
ATOM     13  H   UNL     1       0.146  10.830  17.018  0.00  0.00    +0.000 HD
BRANCH   4  15
ATOM     14  C   UNL     1       0.018   9.411  23.452  0.00  0.00    +0.000 C 
ATOM     15  O   UNL     1       0.932   9.953  22.501  0.00  0.00    +0.000 OA
ENDBRANCH   4  15
ENDBRANCH   3  11
ENDBRANCH   1   3
BRANCH   2  16
ATOM     16  O   UNL     1       1.527   5.127  20.681  0.00  0.00    +0.000 OA
BRANCH  16  17
ATOM     17  S   UNL     1       1.861   3.562  21.087  0.00  0.00    +0.000 S 
ATOM     18  O   UNL     1       2.772   2.996  20.114  0.00  0.00    +0.000 OA
ATOM     19  O   UNL     1       2.134   3.514  22.504  0.00  0.00    +0.000 OA
BRANCH  17  20
ATOM     20  O   UNL     1       0.435   2.818  20.884  0.00  0.00    +0.000 OA
ATOM     21  H   UNL     1       0.377   2.097  21.546  0.00  0.00    +0.000 HD
ENDBRANCH  17  20
ENDBRANCH  16  17
ENDBRANCH   2  16
BRANCH   1  22
ATOM     22  S   UNL     1       3.112   7.413  17.936  0.00  0.00    +0.000 S 
BRANCH  22  23
ATOM     23  C   UNL     1       4.575   6.308  17.843  0.00  0.00    +0.000 C 
ATOM     24  O   UNL     1       5.767   7.071  17.624  0.00  0.00    +0.000 OA
ATOM     25  C   UNL     1       6.964   6.300  17.766  0.00  0.00    +0.000 C 
ATOM     26  C   UNL     1       7.001   5.173  16.722  0.00  0.00    +0.000 C 
ATOM     27  C   UNL     1       5.763   4.280  16.896  0.00  0.00    +0.000 C 
ATOM     28  C   UNL     1       4.455   5.103  16.870  0.00  0.00    +0.000 C 
BRANCH  26  29
ATOM     29  O   UNL     1       8.218   4.423  16.849  0.00  0.00    +0.000 OA
ATOM     30  H   UNL     1       8.841   4.723  16.161  0.00  0.00    +0.000 HD
ENDBRANCH  26  29
BRANCH  27  31
ATOM     31  O   UNL     1       5.759   3.255  15.895  0.00  0.00    +0.000 OA
ATOM     32  H   UNL     1       5.177   2.531  16.197  0.00  0.00    +0.000 HD
ENDBRANCH  27  31
BRANCH  28  33
ATOM     33  O   UNL     1       3.335   4.268  17.198  0.00  0.00    +0.000 OA
ATOM     34  H   UNL     1       3.621   3.339  17.208  0.00  0.00    +0.000 HD
ENDBRANCH  28  33
BRANCH  25  35
ATOM     35  C   UNL     1       8.175   7.238  17.629  0.00  0.00    +0.000 C 
BRANCH  35  36
ATOM     36  O   UNL     1       7.804   8.570  17.292  0.00  0.00    +0.000 OA
ATOM     37  H   UNL     1       8.637   9.080  17.189  0.00  0.00    +0.000 HD
ENDBRANCH  35  36
ENDBRANCH  25  35
ENDBRANCH  22  23
ENDBRANCH   1  22
TORSDOF 13
ENDMDL
MODEL 9
REMARK VINA RESULT:      -6.8      3.241      5.549
REMARK  Name = 
REMARK  14 active torsions:
REMARK  status: ('A' for Active; 'I' for Inactive)
REMARK    1  A    between atoms: C_1  and  O_2
REMARK    2  A    between atoms: O_2  and  C_3
REMARK    3  A    between atoms: C_10  and  C_11
REMARK    4  A    between atoms: C_11  and  C_12
REMARK    5  A    between atoms: C_12  and  S_19
REMARK    6  A    between atoms: N_13  and  O_14
REMARK    7  A    between atoms: O_14  and  S_15
REMARK    8  A    between atoms: S_15  and  O_18
REMARK    9  A    between atoms: S_19  and  C_20
REMARK   10  A    between atoms: C_22  and  C_23
REMARK   11  A    between atoms: C_23  and  O_24
REMARK   12  A    between atoms: C_25  and  O_26
REMARK   13  A    between atoms: C_27  and  O_28
REMARK   14  A    between atoms: C_29  and  O_30
REMARK                            x       y       z     vdW  Elec       q    Type
REMARK                         _______ _______ _______ _____ _____    ______ ____
ROOT
ATOM      1  C   UNL     1       1.169   9.449  19.941  0.00  0.00    +0.000 C 
ATOM      2  N   UNL     1       1.283  10.168  21.012  0.00  0.00    +0.000 NA
ENDROOT
BRANCH   1   3
ATOM      3  C   UNL     1       1.285   7.929  19.854  0.00  0.00    +0.000 C 
BRANCH   3  11
ATOM      4  C   UNL     1       2.923   4.997  19.822  0.00  0.00    +0.000 A 
ATOM      5  C   UNL     1       3.862   3.962  19.654  0.00  0.00    +0.000 A 
ATOM      6  C   UNL     1       4.891   4.052  18.715  0.00  0.00    +0.000 A 
ATOM      7  C   UNL     1       5.003   5.164  17.888  0.00  0.00    +0.000 A 
ATOM      8  C   UNL     1       4.065   6.191  18.048  0.00  0.00    +0.000 A 
ATOM      9  N   UNL     1       3.940   7.367  17.350  0.00  0.00    +0.000 N 
ATOM     10  C   UNL     1       2.920   8.118  17.863  0.00  0.00    +0.000 A 
ATOM     11  C   UNL     1       2.367   7.439  18.933  0.00  0.00    +0.000 A 
ATOM     12  C   UNL     1       3.049   6.162  19.012  0.00  0.00    +0.000 A 
ATOM     13  H   UNL     1       4.532   7.641  16.575  0.00  0.00    +0.000 HD
BRANCH   4  15
ATOM     14  C   UNL     1       1.381   3.666  21.066  0.00  0.00    +0.000 C 
ATOM     15  O   UNL     1       1.890   4.954  20.728  0.00  0.00    +0.000 OA
ENDBRANCH   4  15
ENDBRANCH   3  11
ENDBRANCH   1   3
BRANCH   2  16
ATOM     16  O   UNL     1       1.391   9.400  22.186  0.00  0.00    +0.000 OA
BRANCH  16  17
ATOM     17  S   UNL     1       0.146   9.670  23.236  0.00  0.00    +0.000 S 
ATOM     18  O   UNL     1       0.564   9.321  24.578  0.00  0.00    +0.000 OA
ATOM     19  O   UNL     1      -0.431  10.957  22.928  0.00  0.00    +0.000 OA
BRANCH  17  20
ATOM     20  O   UNL     1      -0.957   8.570  22.787  0.00  0.00    +0.000 OA
ATOM     21  H   UNL     1      -0.477   7.789  22.441  0.00  0.00    +0.000 HD
ENDBRANCH  17  20
ENDBRANCH  16  17
ENDBRANCH   2  16
BRANCH   1  22
ATOM     22  S   UNL     1       0.825  10.279  18.420  0.00  0.00    +0.000 S 
BRANCH  22  23
ATOM     23  C   UNL     1      -1.004  10.430  18.408  0.00  0.00    +0.000 C 
ATOM     24  O   UNL     1      -1.519  10.193  17.093  0.00  0.00    +0.000 OA
ATOM     25  C   UNL     1      -2.944  10.072  17.058  0.00  0.00    +0.000 C 
ATOM     26  C   UNL     1      -3.602  11.379  17.528  0.00  0.00    +0.000 C 
ATOM     27  C   UNL     1      -3.126  11.705  18.951  0.00  0.00    +0.000 C 
ATOM     28  C   UNL     1      -1.583  11.721  19.048  0.00  0.00    +0.000 C 
BRANCH  26  29
ATOM     29  O   UNL     1      -5.032  11.263  17.461  0.00  0.00    +0.000 OA
ATOM     30  H   UNL     1      -5.420  12.155  17.532  0.00  0.00    +0.000 HD
ENDBRANCH  26  29
BRANCH  27  31
ATOM     31  O   UNL     1      -3.693  12.949  19.381  0.00  0.00    +0.000 OA
ATOM     32  H   UNL     1      -4.664  12.891  19.297  0.00  0.00    +0.000 HD
ENDBRANCH  27  31
BRANCH  28  33
ATOM     33  O   UNL     1      -1.172  11.864  20.416  0.00  0.00    +0.000 OA
ATOM     34  H   UNL     1      -0.507  11.186  20.622  0.00  0.00    +0.000 HD
ENDBRANCH  28  33
BRANCH  25  35
ATOM     35  C   UNL     1      -3.374   9.704  15.629  0.00  0.00    +0.000 C 
BRANCH  35  36
ATOM     36  O   UNL     1      -2.633  10.400  14.634  0.00  0.00    +0.000 OA
ATOM     37  H   UNL     1      -1.690  10.152  14.756  0.00  0.00    +0.000 HD
ENDBRANCH  35  36
ENDBRANCH  25  35
ENDBRANCH  22  23
ENDBRANCH   1  22
TORSDOF 13
ENDMDL
