MODEL 1
REMARK VINA RESULT:      -5.4      0.000      0.000
REMARK  Name = 
REMARK  9 active torsions:
REMARK  status: ('A' for Active; 'I' for Inactive)
REMARK    1  A    between atoms: C_1  and  O_2
REMARK    2  A    between atoms: O_2  and  C_3
REMARK    3  A    between atoms: C_7  and  C_8
REMARK    4  A    between atoms: N_10  and  C_11
REMARK    5  A    between atoms: N_10  and  C_30
REMARK    6  A    between atoms: C_11  and  C_12
REMARK    7  A    between atoms: C_13  and  C_14
REMARK    8  A    between atoms: C_18  and  C_19
REMARK    9  A    between atoms: C_23  and  N_24
REMARK                            x       y       z     vdW  Elec       q    Type
REMARK                         _______ _______ _______ _____ _____    ______ ____
ROOT
ATOM      1  C   UNL     1       1.040  14.613  18.715  0.00  0.00    +0.000 A 
ATOM      2  C   UNL     1       1.148  13.181  18.733  0.00  0.00    +0.000 A 
ATOM      3  N   UNL     1       2.441  12.813  18.752  0.00  0.00    +0.000 NA
ATOM      4  O   UNL     1       3.171  13.965  18.871  0.00  0.00    +0.000 OA
ATOM      5  C   UNL     1       2.343  15.035  18.952  0.00  0.00    +0.000 A 
ENDROOT
BRANCH   2   6
ATOM      6  C   UNL     1       0.103  12.154  18.787  0.00  0.00    +0.000 A 
ATOM      7  C   UNL     1       0.328  10.915  19.393  0.00  0.00    +0.000 A 
ATOM      8  C   UNL     1      -0.659   9.925  19.405  0.00  0.00    +0.000 A 
ATOM      9  C   UNL     1      -1.865  10.140  18.752  0.00  0.00    +0.000 A 
ATOM     10  C   UNL     1      -2.094  11.341  18.081  0.00  0.00    +0.000 A 
ATOM     11  C   UNL     1      -3.330  11.544  17.271  0.00  0.00    +0.000 C 
ATOM     12  C   UNL     1      -1.115  12.346  18.122  0.00  0.00    +0.000 A 
ENDBRANCH   2   6
BRANCH   5  13
ATOM     13  N   UNL     1       2.877  16.243  19.302  0.00  0.00    +0.000 N 
ATOM     14  C   UNL     1       4.031  16.772  18.526  0.00  0.00    +0.000 C 
ATOM     15  C   UNL     1       5.388  16.276  19.070  0.00  0.00    +0.000 C 
ATOM     16  O   UNL     1       5.515  16.483  20.486  0.00  0.00    +0.000 OA
ATOM     17  C   UNL     1       4.440  15.839  21.182  0.00  0.00    +0.000 C 
ATOM     18  C   UNL     1       3.091  16.444  20.753  0.00  0.00    +0.000 C 
ENDBRANCH   5  13
BRANCH   1  19
ATOM     19  C   UNL     1      -0.172  15.487  18.563  0.00  0.00    +0.000 C 
BRANCH  19  22
ATOM     20  C   UNL     1      -0.844  15.908  21.028  0.00  0.00    +0.000 C 
ATOM     21  O   UNL     1      -1.018  16.745  21.924  0.00  0.00    +0.000 OA
ATOM     22  N   UNL     1      -0.443  16.323  19.745  0.00  0.00    +0.000 N 
BRANCH  20  27
ATOM     23  C   UNL     1      -0.918  12.318  22.532  0.00  0.00    +0.000 A 
ATOM     24  C   UNL     1      -2.205  11.963  22.122  0.00  0.00    +0.000 A 
ATOM     25  C   UNL     1      -2.992  12.846  21.403  0.00  0.00    +0.000 A 
ATOM     26  C   UNL     1      -2.470  14.090  21.067  0.00  0.00    +0.000 A 
ATOM     27  C   UNL     1      -1.168  14.494  21.453  0.00  0.00    +0.000 A 
ATOM     28  C   UNL     1      -0.400  13.596  22.230  0.00  0.00    +0.000 A 
BRANCH  23  30
ATOM     29  C   UNL     1      -0.711   9.953  23.008  0.00  0.00    +0.000 C 
ATOM     30  O   UNL     1      -0.337  11.298  23.228  0.00  0.00    +0.000 OA
ENDBRANCH  23  30
ENDBRANCH  20  27
BRANCH  22  31
ATOM     31  C   UNL     1      -0.299  17.769  19.502  0.00  0.00    +0.000 C 
ATOM     32  C   UNL     1      -0.113  18.422  18.153  0.00  0.00    +0.000 C 
ATOM     33  C   UNL     1      -1.425  18.547  18.856  0.00  0.00    +0.000 C 
ENDBRANCH  22  31
ENDBRANCH  19  22
ENDBRANCH   1  19
TORSDOF 7
ENDMDL
MODEL 2
REMARK VINA RESULT:      -5.2      2.209      5.945
REMARK  Name = 
REMARK  9 active torsions:
REMARK  status: ('A' for Active; 'I' for Inactive)
REMARK    1  A    between atoms: C_1  and  O_2
REMARK    2  A    between atoms: O_2  and  C_3
REMARK    3  A    between atoms: C_7  and  C_8
REMARK    4  A    between atoms: N_10  and  C_11
REMARK    5  A    between atoms: N_10  and  C_30
REMARK    6  A    between atoms: C_11  and  C_12
REMARK    7  A    between atoms: C_13  and  C_14
REMARK    8  A    between atoms: C_18  and  C_19
REMARK    9  A    between atoms: C_23  and  N_24
REMARK                            x       y       z     vdW  Elec       q    Type
REMARK                         _______ _______ _______ _____ _____    ______ ____
ROOT
ATOM      1  C   UNL     1       0.248  12.383  19.229  0.00  0.00    +0.000 A 
ATOM      2  C   UNL     1       1.292  13.287  19.625  0.00  0.00    +0.000 A 
ATOM      3  N   UNL     1       1.901  12.835  20.735  0.00  0.00    +0.000 NA
ATOM      4  O   UNL     1       1.364  11.603  20.999  0.00  0.00    +0.000 OA
ATOM      5  C   UNL     1       0.452  11.281  20.050  0.00  0.00    +0.000 A 
ENDROOT
BRANCH   2   6
ATOM      6  C   UNL     1       1.774  14.515  18.985  0.00  0.00    +0.000 A 
ATOM      7  C   UNL     1       2.938  14.528  18.213  0.00  0.00    +0.000 A 
ATOM      8  C   UNL     1       3.414  15.710  17.639  0.00  0.00    +0.000 A 
ATOM      9  C   UNL     1       2.763  16.912  17.885  0.00  0.00    +0.000 A 
ATOM     10  C   UNL     1       1.636  16.942  18.707  0.00  0.00    +0.000 A 
ATOM     11  C   UNL     1       0.995  18.235  19.084  0.00  0.00    +0.000 C 
ATOM     12  C   UNL     1       1.139  15.739  19.233  0.00  0.00    +0.000 A 
ENDBRANCH   2   6
BRANCH   5  13
ATOM     13  N   UNL     1      -0.022   9.999  20.017  0.00  0.00    +0.000 N 
ATOM     14  C   UNL     1      -0.120   9.234  21.289  0.00  0.00    +0.000 C 
ATOM     15  C   UNL     1       1.189   8.494  21.638  0.00  0.00    +0.000 C 
ATOM     16  O   UNL     1       1.678   7.707  20.539  0.00  0.00    +0.000 OA
ATOM     17  C   UNL     1       1.870   8.531  19.382  0.00  0.00    +0.000 C 
ATOM     18  C   UNL     1       0.531   9.147  18.939  0.00  0.00    +0.000 C 
ENDBRANCH   5  13
BRANCH   1  19
ATOM     19  C   UNL     1      -0.782  12.515  18.143  0.00  0.00    +0.000 C 
BRANCH  19  22
ATOM     20  C   UNL     1      -2.787  12.638  19.777  0.00  0.00    +0.000 C 
ATOM     21  O   UNL     1      -3.958  12.304  20.004  0.00  0.00    +0.000 OA
ATOM     22  N   UNL     1      -2.151  12.214  18.596  0.00  0.00    +0.000 N 
BRANCH  20  27
ATOM     23  C   UNL     1      -1.307  15.375  22.116  0.00  0.00    +0.000 A 
ATOM     24  C   UNL     1      -1.091  14.574  23.239  0.00  0.00    +0.000 A 
ATOM     25  C   UNL     1      -1.412  13.227  23.225  0.00  0.00    +0.000 A 
ATOM     26  C   UNL     1      -1.931  12.674  22.061  0.00  0.00    +0.000 A 
ATOM     27  C   UNL     1      -2.162  13.442  20.894  0.00  0.00    +0.000 A 
ATOM     28  C   UNL     1      -1.873  14.826  20.945  0.00  0.00    +0.000 A 
BRANCH  23  30
ATOM     29  C   UNL     1      -1.576  17.753  21.746  0.00  0.00    +0.000 C 
ATOM     30  O   UNL     1      -0.923  16.662  22.362  0.00  0.00    +0.000 OA
ENDBRANCH  23  30
ENDBRANCH  20  27
BRANCH  22  31
ATOM     31  C   UNL     1      -2.900  11.327  17.690  0.00  0.00    +0.000 C 
ATOM     32  C   UNL     1      -2.293  10.407  16.656  0.00  0.00    +0.000 C 
ATOM     33  C   UNL     1      -2.880   9.829  17.903  0.00  0.00    +0.000 C 
ENDBRANCH  22  31
ENDBRANCH  19  22
ENDBRANCH   1  19
TORSDOF 7
ENDMDL
MODEL 3
REMARK VINA RESULT:      -5.2      2.653      4.980
REMARK  Name = 
REMARK  9 active torsions:
REMARK  status: ('A' for Active; 'I' for Inactive)
REMARK    1  A    between atoms: C_1  and  O_2
REMARK    2  A    between atoms: O_2  and  C_3
REMARK    3  A    between atoms: C_7  and  C_8
REMARK    4  A    between atoms: N_10  and  C_11
REMARK    5  A    between atoms: N_10  and  C_30
REMARK    6  A    between atoms: C_11  and  C_12
REMARK    7  A    between atoms: C_13  and  C_14
REMARK    8  A    between atoms: C_18  and  C_19
REMARK    9  A    between atoms: C_23  and  N_24
REMARK                            x       y       z     vdW  Elec       q    Type
REMARK                         _______ _______ _______ _____ _____    ______ ____
ROOT
ATOM      1  C   UNL     1      -1.133  11.837  18.662  0.00  0.00    +0.000 A 
ATOM      2  C   UNL     1      -2.427  11.253  18.443  0.00  0.00    +0.000 A 
ATOM      3  N   UNL     1      -2.304   9.944  18.162  0.00  0.00    +0.000 NA
ATOM      4  O   UNL     1      -0.978   9.637  18.314  0.00  0.00    +0.000 OA
ATOM      5  C   UNL     1      -0.289  10.735  18.711  0.00  0.00    +0.000 A 
ENDROOT
BRANCH   2   6
ATOM      6  C   UNL     1      -3.763  11.850  18.536  0.00  0.00    +0.000 A 
ATOM      7  C   UNL     1      -4.627  11.880  17.439  0.00  0.00    +0.000 A 
ATOM      8  C   UNL     1      -5.884  12.487  17.523  0.00  0.00    +0.000 A 
ATOM      9  C   UNL     1      -6.267  13.129  18.693  0.00  0.00    +0.000 A 
ATOM     10  C   UNL     1      -5.399  13.174  19.784  0.00  0.00    +0.000 A 
ATOM     11  C   UNL     1      -5.739  13.962  21.004  0.00  0.00    +0.000 C 
ATOM     12  C   UNL     1      -4.162  12.515  19.703  0.00  0.00    +0.000 A 
ENDBRANCH   2   6
BRANCH   5  13
ATOM     13  N   UNL     1       1.001  10.572  19.132  0.00  0.00    +0.000 N 
ATOM     14  C   UNL     1       1.986   9.947  18.210  0.00  0.00    +0.000 C 
ATOM     15  C   UNL     1       2.003   8.407  18.316  0.00  0.00    +0.000 C 
ATOM     16  O   UNL     1       2.133   7.956  19.675  0.00  0.00    +0.000 OA
ATOM     17  C   UNL     1       1.078   8.495  20.481  0.00  0.00    +0.000 C 
ATOM     18  C   UNL     1       1.156  10.032  20.502  0.00  0.00    +0.000 C 
ENDBRANCH   5  13
BRANCH   1  19
ATOM     19  C   UNL     1      -0.747  13.273  18.876  0.00  0.00    +0.000 C 
BRANCH  19  22
ATOM     20  C   UNL     1       0.183  13.535  21.278  0.00  0.00    +0.000 C 
ATOM     21  O   UNL     1       1.188  13.672  21.989  0.00  0.00    +0.000 OA
ATOM     22  N   UNL     1       0.316  13.450  19.880  0.00  0.00    +0.000 N 
BRANCH  20  27
ATOM     23  C   UNL     1      -2.989  12.713  23.380  0.00  0.00    +0.000 A 
ATOM     24  C   UNL     1      -3.463  14.018  23.531  0.00  0.00    +0.000 A 
ATOM     25  C   UNL     1      -2.784  15.091  22.981  0.00  0.00    +0.000 A 
ATOM     26  C   UNL     1      -1.630  14.849  22.246  0.00  0.00    +0.000 A 
ATOM     27  C   UNL     1      -1.112  13.544  22.057  0.00  0.00    +0.000 A 
ATOM     28  C   UNL     1      -1.794  12.467  22.669  0.00  0.00    +0.000 A 
BRANCH  23  30
ATOM     29  C   UNL     1      -4.901  12.265  24.796  0.00  0.00    +0.000 C 
ATOM     30  O   UNL     1      -3.813  11.825  24.008  0.00  0.00    +0.000 OA
ENDBRANCH  23  30
ENDBRANCH  20  27
BRANCH  22  31
ATOM     31  C   UNL     1       1.666  13.588  19.306  0.00  0.00    +0.000 C 
ATOM     32  C   UNL     1       1.988  13.736  17.838  0.00  0.00    +0.000 C 
ATOM     33  C   UNL     1       2.121  14.917  18.744  0.00  0.00    +0.000 C 
ENDBRANCH  22  31
ENDBRANCH  19  22
ENDBRANCH   1  19
TORSDOF 7
ENDMDL
MODEL 4
REMARK VINA RESULT:      -5.2      2.959      4.934
REMARK  Name = 
REMARK  9 active torsions:
REMARK  status: ('A' for Active; 'I' for Inactive)
REMARK    1  A    between atoms: C_1  and  O_2
REMARK    2  A    between atoms: O_2  and  C_3
REMARK    3  A    between atoms: C_7  and  C_8
REMARK    4  A    between atoms: N_10  and  C_11
REMARK    5  A    between atoms: N_10  and  C_30
REMARK    6  A    between atoms: C_11  and  C_12
REMARK    7  A    between atoms: C_13  and  C_14
REMARK    8  A    between atoms: C_18  and  C_19
REMARK    9  A    between atoms: C_23  and  N_24
REMARK                            x       y       z     vdW  Elec       q    Type
REMARK                         _______ _______ _______ _____ _____    ______ ____
ROOT
ATOM      1  C   UNL     1      -0.347  12.125  19.339  0.00  0.00    +0.000 A 
ATOM      2  C   UNL     1       0.860  11.420  19.004  0.00  0.00    +0.000 A 
ATOM      3  N   UNL     1       1.743  12.259  18.435  0.00  0.00    +0.000 NA
ATOM      4  O   UNL     1       1.192  13.510  18.503  0.00  0.00    +0.000 OA
ATOM      5  C   UNL     1      -0.008  13.456  19.131  0.00  0.00    +0.000 A 
ENDROOT
BRANCH   2   6
ATOM      6  C   UNL     1       1.237  10.024  19.240  0.00  0.00    +0.000 A 
ATOM      7  C   UNL     1       1.001   9.401  20.469  0.00  0.00    +0.000 A 
ATOM      8  C   UNL     1       1.400   8.082  20.701  0.00  0.00    +0.000 A 
ATOM      9  C   UNL     1       2.100   7.387  19.724  0.00  0.00    +0.000 A 
ATOM     10  C   UNL     1       2.410   8.004  18.512  0.00  0.00    +0.000 A 
ATOM     11  C   UNL     1       3.265   7.320  17.500  0.00  0.00    +0.000 C 
ATOM     12  C   UNL     1       1.956   9.311  18.273  0.00  0.00    +0.000 A 
ENDBRANCH   2   6
BRANCH   5  13
ATOM     13  N   UNL     1      -0.602  14.632  19.495  0.00  0.00    +0.000 N 
ATOM     14  C   UNL     1      -0.376  15.842  18.660  0.00  0.00    +0.000 C 
ATOM     15  C   UNL     1       0.890  16.621  19.077  0.00  0.00    +0.000 C 
ATOM     16  O   UNL     1       0.920  16.893  20.488  0.00  0.00    +0.000 OA
ATOM     17  C   UNL     1       0.826  15.671  21.233  0.00  0.00    +0.000 C 
ATOM     18  C   UNL     1      -0.511  14.969  20.934  0.00  0.00    +0.000 C 
ENDBRANCH   5  13
BRANCH   1  19
ATOM     19  C   UNL     1      -1.653  11.603  19.868  0.00  0.00    +0.000 C 
BRANCH  19  22
ATOM     20  C   UNL     1      -4.036  12.317  19.150  0.00  0.00    +0.000 C 
ATOM     21  O   UNL     1      -4.865  12.377  18.232  0.00  0.00    +0.000 OA
ATOM     22  N   UNL     1      -2.769  11.750  18.918  0.00  0.00    +0.000 N 
BRANCH  20  27
ATOM     23  C   UNL     1      -5.793  12.886  22.577  0.00  0.00    +0.000 A 
ATOM     24  C   UNL     1      -5.190  14.102  22.903  0.00  0.00    +0.000 A 
ATOM     25  C   UNL     1      -4.268  14.691  22.054  0.00  0.00    +0.000 A 
ATOM     26  C   UNL     1      -3.970  14.065  20.850  0.00  0.00    +0.000 A 
ATOM     27  C   UNL     1      -4.559  12.835  20.469  0.00  0.00    +0.000 A 
ATOM     28  C   UNL     1      -5.461  12.226  21.374  0.00  0.00    +0.000 A 
BRANCH  23  30
ATOM     29  C   UNL     1      -7.481  13.434  24.223  0.00  0.00    +0.000 C 
ATOM     30  O   UNL     1      -6.656  12.498  23.560  0.00  0.00    +0.000 OA
ENDBRANCH  23  30
ENDBRANCH  20  27
BRANCH  22  31
ATOM     31  C   UNL     1      -2.499  11.187  17.584  0.00  0.00    +0.000 C 
ATOM     32  C   UNL     1      -1.749   9.907  17.303  0.00  0.00    +0.000 C 
ATOM     33  C   UNL     1      -3.231   9.947  17.119  0.00  0.00    +0.000 C 
ENDBRANCH  22  31
ENDBRANCH  19  22
ENDBRANCH   1  19
TORSDOF 7
ENDMDL
MODEL 5
REMARK VINA RESULT:      -5.2      2.240      4.820
REMARK  Name = 
REMARK  9 active torsions:
REMARK  status: ('A' for Active; 'I' for Inactive)
REMARK    1  A    between atoms: C_1  and  O_2
REMARK    2  A    between atoms: O_2  and  C_3
REMARK    3  A    between atoms: C_7  and  C_8
REMARK    4  A    between atoms: N_10  and  C_11
REMARK    5  A    between atoms: N_10  and  C_30
REMARK    6  A    between atoms: C_11  and  C_12
REMARK    7  A    between atoms: C_13  and  C_14
REMARK    8  A    between atoms: C_18  and  C_19
REMARK    9  A    between atoms: C_23  and  N_24
REMARK                            x       y       z     vdW  Elec       q    Type
REMARK                         _______ _______ _______ _____ _____    ______ ____
ROOT
ATOM      1  C   UNL     1       0.838  13.630  19.822  0.00  0.00    +0.000 A 
ATOM      2  C   UNL     1       0.641  13.605  21.245  0.00  0.00    +0.000 A 
ATOM      3  N   UNL     1       1.721  14.103  21.871  0.00  0.00    +0.000 NA
ATOM      4  O   UNL     1       2.561  14.563  20.892  0.00  0.00    +0.000 OA
ATOM      5  C   UNL     1       1.999  14.378  19.673  0.00  0.00    +0.000 A 
ENDROOT
BRANCH   2   6
ATOM      6  C   UNL     1      -0.523  13.189  22.032  0.00  0.00    +0.000 A 
ATOM      7  C   UNL     1      -0.723  11.853  22.390  0.00  0.00    +0.000 A 
ATOM      8  C   UNL     1      -1.856  11.457  23.106  0.00  0.00    +0.000 A 
ATOM      9  C   UNL     1      -2.839  12.386  23.418  0.00  0.00    +0.000 A 
ATOM     10  C   UNL     1      -2.701  13.714  23.016  0.00  0.00    +0.000 A 
ATOM     11  C   UNL     1      -3.799  14.700  23.232  0.00  0.00    +0.000 C 
ATOM     12  C   UNL     1      -1.533  14.108  22.344  0.00  0.00    +0.000 A 
ENDBRANCH   2   6
BRANCH   5  13
ATOM     13  N   UNL     1       2.584  14.978  18.593  0.00  0.00    +0.000 N 
ATOM     14  C   UNL     1       4.043  14.793  18.369  0.00  0.00    +0.000 C 
ATOM     15  C   UNL     1       4.895  15.840  19.118  0.00  0.00    +0.000 C 
ATOM     16  O   UNL     1       4.449  17.183  18.869  0.00  0.00    +0.000 OA
ATOM     17  C   UNL     1       3.068  17.324  19.227  0.00  0.00    +0.000 C 
ATOM     18  C   UNL     1       2.198  16.390  18.367  0.00  0.00    +0.000 C 
ENDBRANCH   5  13
BRANCH   1  19
ATOM     19  C   UNL     1      -0.017  13.071  18.720  0.00  0.00    +0.000 C 
BRANCH  19  22
ATOM     20  C   UNL     1      -1.382  10.872  18.781  0.00  0.00    +0.000 C 
ATOM     21  O   UNL     1      -1.348   9.635  18.837  0.00  0.00    +0.000 OA
ATOM     22  N   UNL     1      -0.184  11.609  18.793  0.00  0.00    +0.000 N 
BRANCH  20  27
ATOM     23  C   UNL     1      -4.755  12.672  19.511  0.00  0.00    +0.000 A 
ATOM     24  C   UNL     1      -5.389  12.394  18.299  0.00  0.00    +0.000 A 
ATOM     25  C   UNL     1      -4.748  11.667  17.310  0.00  0.00    +0.000 A 
ATOM     26  C   UNL     1      -3.466  11.189  17.554  0.00  0.00    +0.000 A 
ATOM     27  C   UNL     1      -2.783  11.437  18.770  0.00  0.00    +0.000 A 
ATOM     28  C   UNL     1      -3.437  12.224  19.746  0.00  0.00    +0.000 A 
BRANCH  23  30
ATOM     29  C   UNL     1      -6.439  14.388  19.800  0.00  0.00    +0.000 C 
ATOM     30  O   UNL     1      -5.572  13.404  20.325  0.00  0.00    +0.000 OA
ENDBRANCH  23  30
ENDBRANCH  20  27
BRANCH  22  31
ATOM     31  C   UNL     1       1.081  10.868  18.934  0.00  0.00    +0.000 C 
ATOM     32  C   UNL     1       1.542   9.735  18.049  0.00  0.00    +0.000 C 
ATOM     33  C   UNL     1       2.198  11.072  17.935  0.00  0.00    +0.000 C 
ENDBRANCH  22  31
ENDBRANCH  19  22
ENDBRANCH   1  19
TORSDOF 7
ENDMDL
MODEL 6
REMARK VINA RESULT:      -5.2      2.672      4.858
REMARK  Name = 
REMARK  9 active torsions:
REMARK  status: ('A' for Active; 'I' for Inactive)
REMARK    1  A    between atoms: C_1  and  O_2
REMARK    2  A    between atoms: O_2  and  C_3
REMARK    3  A    between atoms: C_7  and  C_8
REMARK    4  A    between atoms: N_10  and  C_11
REMARK    5  A    between atoms: N_10  and  C_30
REMARK    6  A    between atoms: C_11  and  C_12
REMARK    7  A    between atoms: C_13  and  C_14
REMARK    8  A    between atoms: C_18  and  C_19
REMARK    9  A    between atoms: C_23  and  N_24
REMARK                            x       y       z     vdW  Elec       q    Type
REMARK                         _______ _______ _______ _____ _____    ______ ____
ROOT
ATOM      1  C   UNL     1      -1.012  12.058  18.785  0.00  0.00    +0.000 A 
ATOM      2  C   UNL     1      -2.352  11.547  18.707  0.00  0.00    +0.000 A 
ATOM      3  N   UNL     1      -2.332  10.237  18.403  0.00  0.00    +0.000 NA
ATOM      4  O   UNL     1      -1.016   9.858  18.403  0.00  0.00    +0.000 OA
ATOM      5  C   UNL     1      -0.229  10.912  18.729  0.00  0.00    +0.000 A 
ENDROOT
BRANCH   2   6
ATOM      6  C   UNL     1      -3.635  12.212  18.955  0.00  0.00    +0.000 A 
ATOM      7  C   UNL     1      -3.895  12.870  20.160  0.00  0.00    +0.000 A 
ATOM      8  C   UNL     1      -5.135  13.467  20.405  0.00  0.00    +0.000 A 
ATOM      9  C   UNL     1      -6.155  13.357  19.470  0.00  0.00    +0.000 A 
ATOM     10  C   UNL     1      -5.948  12.649  18.287  0.00  0.00    +0.000 A 
ATOM     11  C   UNL     1      -7.065  12.414  17.327  0.00  0.00    +0.000 C 
ATOM     12  C   UNL     1      -4.681  12.100  18.030  0.00  0.00    +0.000 A 
ENDBRANCH   2   6
BRANCH   5  13
ATOM     13  N   UNL     1       1.089  10.675  19.002  0.00  0.00    +0.000 N 
ATOM     14  C   UNL     1       1.923   9.982  17.983  0.00  0.00    +0.000 C 
ATOM     15  C   UNL     1       1.860   8.445  18.113  0.00  0.00    +0.000 C 
ATOM     16  O   UNL     1       2.120   8.002  19.456  0.00  0.00    +0.000 OA
ATOM     17  C   UNL     1       1.199   8.612  20.369  0.00  0.00    +0.000 C 
ATOM     18  C   UNL     1       1.370  10.141  20.354  0.00  0.00    +0.000 C 
ENDBRANCH   5  13
BRANCH   1  19
ATOM     19  C   UNL     1      -0.527  13.469  18.966  0.00  0.00    +0.000 C 
BRANCH  19  22
ATOM     20  C   UNL     1       0.371  13.633  21.389  0.00  0.00    +0.000 C 
ATOM     21  O   UNL     1       1.367  13.735  22.118  0.00  0.00    +0.000 OA
ATOM     22  N   UNL     1       0.523  13.600  19.991  0.00  0.00    +0.000 N 
BRANCH  20  27
ATOM     23  C   UNL     1      -2.798  12.768  23.477  0.00  0.00    +0.000 A 
ATOM     24  C   UNL     1      -3.324  14.058  23.574  0.00  0.00    +0.000 A 
ATOM     25  C   UNL     1      -2.677  15.136  22.993  0.00  0.00    +0.000 A 
ATOM     26  C   UNL     1      -1.505  14.911  22.283  0.00  0.00    +0.000 A 
ATOM     27  C   UNL     1      -0.935  13.621  22.150  0.00  0.00    +0.000 A 
ATOM     28  C   UNL     1      -1.585  12.542  22.793  0.00  0.00    +0.000 A 
BRANCH  23  30
ATOM     29  C   UNL     1      -4.775  12.287  24.790  0.00  0.00    +0.000 C 
ATOM     30  O   UNL     1      -3.598  11.873  24.128  0.00  0.00    +0.000 OA
ENDBRANCH  23  30
ENDBRANCH  20  27
BRANCH  22  31
ATOM     31  C   UNL     1       1.881  13.750  19.441  0.00  0.00    +0.000 C 
ATOM     32  C   UNL     1       2.228  13.908  17.979  0.00  0.00    +0.000 C 
ATOM     33  C   UNL     1       2.337  15.085  18.894  0.00  0.00    +0.000 C 
ENDBRANCH  22  31
ENDBRANCH  19  22
ENDBRANCH   1  19
TORSDOF 7
ENDMDL
MODEL 7
REMARK VINA RESULT:      -5.2      2.713      4.942
REMARK  Name = 
REMARK  9 active torsions:
REMARK  status: ('A' for Active; 'I' for Inactive)
REMARK    1  A    between atoms: C_1  and  O_2
REMARK    2  A    between atoms: O_2  and  C_3
REMARK    3  A    between atoms: C_7  and  C_8
REMARK    4  A    between atoms: N_10  and  C_11
REMARK    5  A    between atoms: N_10  and  C_30
REMARK    6  A    between atoms: C_11  and  C_12
REMARK    7  A    between atoms: C_13  and  C_14
REMARK    8  A    between atoms: C_18  and  C_19
REMARK    9  A    between atoms: C_23  and  N_24
REMARK                            x       y       z     vdW  Elec       q    Type
REMARK                         _______ _______ _______ _____ _____    ______ ____
ROOT
ATOM      1  C   UNL     1      -1.069  12.090  18.823  0.00  0.00    +0.000 A 
ATOM      2  C   UNL     1      -2.400  11.555  18.749  0.00  0.00    +0.000 A 
ATOM      3  N   UNL     1      -2.357  10.248  18.437  0.00  0.00    +0.000 NA
ATOM      4  O   UNL     1      -1.035   9.892  18.428  0.00  0.00    +0.000 OA
ATOM      5  C   UNL     1      -0.265  10.959  18.756  0.00  0.00    +0.000 A 
ENDROOT
BRANCH   2   6
ATOM      6  C   UNL     1      -3.693  12.195  19.007  0.00  0.00    +0.000 A 
ATOM      7  C   UNL     1      -3.979  12.793  20.238  0.00  0.00    +0.000 A 
ATOM      8  C   UNL     1      -5.228  13.366  20.491  0.00  0.00    +0.000 A 
ATOM      9  C   UNL     1      -6.233  13.291  19.536  0.00  0.00    +0.000 A 
ATOM     10  C   UNL     1      -5.999  12.642  18.323  0.00  0.00    +0.000 A 
ATOM     11  C   UNL     1      -7.099  12.443  17.336  0.00  0.00    +0.000 C 
ATOM     12  C   UNL     1      -4.724  12.118  18.062  0.00  0.00    +0.000 A 
ENDBRANCH   2   6
BRANCH   5  13
ATOM     13  N   UNL     1       1.058  10.744  19.021  0.00  0.00    +0.000 N 
ATOM     14  C   UNL     1       1.913  10.131  17.968  0.00  0.00    +0.000 C 
ATOM     15  C   UNL     1       1.893   8.588  18.013  0.00  0.00    +0.000 C 
ATOM     16  O   UNL     1       2.163   8.079  19.330  0.00  0.00    +0.000 OA
ATOM     17  C   UNL     1       1.223   8.612  20.272  0.00  0.00    +0.000 C 
ATOM     18  C   UNL     1       1.351  10.144  20.342  0.00  0.00    +0.000 C 
ENDBRANCH   5  13
BRANCH   1  19
ATOM     19  C   UNL     1      -0.608  13.508  19.010  0.00  0.00    +0.000 C 
BRANCH  19  22
ATOM     20  C   UNL     1       0.437  13.579  21.377  0.00  0.00    +0.000 C 
ATOM     21  O   UNL     1       1.472  13.699  22.048  0.00  0.00    +0.000 OA
ATOM     22  N   UNL     1       0.498  13.642  19.973  0.00  0.00    +0.000 N 
BRANCH  20  27
ATOM     23  C   UNL     1      -2.858  14.066  23.392  0.00  0.00    +0.000 A 
ATOM     24  C   UNL     1      -3.102  12.724  23.691  0.00  0.00    +0.000 A 
ATOM     25  C   UNL     1      -2.241  11.730  23.257  0.00  0.00    +0.000 A 
ATOM     26  C   UNL     1      -1.108  12.091  22.539  0.00  0.00    +0.000 A 
ATOM     27  C   UNL     1      -0.812  13.438  22.216  0.00  0.00    +0.000 A 
ATOM     28  C   UNL     1      -1.730  14.433  22.626  0.00  0.00    +0.000 A 
BRANCH  23  30
ATOM     29  C   UNL     1      -3.544  15.842  24.888  0.00  0.00    +0.000 C 
ATOM     30  O   UNL     1      -3.837  14.861  23.915  0.00  0.00    +0.000 OA
ENDBRANCH  23  30
ENDBRANCH  20  27
BRANCH  22  31
ATOM     31  C   UNL     1       1.805  13.912  19.351  0.00  0.00    +0.000 C 
ATOM     32  C   UNL     1       2.060  14.078  17.871  0.00  0.00    +0.000 C 
ATOM     33  C   UNL     1       2.102  15.275  18.765  0.00  0.00    +0.000 C 
ENDBRANCH  22  31
ENDBRANCH  19  22
ENDBRANCH   1  19
TORSDOF 7
ENDMDL
MODEL 8
REMARK VINA RESULT:      -5.2      2.255      5.734
REMARK  Name = 
REMARK  9 active torsions:
REMARK  status: ('A' for Active; 'I' for Inactive)
REMARK    1  A    between atoms: C_1  and  O_2
REMARK    2  A    between atoms: O_2  and  C_3
REMARK    3  A    between atoms: C_7  and  C_8
REMARK    4  A    between atoms: N_10  and  C_11
REMARK    5  A    between atoms: N_10  and  C_30
REMARK    6  A    between atoms: C_11  and  C_12
REMARK    7  A    between atoms: C_13  and  C_14
REMARK    8  A    between atoms: C_18  and  C_19
REMARK    9  A    between atoms: C_23  and  N_24
REMARK                            x       y       z     vdW  Elec       q    Type
REMARK                         _______ _______ _______ _____ _____    ______ ____
ROOT
ATOM      1  C   UNL     1       0.265  12.575  19.460  0.00  0.00    +0.000 A 
ATOM      2  C   UNL     1       1.394  13.436  19.681  0.00  0.00    +0.000 A 
ATOM      3  N   UNL     1       2.069  13.043  20.776  0.00  0.00    +0.000 NA
ATOM      4  O   UNL     1       1.482  11.880  21.199  0.00  0.00    +0.000 OA
ATOM      5  C   UNL     1       0.471  11.539  20.363  0.00  0.00    +0.000 A 
ENDROOT
BRANCH   2   6
ATOM      6  C   UNL     1       1.893  14.565  18.891  0.00  0.00    +0.000 A 
ATOM      7  C   UNL     1       3.111  14.496  18.208  0.00  0.00    +0.000 A 
ATOM      8  C   UNL     1       3.600  15.591  17.489  0.00  0.00    +0.000 A 
ATOM      9  C   UNL     1       2.905  16.793  17.497  0.00  0.00    +0.000 A 
ATOM     10  C   UNL     1       1.720  16.912  18.224  0.00  0.00    +0.000 A 
ATOM     11  C   UNL     1       1.024  18.226  18.346  0.00  0.00    +0.000 C 
ATOM     12  C   UNL     1       1.214  15.790  18.897  0.00  0.00    +0.000 A 
ENDBRANCH   2   6
BRANCH   5  13
ATOM     13  N   UNL     1      -0.083  10.297  20.491  0.00  0.00    +0.000 N 
ATOM     14  C   UNL     1      -0.065   9.633  21.822  0.00  0.00    +0.000 C 
ATOM     15  C   UNL     1       1.229   8.827  22.064  0.00  0.00    +0.000 C 
ATOM     16  O   UNL     1       1.521   7.930  20.980  0.00  0.00    +0.000 OA
ATOM     17  C   UNL     1       1.615   8.654  19.746  0.00  0.00    +0.000 C 
ATOM     18  C   UNL     1       0.272   9.332  19.424  0.00  0.00    +0.000 C 
ENDBRANCH   5  13
BRANCH   1  19
ATOM     19  C   UNL     1      -0.847  12.683  18.455  0.00  0.00    +0.000 C 
BRANCH  19  22
ATOM     20  C   UNL     1      -2.807  12.882  20.135  0.00  0.00    +0.000 C 
ATOM     21  O   UNL     1      -3.935  12.488  20.460  0.00  0.00    +0.000 OA
ATOM     22  N   UNL     1      -2.169  12.338  19.006  0.00  0.00    +0.000 N 
BRANCH  20  27
ATOM     23  C   UNL     1      -1.185  14.813  23.101  0.00  0.00    +0.000 A 
ATOM     24  C   UNL     1      -1.118  16.071  22.499  0.00  0.00    +0.000 A 
ATOM     25  C   UNL     1      -1.574  16.267  21.207  0.00  0.00    +0.000 A 
ATOM     26  C   UNL     1      -2.129  15.194  20.521  0.00  0.00    +0.000 A 
ATOM     27  C   UNL     1      -2.226  13.900  21.090  0.00  0.00    +0.000 A 
ATOM     28  C   UNL     1      -1.710  13.710  22.393  0.00  0.00    +0.000 A 
BRANCH  23  30
ATOM     29  C   UNL     1      -1.020  15.897  25.260  0.00  0.00    +0.000 C 
ATOM     30  O   UNL     1      -0.676  14.858  24.367  0.00  0.00    +0.000 OA
ENDBRANCH  23  30
ENDBRANCH  20  27
BRANCH  22  31
ATOM     31  C   UNL     1      -2.858  11.260  18.277  0.00  0.00    +0.000 C 
ATOM     32  C   UNL     1      -3.923  11.449  17.223  0.00  0.00    +0.000 C 
ATOM     33  C   UNL     1      -2.553  11.012  16.816  0.00  0.00    +0.000 C 
ENDBRANCH  22  31
ENDBRANCH  19  22
ENDBRANCH   1  19
TORSDOF 7
ENDMDL
MODEL 9
REMARK VINA RESULT:      -5.2      2.538      5.122
REMARK  Name = 
REMARK  9 active torsions:
REMARK  status: ('A' for Active; 'I' for Inactive)
REMARK    1  A    between atoms: C_1  and  O_2
REMARK    2  A    between atoms: O_2  and  C_3
REMARK    3  A    between atoms: C_7  and  C_8
REMARK    4  A    between atoms: N_10  and  C_11
REMARK    5  A    between atoms: N_10  and  C_30
REMARK    6  A    between atoms: C_11  and  C_12
REMARK    7  A    between atoms: C_13  and  C_14
REMARK    8  A    between atoms: C_18  and  C_19
REMARK    9  A    between atoms: C_23  and  N_24
REMARK                            x       y       z     vdW  Elec       q    Type
REMARK                         _______ _______ _______ _____ _____    ______ ____
ROOT
ATOM      1  C   UNL     1      -0.685  11.788  19.919  0.00  0.00    +0.000 A 
ATOM      2  C   UNL     1      -1.832  12.584  19.583  0.00  0.00    +0.000 A 
ATOM      3  N   UNL     1      -1.507  13.889  19.584  0.00  0.00    +0.000 NA
ATOM      4  O   UNL     1      -0.155  13.953  19.791  0.00  0.00    +0.000 OA
ATOM      5  C   UNL     1       0.360  12.703  19.890  0.00  0.00    +0.000 A 
ENDROOT
BRANCH   2   6
ATOM      6  C   UNL     1      -3.191  12.178  19.212  0.00  0.00    +0.000 A 
ATOM      7  C   UNL     1      -3.445  11.466  18.036  0.00  0.00    +0.000 A 
ATOM      8  C   UNL     1      -4.747  11.117  17.669  0.00  0.00    +0.000 A 
ATOM      9  C   UNL     1      -5.822  11.532  18.443  0.00  0.00    +0.000 A 
ATOM     10  C   UNL     1      -5.606  12.301  19.587  0.00  0.00    +0.000 A 
ATOM     11  C   UNL     1      -6.749  12.860  20.364  0.00  0.00    +0.000 C 
ATOM     12  C   UNL     1      -4.289  12.599  19.973  0.00  0.00    +0.000 A 
ENDBRANCH   2   6
BRANCH   5  13
ATOM     13  N   UNL     1       1.719  12.560  19.869  0.00  0.00    +0.000 N 
ATOM     14  C   UNL     1       2.549  13.434  20.741  0.00  0.00    +0.000 C 
ATOM     15  C   UNL     1       2.913  14.772  20.063  0.00  0.00    +0.000 C 
ATOM     16  O   UNL     1       3.472  14.584  18.753  0.00  0.00    +0.000 OA
ATOM     17  C   UNL     1       2.565  13.843  17.926  0.00  0.00    +0.000 C 
ATOM     18  C   UNL     1       2.323  12.445  18.522  0.00  0.00    +0.000 C 
ENDBRANCH   5  13
BRANCH   1  19
ATOM     19  C   UNL     1      -0.576  10.310  20.168  0.00  0.00    +0.000 C 
BRANCH  19  22
ATOM     20  C   UNL     1      -0.336  10.466  22.741  0.00  0.00    +0.000 C 
ATOM     21  O   UNL     1       0.267  10.073  23.750  0.00  0.00    +0.000 OA
ATOM     22  N   UNL     1       0.024   9.979  21.472  0.00  0.00    +0.000 N 
BRANCH  20  27
ATOM     23  C   UNL     1      -3.543  12.481  23.640  0.00  0.00    +0.000 A 
ATOM     24  C   UNL     1      -2.978  13.758  23.628  0.00  0.00    +0.000 A 
ATOM     25  C   UNL     1      -1.635  13.940  23.346  0.00  0.00    +0.000 A 
ATOM     26  C   UNL     1      -0.857  12.829  23.044  0.00  0.00    +0.000 A 
ATOM     27  C   UNL     1      -1.383  11.515  23.036  0.00  0.00    +0.000 A 
ATOM     28  C   UNL     1      -2.746  11.346  23.375  0.00  0.00    +0.000 A 
BRANCH  23  30
ATOM     29  C   UNL     1      -5.623  13.718  23.711  0.00  0.00    +0.000 C 
ATOM     30  O   UNL     1      -4.871  12.545  23.947  0.00  0.00    +0.000 OA
ENDBRANCH  23  30
ENDBRANCH  20  27
BRANCH  22  31
ATOM     31  C   UNL     1       1.163   9.048  21.388  0.00  0.00    +0.000 C 
ATOM     32  C   UNL     1       1.068   7.556  21.172  0.00  0.00    +0.000 C 
ATOM     33  C   UNL     1       1.546   8.432  20.060  0.00  0.00    +0.000 C 
ENDBRANCH  22  31
ENDBRANCH  19  22
ENDBRANCH   1  19
TORSDOF 7
ENDMDL
