MODEL 1
REMARK VINA RESULT:      -7.4      0.000      0.000
REMARK  Name = 
REMARK  9 active torsions:
REMARK  status: ('A' for Active; 'I' for Inactive)
REMARK    1  A    between atoms: C_1  and  O_2
REMARK    2  A    between atoms: O_2  and  C_3
REMARK    3  A    between atoms: C_9  and  N_10
REMARK    4  A    between atoms: C_11  and  C_13
REMARK    5  A    between atoms: C_13  and  N_14
REMARK    6  A    between atoms: N_14  and  C_15
REMARK    7  A    between atoms: C_16  and  C_18
REMARK    8  A    between atoms: C_18  and  O_19
REMARK    9  A    between atoms: O_19  and  C_20
REMARK                            x       y       z     vdW  Elec       q    Type
REMARK                         _______ _______ _______ _____ _____    ______ ____
ROOT
ATOM      1  C   UNL     1       2.211   2.255  19.040  0.00  0.00    +0.000 C 
ENDROOT
BRANCH   1   3
ATOM      2  N   UNL     1       3.787   3.584  17.660  0.00  0.00    +0.000 N 
ATOM      3  C   UNL     1       3.461   2.334  18.163  0.00  0.00    +0.000 C 
ATOM      4  O   UNL     1       4.142   1.315  18.023  0.00  0.00    +0.000 OA
ATOM      5  H   UNL     1       3.092   4.319  17.733  0.00  0.00    +0.000 HD
BRANCH   2  12
ATOM      6  C   UNL     1       6.072   4.456  17.544  0.00  0.00    +0.000 A 
ATOM      7  C   UNL     1       7.205   4.801  16.789  0.00  0.00    +0.000 A 
ATOM      8  C   UNL     1       7.226   4.614  15.405  0.00  0.00    +0.000 A 
ATOM      9  C   UNL     1       6.127   4.049  14.778  0.00  0.00    +0.000 A 
ATOM     10 CL   UNL     1       6.152   3.805  13.072  0.00  0.00    +0.000 Cl
ATOM     11  C   UNL     1       5.002   3.681  15.513  0.00  0.00    +0.000 A 
ATOM     12  C   UNL     1       4.946   3.898  16.898  0.00  0.00    +0.000 A 
BRANCH   6  14
ATOM     13  C   UNL     1       7.013   5.441  19.487  0.00  0.00    +0.000 C 
ATOM     14  O   UNL     1       5.978   4.646  18.903  0.00  0.00    +0.000 OA
ENDBRANCH   6  14
ENDBRANCH   2  12
ENDBRANCH   1   3
BRANCH   1  15
ATOM     15  N   UNL     1       2.034   3.309  20.039  0.00  0.00    +0.000 N 
ATOM     16  C   UNL     1       2.505   3.026  21.389  0.00  0.00    +0.000 C 
ATOM     17  C   UNL     1       1.653   4.576  19.605  0.00  0.00    +0.000 C 
ATOM     18  O   UNL     1       1.378   4.808  18.424  0.00  0.00    +0.000 OA
BRANCH  17  19
ATOM     19  C   UNL     1       1.541   5.682  20.654  0.00  0.00    +0.000 C 
BRANCH  19  20
ATOM     20  O   UNL     1       2.465   6.734  20.398  0.00  0.00    +0.000 OA
BRANCH  20  21
ATOM     21  C   UNL     1       1.964   7.827  19.735  0.00  0.00    +0.000 A 
ATOM     22  C   UNL     1       1.131   8.652  20.500  0.00  0.00    +0.000 A 
ATOM     23  C   UNL     1       0.530   9.783  19.934  0.00  0.00    +0.000 A 
ATOM     24  C   UNL     1       0.755  10.098  18.594  0.00  0.00    +0.000 A 
ATOM     25  C   UNL     1       1.589   9.291  17.828  0.00  0.00    +0.000 A 
ATOM     26  C   UNL     1       2.189   8.170  18.397  0.00  0.00    +0.000 A 
ATOM     27  F   UNL     1       2.982   7.435  17.604  0.00  0.00    +0.000 F 
ENDBRANCH  20  21
ENDBRANCH  19  20
ENDBRANCH  17  19
ENDBRANCH   1  15
TORSDOF 7
ENDMDL
MODEL 2
REMARK VINA RESULT:      -7.2      5.356      7.516
REMARK  Name = 
REMARK  9 active torsions:
REMARK  status: ('A' for Active; 'I' for Inactive)
REMARK    1  A    between atoms: C_1  and  O_2
REMARK    2  A    between atoms: O_2  and  C_3
REMARK    3  A    between atoms: C_9  and  N_10
REMARK    4  A    between atoms: C_11  and  C_13
REMARK    5  A    between atoms: C_13  and  N_14
REMARK    6  A    between atoms: N_14  and  C_15
REMARK    7  A    between atoms: C_16  and  C_18
REMARK    8  A    between atoms: C_18  and  O_19
REMARK    9  A    between atoms: O_19  and  C_20
REMARK                            x       y       z     vdW  Elec       q    Type
REMARK                         _______ _______ _______ _____ _____    ______ ____
ROOT
ATOM      1  C   UNL     1       8.257   7.230  18.490  0.00  0.00    +0.000 C 
ENDROOT
BRANCH   1   3
ATOM      2  N   UNL     1       9.318   9.370  19.162  0.00  0.00    +0.000 N 
ATOM      3  C   UNL     1       8.349   8.753  18.386  0.00  0.00    +0.000 C 
ATOM      4  O   UNL     1       7.624   9.328  17.571  0.00  0.00    +0.000 OA
ATOM      5  H   UNL     1       9.767   8.817  19.885  0.00  0.00    +0.000 HD
BRANCH   2  12
ATOM      6  C   UNL     1       9.361  11.536  20.303  0.00  0.00    +0.000 A 
ATOM      7  C   UNL     1       9.637  12.913  20.288  0.00  0.00    +0.000 A 
ATOM      8  C   UNL     1      10.159  13.524  19.147  0.00  0.00    +0.000 A 
ATOM      9  C   UNL     1      10.441  12.754  18.030  0.00  0.00    +0.000 A 
ATOM     10 CL   UNL     1      11.097  13.502  16.623  0.00  0.00    +0.000 Cl
ATOM     11  C   UNL     1      10.194  11.383  18.033  0.00  0.00    +0.000 A 
ATOM     12  C   UNL     1       9.631  10.756  19.156  0.00  0.00    +0.000 A 
BRANCH   6  14
ATOM     13  C   UNL     1       8.347  11.723  22.440  0.00  0.00    +0.000 C 
ATOM     14  O   UNL     1       8.817  10.881  21.385  0.00  0.00    +0.000 OA
ENDBRANCH   6  14
ENDBRANCH   2  12
ENDBRANCH   1   3
BRANCH   1  15
ATOM     15  N   UNL     1       6.963   6.622  18.178  0.00  0.00    +0.000 N 
ATOM     16  C   UNL     1       6.377   6.943  16.882  0.00  0.00    +0.000 C 
ATOM     17  C   UNL     1       6.487   5.614  19.011  0.00  0.00    +0.000 C 
ATOM     18  O   UNL     1       7.078   5.283  20.044  0.00  0.00    +0.000 OA
BRANCH  17  19
ATOM     19  C   UNL     1       5.166   4.943  18.631  0.00  0.00    +0.000 C 
BRANCH  19  20
ATOM     20  O   UNL     1       4.465   4.492  19.785  0.00  0.00    +0.000 OA
BRANCH  20  21
ATOM     21  C   UNL     1       3.270   3.857  19.553  0.00  0.00    +0.000 A 
ATOM     22  C   UNL     1       3.233   3.070  18.396  0.00  0.00    +0.000 A 
ATOM     23  C   UNL     1       2.063   2.394  18.029  0.00  0.00    +0.000 A 
ATOM     24  C   UNL     1       0.916   2.502  18.815  0.00  0.00    +0.000 A 
ATOM     25  C   UNL     1       0.945   3.273  19.972  0.00  0.00    +0.000 A 
ATOM     26  C   UNL     1       2.113   3.939  20.337  0.00  0.00    +0.000 A 
ATOM     27  F   UNL     1       2.074   4.665  21.463  0.00  0.00    +0.000 F 
ENDBRANCH  20  21
ENDBRANCH  19  20
ENDBRANCH  17  19
ENDBRANCH   1  15
TORSDOF 7
ENDMDL
MODEL 3
REMARK VINA RESULT:      -7.2      4.754      6.966
REMARK  Name = 
REMARK  9 active torsions:
REMARK  status: ('A' for Active; 'I' for Inactive)
REMARK    1  A    between atoms: C_1  and  O_2
REMARK    2  A    between atoms: O_2  and  C_3
REMARK    3  A    between atoms: C_9  and  N_10
REMARK    4  A    between atoms: C_11  and  C_13
REMARK    5  A    between atoms: C_13  and  N_14
REMARK    6  A    between atoms: N_14  and  C_15
REMARK    7  A    between atoms: C_16  and  C_18
REMARK    8  A    between atoms: C_18  and  O_19
REMARK    9  A    between atoms: O_19  and  C_20
REMARK                            x       y       z     vdW  Elec       q    Type
REMARK                         _______ _______ _______ _____ _____    ______ ____
ROOT
ATOM      1  C   UNL     1       7.028   5.131  17.695  0.00  0.00    +0.000 C 
ENDROOT
BRANCH   1   3
ATOM      2  N   UNL     1       5.120   4.793  19.245  0.00  0.00    +0.000 N 
ATOM      3  C   UNL     1       5.530   4.926  17.928  0.00  0.00    +0.000 C 
ATOM      4  O   UNL     1       4.776   4.972  16.953  0.00  0.00    +0.000 OA
ATOM      5  H   UNL     1       5.834   4.644  19.951  0.00  0.00    +0.000 HD
BRANCH   2  12
ATOM      6  C   UNL     1       3.144   3.415  19.689  0.00  0.00    +0.000 A 
ATOM      7  C   UNL     1       1.805   3.306  20.095  0.00  0.00    +0.000 A 
ATOM      8  C   UNL     1       1.082   4.435  20.484  0.00  0.00    +0.000 A 
ATOM      9  C   UNL     1       1.707   5.671  20.504  0.00  0.00    +0.000 A 
ATOM     10 CL   UNL     1       0.823   7.066  20.995  0.00  0.00    +0.000 Cl
ATOM     11  C   UNL     1       3.042   5.797  20.124  0.00  0.00    +0.000 A 
ATOM     12  C   UNL     1       3.774   4.680  19.691  0.00  0.00    +0.000 A 
BRANCH   6  14
ATOM     13  C   UNL     1       3.220   1.407  18.429  0.00  0.00    +0.000 C 
ATOM     14  O   UNL     1       3.900   2.347  19.264  0.00  0.00    +0.000 OA
ENDBRANCH   6  14
ENDBRANCH   2  12
ENDBRANCH   1   3
BRANCH   1  15
ATOM     15  N   UNL     1       7.666   6.230  18.420  0.00  0.00    +0.000 N 
ATOM     16  C   UNL     1       8.375   5.888  19.647  0.00  0.00    +0.000 C 
ATOM     17  C   UNL     1       7.761   7.469  17.795  0.00  0.00    +0.000 C 
ATOM     18  O   UNL     1       7.248   7.688  16.693  0.00  0.00    +0.000 OA
BRANCH  17  19
ATOM     19  C   UNL     1       8.492   8.587  18.539  0.00  0.00    +0.000 C 
BRANCH  19  20
ATOM     20  O   UNL     1       8.182   9.863  17.990  0.00  0.00    +0.000 OA
BRANCH  20  21
ATOM     21  C   UNL     1       8.935  10.915  18.449  0.00  0.00    +0.000 A 
ATOM     22  C   UNL     1       9.783  10.613  19.521  0.00  0.00    +0.000 A 
ATOM     23  C   UNL     1      10.582  11.605  20.102  0.00  0.00    +0.000 A 
ATOM     24  C   UNL     1      10.539  12.911  19.617  0.00  0.00    +0.000 A 
ATOM     25  C   UNL     1       9.708  13.221  18.546  0.00  0.00    +0.000 A 
ATOM     26  C   UNL     1       8.919  12.229  17.967  0.00  0.00    +0.000 A 
ATOM     27  F   UNL     1       8.141  12.593  16.938  0.00  0.00    +0.000 F 
ENDBRANCH  20  21
ENDBRANCH  19  20
ENDBRANCH  17  19
ENDBRANCH   1  15
TORSDOF 7
ENDMDL
MODEL 4
REMARK VINA RESULT:      -7.2      4.611      8.849
REMARK  Name = 
REMARK  9 active torsions:
REMARK  status: ('A' for Active; 'I' for Inactive)
REMARK    1  A    between atoms: C_1  and  O_2
REMARK    2  A    between atoms: O_2  and  C_3
REMARK    3  A    between atoms: C_9  and  N_10
REMARK    4  A    between atoms: C_11  and  C_13
REMARK    5  A    between atoms: C_13  and  N_14
REMARK    6  A    between atoms: N_14  and  C_15
REMARK    7  A    between atoms: C_16  and  C_18
REMARK    8  A    between atoms: C_18  and  O_19
REMARK    9  A    between atoms: O_19  and  C_20
REMARK                            x       y       z     vdW  Elec       q    Type
REMARK                         _______ _______ _______ _____ _____    ______ ____
ROOT
ATOM      1  C   UNL     1       0.906  10.308  19.795  0.00  0.00    +0.000 C 
ENDROOT
BRANCH   1   3
ATOM      2  N   UNL     1      -1.222  10.185  18.524  0.00  0.00    +0.000 N 
ATOM      3  C   UNL     1      -0.112  10.948  18.850  0.00  0.00    +0.000 C 
ATOM      4  O   UNL     1       0.069  12.118  18.502  0.00  0.00    +0.000 OA
ATOM      5  H   UNL     1      -1.204   9.198  18.763  0.00  0.00    +0.000 HD
BRANCH   2  12
ATOM      6  C   UNL     1      -3.322  11.427  18.320  0.00  0.00    +0.000 A 
ATOM      7  C   UNL     1      -4.431  11.823  17.554  0.00  0.00    +0.000 A 
ATOM      8  C   UNL     1      -4.569  11.407  16.229  0.00  0.00    +0.000 A 
ATOM      9  C   UNL     1      -3.581  10.624  15.654  0.00  0.00    +0.000 A 
ATOM     10 CL   UNL     1      -3.741  10.118  14.015  0.00  0.00    +0.000 Cl
ATOM     11  C   UNL     1      -2.463  10.239  16.391  0.00  0.00    +0.000 A 
ATOM     12  C   UNL     1      -2.325  10.613  17.737  0.00  0.00    +0.000 A 
BRANCH   6  14
ATOM     13  C   UNL     1      -3.949  12.864  20.100  0.00  0.00    +0.000 C 
ATOM     14  O   UNL     1      -3.144  11.777  19.639  0.00  0.00    +0.000 OA
ENDBRANCH   6  14
ENDBRANCH   2  12
ENDBRANCH   1   3
BRANCH   1  15
ATOM     15  N   UNL     1       1.538   9.067  19.346  0.00  0.00    +0.000 N 
ATOM     16  C   UNL     1       2.164   9.084  18.030  0.00  0.00    +0.000 C 
ATOM     17  C   UNL     1       1.708   8.039  20.269  0.00  0.00    +0.000 C 
ATOM     18  O   UNL     1       1.267   8.111  21.419  0.00  0.00    +0.000 OA
BRANCH  17  19
ATOM     19  C   UNL     1       2.432   6.777  19.799  0.00  0.00    +0.000 C 
BRANCH  19  20
ATOM     20  O   UNL     1       1.912   5.615  20.437  0.00  0.00    +0.000 OA
BRANCH  20  21
ATOM     21  C   UNL     1       1.927   4.462  19.693  0.00  0.00    +0.000 A 
ATOM     22  C   UNL     1       2.489   4.588  18.417  0.00  0.00    +0.000 A 
ATOM     23  C   UNL     1       2.538   3.493  17.545  0.00  0.00    +0.000 A 
ATOM     24  C   UNL     1       2.020   2.261  17.941  0.00  0.00    +0.000 A 
ATOM     25  C   UNL     1       1.468   2.121  19.210  0.00  0.00    +0.000 A 
ATOM     26  C   UNL     1       1.428   3.212  20.076  0.00  0.00    +0.000 A 
ATOM     27  F   UNL     1       0.884   3.010  21.285  0.00  0.00    +0.000 F 
ENDBRANCH  20  21
ENDBRANCH  19  20
ENDBRANCH  17  19
ENDBRANCH   1  15
TORSDOF 7
ENDMDL
MODEL 5
REMARK VINA RESULT:      -7.2      5.247      7.202
REMARK  Name = 
REMARK  9 active torsions:
REMARK  status: ('A' for Active; 'I' for Inactive)
REMARK    1  A    between atoms: C_1  and  O_2
REMARK    2  A    between atoms: O_2  and  C_3
REMARK    3  A    between atoms: C_9  and  N_10
REMARK    4  A    between atoms: C_11  and  C_13
REMARK    5  A    between atoms: C_13  and  N_14
REMARK    6  A    between atoms: N_14  and  C_15
REMARK    7  A    between atoms: C_16  and  C_18
REMARK    8  A    between atoms: C_18  and  O_19
REMARK    9  A    between atoms: O_19  and  C_20
REMARK                            x       y       z     vdW  Elec       q    Type
REMARK                         _______ _______ _______ _____ _____    ______ ____
ROOT
ATOM      1  C   UNL     1       8.177   7.080  18.591  0.00  0.00    +0.000 C 
ENDROOT
BRANCH   1   3
ATOM      2  N   UNL     1       9.272   9.222  19.199  0.00  0.00    +0.000 N 
ATOM      3  C   UNL     1       8.294   8.598  18.441  0.00  0.00    +0.000 C 
ATOM      4  O   UNL     1       7.579   9.159  17.608  0.00  0.00    +0.000 OA
ATOM      5  H   UNL     1       9.712   8.685  19.939  0.00  0.00    +0.000 HD
BRANCH   2  12
ATOM      6  C   UNL     1       9.354  11.421  20.274  0.00  0.00    +0.000 A 
ATOM      7  C   UNL     1       9.652  12.792  20.216  0.00  0.00    +0.000 A 
ATOM      8  C   UNL     1      10.180  13.361  19.056  0.00  0.00    +0.000 A 
ATOM      9  C   UNL     1      10.447  12.553  17.962  0.00  0.00    +0.000 A 
ATOM     10 CL   UNL     1      11.110  13.247  16.532  0.00  0.00    +0.000 Cl
ATOM     11  C   UNL     1      10.177  11.186  18.007  0.00  0.00    +0.000 A 
ATOM     12  C   UNL     1       9.608  10.603  19.150  0.00  0.00    +0.000 A 
BRANCH   6  14
ATOM     13  C   UNL     1       8.299  11.690  22.382  0.00  0.00    +0.000 C 
ATOM     14  O   UNL     1       8.802  10.808  21.376  0.00  0.00    +0.000 OA
ENDBRANCH   6  14
ENDBRANCH   2  12
ENDBRANCH   1   3
BRANCH   1  15
ATOM     15  N   UNL     1       7.091   6.424  17.863  0.00  0.00    +0.000 N 
ATOM     16  C   UNL     1       7.150   6.471  16.407  0.00  0.00    +0.000 C 
ATOM     17  C   UNL     1       6.212   5.613  18.574  0.00  0.00    +0.000 C 
ATOM     18  O   UNL     1       6.270   5.502  19.803  0.00  0.00    +0.000 OA
BRANCH  17  19
ATOM     19  C   UNL     1       5.125   4.881  17.786  0.00  0.00    +0.000 C 
BRANCH  19  20
ATOM     20  O   UNL     1       3.873   5.550  17.889  0.00  0.00    +0.000 OA
BRANCH  20  21
ATOM     21  C   UNL     1       2.872   4.858  18.524  0.00  0.00    +0.000 A 
ATOM     22  C   UNL     1       2.554   5.321  19.807  0.00  0.00    +0.000 A 
ATOM     23  C   UNL     1       1.572   4.683  20.574  0.00  0.00    +0.000 A 
ATOM     24  C   UNL     1       0.899   3.572  20.067  0.00  0.00    +0.000 A 
ATOM     25  C   UNL     1       1.199   3.110  18.789  0.00  0.00    +0.000 A 
ATOM     26  C   UNL     1       2.173   3.752  18.027  0.00  0.00    +0.000 A 
ATOM     27  F   UNL     1       2.414   3.257  16.805  0.00  0.00    +0.000 F 
ENDBRANCH  20  21
ENDBRANCH  19  20
ENDBRANCH  17  19
ENDBRANCH   1  15
TORSDOF 7
ENDMDL
MODEL 6
REMARK VINA RESULT:      -7.2      1.029      1.394
REMARK  Name = 
REMARK  9 active torsions:
REMARK  status: ('A' for Active; 'I' for Inactive)
REMARK    1  A    between atoms: C_1  and  O_2
REMARK    2  A    between atoms: O_2  and  C_3
REMARK    3  A    between atoms: C_9  and  N_10
REMARK    4  A    between atoms: C_11  and  C_13
REMARK    5  A    between atoms: C_13  and  N_14
REMARK    6  A    between atoms: N_14  and  C_15
REMARK    7  A    between atoms: C_16  and  C_18
REMARK    8  A    between atoms: C_18  and  O_19
REMARK    9  A    between atoms: O_19  and  C_20
REMARK                            x       y       z     vdW  Elec       q    Type
REMARK                         _______ _______ _______ _____ _____    ______ ____
ROOT
ATOM      1  C   UNL     1       2.475   2.095  19.396  0.00  0.00    +0.000 C 
ENDROOT
BRANCH   1   3
ATOM      2  N   UNL     1       4.162   3.541  18.291  0.00  0.00    +0.000 N 
ATOM      3  C   UNL     1       3.486   2.331  18.273  0.00  0.00    +0.000 C 
ATOM      4  O   UNL     1       3.698   1.414  17.476  0.00  0.00    +0.000 OA
ATOM      5  H   UNL     1       3.818   4.266  18.914  0.00  0.00    +0.000 HD
BRANCH   2  12
ATOM      6  C   UNL     1       6.334   4.602  17.903  0.00  0.00    +0.000 A 
ATOM      7  C   UNL     1       7.343   5.018  17.020  0.00  0.00    +0.000 A 
ATOM      8  C   UNL     1       7.230   4.791  15.647  0.00  0.00    +0.000 A 
ATOM      9  C   UNL     1       6.124   4.115  15.158  0.00  0.00    +0.000 A 
ATOM     10 CL   UNL     1       5.984   3.822  13.466  0.00  0.00    +0.000 Cl
ATOM     11  C   UNL     1       5.122   3.675  16.021  0.00  0.00    +0.000 A 
ATOM     12  C   UNL     1       5.198   3.929  17.399  0.00  0.00    +0.000 A 
BRANCH   6  14
ATOM     13  C   UNL     1       7.484   5.592  19.727  0.00  0.00    +0.000 C 
ATOM     14  O   UNL     1       6.373   4.824  19.261  0.00  0.00    +0.000 OA
ENDBRANCH   6  14
ENDBRANCH   2  12
ENDBRANCH   1   3
BRANCH   1  15
ATOM     15  N   UNL     1       2.146   3.241  20.243  0.00  0.00    +0.000 N 
ATOM     16  C   UNL     1       2.553   3.168  21.641  0.00  0.00    +0.000 C 
ATOM     17  C   UNL     1       1.686   4.405  19.634  0.00  0.00    +0.000 C 
ATOM     18  O   UNL     1       1.467   4.467  18.420  0.00  0.00    +0.000 OA
BRANCH  17  19
ATOM     19  C   UNL     1       1.413   5.615  20.528  0.00  0.00    +0.000 C 
BRANCH  19  20
ATOM     20  O   UNL     1       2.375   6.643  20.315  0.00  0.00    +0.000 OA
BRANCH  20  21
ATOM     21  C   UNL     1       1.893   7.822  19.803  0.00  0.00    +0.000 A 
ATOM     22  C   UNL     1       2.268   8.091  18.482  0.00  0.00    +0.000 A 
ATOM     23  C   UNL     1       1.868   9.276  17.852  0.00  0.00    +0.000 A 
ATOM     24  C   UNL     1       1.090  10.206  18.540  0.00  0.00    +0.000 A 
ATOM     25  C   UNL     1       0.702   9.944  19.850  0.00  0.00    +0.000 A 
ATOM     26  C   UNL     1       1.098   8.761  20.471  0.00  0.00    +0.000 A 
ATOM     27  F   UNL     1       0.691   8.570  21.733  0.00  0.00    +0.000 F 
ENDBRANCH  20  21
ENDBRANCH  19  20
ENDBRANCH  17  19
ENDBRANCH   1  15
TORSDOF 7
ENDMDL
MODEL 7
REMARK VINA RESULT:      -7.0      4.800      7.149
REMARK  Name = 
REMARK  9 active torsions:
REMARK  status: ('A' for Active; 'I' for Inactive)
REMARK    1  A    between atoms: C_1  and  O_2
REMARK    2  A    between atoms: O_2  and  C_3
REMARK    3  A    between atoms: C_9  and  N_10
REMARK    4  A    between atoms: C_11  and  C_13
REMARK    5  A    between atoms: C_13  and  N_14
REMARK    6  A    between atoms: N_14  and  C_15
REMARK    7  A    between atoms: C_16  and  C_18
REMARK    8  A    between atoms: C_18  and  O_19
REMARK    9  A    between atoms: O_19  and  C_20
REMARK                            x       y       z     vdW  Elec       q    Type
REMARK                         _______ _______ _______ _____ _____    ______ ____
ROOT
ATOM      1  C   UNL     1       6.843   5.407  17.334  0.00  0.00    +0.000 C 
ENDROOT
BRANCH   1   3
ATOM      2  N   UNL     1       5.028   5.370  19.026  0.00  0.00    +0.000 N 
ATOM      3  C   UNL     1       5.413   5.041  17.736  0.00  0.00    +0.000 C 
ATOM      4  O   UNL     1       4.670   4.558  16.877  0.00  0.00    +0.000 OA
ATOM      5  H   UNL     1       5.753   5.646  19.680  0.00  0.00    +0.000 HD
BRANCH   2  12
ATOM      6  C   UNL     1       2.781   6.242  19.458  0.00  0.00    +0.000 A 
ATOM      7  C   UNL     1       1.508   6.091  20.030  0.00  0.00    +0.000 A 
ATOM      8  C   UNL     1       1.172   4.931  20.731  0.00  0.00    +0.000 A 
ATOM      9  C   UNL     1       2.096   3.903  20.829  0.00  0.00    +0.000 A 
ATOM     10 CL   UNL     1       1.683   2.465  21.682  0.00  0.00    +0.000 Cl
ATOM     11  C   UNL     1       3.357   4.026  20.249  0.00  0.00    +0.000 A 
ATOM     12  C   UNL     1       3.728   5.200  19.576  0.00  0.00    +0.000 A 
BRANCH   6  14
ATOM     13  C   UNL     1       2.159   8.045  18.047  0.00  0.00    +0.000 C 
ATOM     14  O   UNL     1       3.183   7.372  18.784  0.00  0.00    +0.000 OA
ENDBRANCH   6  14
ENDBRANCH   2  12
ENDBRANCH   1   3
BRANCH   1  15
ATOM     15  N   UNL     1       7.585   6.276  18.246  0.00  0.00    +0.000 N 
ATOM     16  C   UNL     1       8.239   5.638  19.382  0.00  0.00    +0.000 C 
ATOM     17  C   UNL     1       7.818   7.594  17.863  0.00  0.00    +0.000 C 
ATOM     18  O   UNL     1       7.345   8.068  16.826  0.00  0.00    +0.000 OA
BRANCH  17  19
ATOM     19  C   UNL     1       8.655   8.468  18.798  0.00  0.00    +0.000 C 
BRANCH  19  20
ATOM     20  O   UNL     1       8.517   9.848  18.476  0.00  0.00    +0.000 OA
BRANCH  20  21
ATOM     21  C   UNL     1       9.433  10.694  19.051  0.00  0.00    +0.000 A 
ATOM     22  C   UNL     1       9.229  10.950  20.412  0.00  0.00    +0.000 A 
ATOM     23  C   UNL     1      10.074  11.822  21.110  0.00  0.00    +0.000 A 
ATOM     24  C   UNL     1      11.131  12.448  20.451  0.00  0.00    +0.000 A 
ATOM     25  C   UNL     1      11.349  12.194  19.101  0.00  0.00    +0.000 A 
ATOM     26  C   UNL     1      10.509  11.321  18.412  0.00  0.00    +0.000 A 
ATOM     27  F   UNL     1      10.774  11.118  17.114  0.00  0.00    +0.000 F 
ENDBRANCH  20  21
ENDBRANCH  19  20
ENDBRANCH  17  19
ENDBRANCH   1  15
TORSDOF 7
ENDMDL
MODEL 8
REMARK VINA RESULT:      -6.9      1.713      2.179
REMARK  Name = 
REMARK  9 active torsions:
REMARK  status: ('A' for Active; 'I' for Inactive)
REMARK    1  A    between atoms: C_1  and  O_2
REMARK    2  A    between atoms: O_2  and  C_3
REMARK    3  A    between atoms: C_9  and  N_10
REMARK    4  A    between atoms: C_11  and  C_13
REMARK    5  A    between atoms: C_13  and  N_14
REMARK    6  A    between atoms: N_14  and  C_15
REMARK    7  A    between atoms: C_16  and  C_18
REMARK    8  A    between atoms: C_18  and  O_19
REMARK    9  A    between atoms: O_19  and  C_20
REMARK                            x       y       z     vdW  Elec       q    Type
REMARK                         _______ _______ _______ _____ _____    ______ ____
ROOT
ATOM      1  C   UNL     1       2.053   3.746  18.833  0.00  0.00    +0.000 C 
ENDROOT
BRANCH   1   3
ATOM      2  N   UNL     1       3.702   4.498  17.138  0.00  0.00    +0.000 N 
ATOM      3  C   UNL     1       3.389   3.562  18.111  0.00  0.00    +0.000 C 
ATOM      4  O   UNL     1       4.136   2.655  18.487  0.00  0.00    +0.000 OA
ATOM      5  H   UNL     1       2.964   5.120  16.825  0.00  0.00    +0.000 HD
BRANCH   2  12
ATOM      6  C   UNL     1       6.060   5.147  17.010  0.00  0.00    +0.000 A 
ATOM      7  C   UNL     1       7.255   5.247  16.281  0.00  0.00    +0.000 A 
ATOM      8  C   UNL     1       7.328   4.795  14.962  0.00  0.00    +0.000 A 
ATOM      9  C   UNL     1       6.215   4.208  14.381  0.00  0.00    +0.000 A 
ATOM     10 CL   UNL     1       6.302   3.638  12.757  0.00  0.00    +0.000 Cl
ATOM     11  C   UNL     1       5.026   4.081  15.096  0.00  0.00    +0.000 A 
ATOM     12  C   UNL     1       4.920   4.565  16.409  0.00  0.00    +0.000 A 
BRANCH   6  14
ATOM     13  C   UNL     1       7.127   5.720  19.050  0.00  0.00    +0.000 C 
ATOM     14  O   UNL     1       5.916   5.602  18.301  0.00  0.00    +0.000 OA
ENDBRANCH   6  14
ENDBRANCH   2  12
ENDBRANCH   1   3
BRANCH   1  15
ATOM     15  N   UNL     1       1.991   4.791  19.855  0.00  0.00    +0.000 N 
ATOM     16  C   UNL     1       2.186   4.374  21.238  0.00  0.00    +0.000 C 
ATOM     17  C   UNL     1       1.985   6.120  19.443  0.00  0.00    +0.000 C 
ATOM     18  O   UNL     1       1.942   6.437  18.251  0.00  0.00    +0.000 OA
BRANCH  17  19
ATOM     19  C   UNL     1       1.989   7.199  20.527  0.00  0.00    +0.000 C 
BRANCH  19  20
ATOM     20  O   UNL     1       1.570   8.456  20.006  0.00  0.00    +0.000 OA
BRANCH  20  21
ATOM     21  C   UNL     1       0.822   9.238  20.851  0.00  0.00    +0.000 A 
ATOM     22  C   UNL     1       0.814   8.825  22.188  0.00  0.00    +0.000 A 
ATOM     23  C   UNL     1       0.065   9.519  23.146  0.00  0.00    +0.000 A 
ATOM     24  C   UNL     1      -0.688  10.632  22.775  0.00  0.00    +0.000 A 
ATOM     25  C   UNL     1      -0.679  11.058  21.450  0.00  0.00    +0.000 A 
ATOM     26  C   UNL     1       0.073  10.368  20.502  0.00  0.00    +0.000 A 
ATOM     27  F   UNL     1       0.038  10.830  19.244  0.00  0.00    +0.000 F 
ENDBRANCH  20  21
ENDBRANCH  19  20
ENDBRANCH  17  19
ENDBRANCH   1  15
TORSDOF 7
ENDMDL
MODEL 9
REMARK VINA RESULT:      -6.8      4.216      8.309
REMARK  Name = 
REMARK  9 active torsions:
REMARK  status: ('A' for Active; 'I' for Inactive)
REMARK    1  A    between atoms: C_1  and  O_2
REMARK    2  A    between atoms: O_2  and  C_3
REMARK    3  A    between atoms: C_9  and  N_10
REMARK    4  A    between atoms: C_11  and  C_13
REMARK    5  A    between atoms: C_13  and  N_14
REMARK    6  A    between atoms: N_14  and  C_15
REMARK    7  A    between atoms: C_16  and  C_18
REMARK    8  A    between atoms: C_18  and  O_19
REMARK    9  A    between atoms: O_19  and  C_20
REMARK                            x       y       z     vdW  Elec       q    Type
REMARK                         _______ _______ _______ _____ _____    ______ ____
ROOT
ATOM      1  C   UNL     1       2.196   8.527  17.480  0.00  0.00    +0.000 C 
ENDROOT
BRANCH   1   3
ATOM      2  N   UNL     1       0.147   9.537  18.448  0.00  0.00    +0.000 N 
ATOM      3  C   UNL     1       1.486   9.711  18.136  0.00  0.00    +0.000 C 
ATOM      4  O   UNL     1       2.154  10.709  18.421  0.00  0.00    +0.000 OA
ATOM      5  H   UNL     1      -0.329   8.730  18.056  0.00  0.00    +0.000 HD
BRANCH   2  12
ATOM      6  C   UNL     1      -1.743  11.094  18.447  0.00  0.00    +0.000 A 
ATOM      7  C   UNL     1      -2.537  12.043  19.111  0.00  0.00    +0.000 A 
ATOM      8  C   UNL     1      -2.276  12.390  20.438  0.00  0.00    +0.000 A 
ATOM      9  C   UNL     1      -1.242  11.763  21.115  0.00  0.00    +0.000 A 
ATOM     10 CL   UNL     1      -0.923  12.179  22.756  0.00  0.00    +0.000 Cl
ATOM     11  C   UNL     1      -0.457  10.803  20.479  0.00  0.00    +0.000 A 
ATOM     12  C   UNL     1      -0.677  10.470  19.134  0.00  0.00    +0.000 A 
BRANCH   6  14
ATOM     13  C   UNL     1      -3.103   9.961  16.866  0.00  0.00    +0.000 C 
ATOM     14  O   UNL     1      -1.929  10.733  17.132  0.00  0.00    +0.000 OA
ENDBRANCH   6  14
ENDBRANCH   2  12
ENDBRANCH   1   3
BRANCH   1  15
ATOM     15  N   UNL     1       2.848   7.568  18.373  0.00  0.00    +0.000 N 
ATOM     16  C   UNL     1       2.241   7.366  19.682  0.00  0.00    +0.000 C 
ATOM     17  C   UNL     1       3.847   6.751  17.851  0.00  0.00    +0.000 C 
ATOM     18  O   UNL     1       4.254   6.872  16.692  0.00  0.00    +0.000 OA
BRANCH  17  19
ATOM     19  C   UNL     1       4.469   5.709  18.781  0.00  0.00    +0.000 C 
BRANCH  19  20
ATOM     20  O   UNL     1       4.017   4.397  18.463  0.00  0.00    +0.000 OA
BRANCH  20  21
ATOM     21  C   UNL     1       3.015   3.897  19.256  0.00  0.00    +0.000 A 
ATOM     22  C   UNL     1       3.436   3.378  20.486  0.00  0.00    +0.000 A 
ATOM     23  C   UNL     1       2.516   2.809  21.375  0.00  0.00    +0.000 A 
ATOM     24  C   UNL     1       1.164   2.752  21.041  0.00  0.00    +0.000 A 
ATOM     25  C   UNL     1       0.732   3.274  19.826  0.00  0.00    +0.000 A 
ATOM     26  C   UNL     1       1.651   3.844  18.947  0.00  0.00    +0.000 A 
ATOM     27  F   UNL     1       1.170   4.329  17.793  0.00  0.00    +0.000 F 
ENDBRANCH  20  21
ENDBRANCH  19  20
ENDBRANCH  17  19
ENDBRANCH   1  15
TORSDOF 7
ENDMDL
