MODEL 1
REMARK VINA RESULT:      -8.3      0.000      0.000
REMARK  Name = 
REMARK  7 active torsions:
REMARK  status: ('A' for Active; 'I' for Inactive)
REMARK    1  A    between atoms: C_1  and  C_2
REMARK    2  A    between atoms: C_2  and  N_3
REMARK    3  A    between atoms: C_9  and  C_10
REMARK    4  A    between atoms: C_13  and  N_14
REMARK    5  A    between atoms: C_15  and  C_17
REMARK    6  A    between atoms: C_22  and  O_23
REMARK    7  A    between atoms: O_23  and  C_24
REMARK                            x       y       z     vdW  Elec       q    Type
REMARK                         _______ _______ _______ _____ _____    ______ ____
ROOT
ATOM      1  N   UNL     1      -5.173  14.213  21.907  0.00  0.00    +0.000 NA
ATOM      2  C   UNL     1      -4.126  14.380  20.868  0.00  0.00    +0.000 C 
ATOM      3  C   UNL     1      -2.681  14.246  21.384  0.00  0.00    +0.000 C 
ATOM      4  N   UNL     1      -2.484  13.026  22.172  0.00  0.00    +0.000 N 
ATOM      5  C   UNL     1      -1.613  12.065  21.688  0.00  0.00    +0.000 A 
ATOM      6  C   UNL     1      -1.014  11.178  22.583  0.00  0.00    +0.000 A 
ATOM      7  C   UNL     1      -0.106  10.227  22.132  0.00  0.00    +0.000 A 
ATOM      8  C   UNL     1       0.564   9.314  23.124  0.00  0.00    +0.000 C 
ATOM      9  C   UNL     1       0.174  10.180  20.753  0.00  0.00    +0.000 A 
ATOM     10  C   UNL     1       1.054   9.229  20.217  0.00  0.00    +0.000 A 
ATOM     11  C   UNL     1       1.314   9.161  18.858  0.00  0.00    +0.000 A 
ATOM     12  C   UNL     1       0.707  10.094  18.017  0.00  0.00    +0.000 A 
ATOM     13  C   UNL     1      -0.164  11.057  18.547  0.00  0.00    +0.000 A 
ATOM     14  C   UNL     1      -0.458  11.108  19.907  0.00  0.00    +0.000 A 
ATOM     15  N   UNL     1      -1.318  12.030  20.372  0.00  0.00    +0.000 NA
ATOM     16  C   UNL     1      -3.555  12.626  23.097  0.00  0.00    +0.000 C 
ATOM     17  C   UNL     1      -4.966  12.873  22.507  0.00  0.00    +0.000 C 
ENDROOT
BRANCH  11  18
ATOM     18  N   UNL     1       2.136   8.166  18.295  0.00  0.00    +0.000 N 
ATOM     19  C   UNL     1       2.440   6.924  18.852  0.00  0.00    +0.000 C 
ATOM     20  O   UNL     1       2.124   6.529  19.964  0.00  0.00    +0.000 OA
ATOM     21  H   UNL     1       2.517   8.386  17.384  0.00  0.00    +0.000 HD
BRANCH  19  22
ATOM     22  C   UNL     1       3.268   6.043  17.987  0.00  0.00    +0.000 A 
ATOM     23  C   UNL     1       4.368   6.661  17.353  0.00  0.00    +0.000 A 
ATOM     24  C   UNL     1       5.220   5.943  16.521  0.00  0.00    +0.000 A 
ATOM     25  C   UNL     1       5.010   4.585  16.342  0.00  0.00    +0.000 A 
ATOM     26  C   UNL     1       3.963   3.949  17.012  0.00  0.00    +0.000 A 
ATOM     27  C   UNL     1       3.074   4.660  17.837  0.00  0.00    +0.000 A 
BRANCH  27  28
ATOM     28  O   UNL     1       2.180   3.824  18.449  0.00  0.00    +0.000 OA
ATOM     29  C   UNL     1       2.239   2.429  18.194  0.00  0.00    +0.000 C 
ENDBRANCH  27  28
ENDBRANCH  19  22
ENDBRANCH  11  18
BRANCH   1  31
ATOM     30  C   UNL     1      -6.373  15.279  23.842  0.00  0.00    +0.000 C 
ATOM     31  C   UNL     1      -5.137  15.253  22.951  0.00  0.00    +0.000 C 
ENDBRANCH   1  31
TORSDOF 4
ENDMDL
MODEL 2
REMARK VINA RESULT:      -8.2      0.865      1.729
REMARK  Name = 
REMARK  7 active torsions:
REMARK  status: ('A' for Active; 'I' for Inactive)
REMARK    1  A    between atoms: C_1  and  C_2
REMARK    2  A    between atoms: C_2  and  N_3
REMARK    3  A    between atoms: C_9  and  C_10
REMARK    4  A    between atoms: C_13  and  N_14
REMARK    5  A    between atoms: C_15  and  C_17
REMARK    6  A    between atoms: C_22  and  O_23
REMARK    7  A    between atoms: O_23  and  C_24
REMARK                            x       y       z     vdW  Elec       q    Type
REMARK                         _______ _______ _______ _____ _____    ______ ____
ROOT
ATOM      1  N   UNL     1      -5.004  14.285  21.885  0.00  0.00    +0.000 NA
ATOM      2  C   UNL     1      -3.965  14.383  20.830  0.00  0.00    +0.000 C 
ATOM      3  C   UNL     1      -2.518  14.228  21.336  0.00  0.00    +0.000 C 
ATOM      4  N   UNL     1      -2.346  13.033  22.168  0.00  0.00    +0.000 N 
ATOM      5  C   UNL     1      -1.508  12.030  21.710  0.00  0.00    +0.000 A 
ATOM      6  C   UNL     1      -0.924  11.161  22.632  0.00  0.00    +0.000 A 
ATOM      7  C   UNL     1      -0.048  10.169  22.209  0.00  0.00    +0.000 A 
ATOM      8  C   UNL     1       0.608   9.275  23.227  0.00  0.00    +0.000 C 
ATOM      9  C   UNL     1       0.215  10.062  20.829  0.00  0.00    +0.000 A 
ATOM     10  C   UNL     1       1.063   9.068  20.321  0.00  0.00    +0.000 A 
ATOM     11  C   UNL     1       1.306   8.942  18.962  0.00  0.00    +0.000 A 
ATOM     12  C   UNL     1       0.716   9.860  18.093  0.00  0.00    +0.000 A 
ATOM     13  C   UNL     1      -0.122  10.866  18.595  0.00  0.00    +0.000 A 
ATOM     14  C   UNL     1      -0.400  10.976  19.956  0.00  0.00    +0.000 A 
ATOM     15  N   UNL     1      -1.229  11.938  20.394  0.00  0.00    +0.000 NA
ATOM     16  C   UNL     1      -3.417  12.698  23.117  0.00  0.00    +0.000 C 
ATOM     17  C   UNL     1      -4.827  12.963  22.533  0.00  0.00    +0.000 C 
ENDROOT
BRANCH  11  18
ATOM     18  N   UNL     1       2.094   7.904  18.429  0.00  0.00    +0.000 N 
ATOM     19  C   UNL     1       2.379   6.680  19.034  0.00  0.00    +0.000 C 
ATOM     20  O   UNL     1       2.076   6.342  20.168  0.00  0.00    +0.000 OA
ATOM     21  H   UNL     1       2.462   8.075  17.502  0.00  0.00    +0.000 HD
BRANCH  19  22
ATOM     22  C   UNL     1       3.170   5.743  18.194  0.00  0.00    +0.000 A 
ATOM     23  C   UNL     1       2.595   4.471  17.984  0.00  0.00    +0.000 A 
ATOM     24  C   UNL     1       3.236   3.506  17.213  0.00  0.00    +0.000 A 
ATOM     25  C   UNL     1       4.443   3.813  16.606  0.00  0.00    +0.000 A 
ATOM     26  C   UNL     1       4.992   5.088  16.755  0.00  0.00    +0.000 A 
ATOM     27  C   UNL     1       4.375   6.070  17.551  0.00  0.00    +0.000 A 
BRANCH  27  28
ATOM     28  O   UNL     1       5.046   7.260  17.488  0.00  0.00    +0.000 OA
ATOM     29  C   UNL     1       6.456   7.262  17.331  0.00  0.00    +0.000 C 
ENDBRANCH  27  28
ENDBRANCH  19  22
ENDBRANCH  11  18
BRANCH   1  31
ATOM     30  C   UNL     1      -6.172  15.488  23.758  0.00  0.00    +0.000 C 
ATOM     31  C   UNL     1      -4.927  15.361  22.889  0.00  0.00    +0.000 C 
ENDBRANCH   1  31
TORSDOF 4
ENDMDL
MODEL 3
REMARK VINA RESULT:      -7.9      1.088      1.146
REMARK  Name = 
REMARK  7 active torsions:
REMARK  status: ('A' for Active; 'I' for Inactive)
REMARK    1  A    between atoms: C_1  and  C_2
REMARK    2  A    between atoms: C_2  and  N_3
REMARK    3  A    between atoms: C_9  and  C_10
REMARK    4  A    between atoms: C_13  and  N_14
REMARK    5  A    between atoms: C_15  and  C_17
REMARK    6  A    between atoms: C_22  and  O_23
REMARK    7  A    between atoms: O_23  and  C_24
REMARK                            x       y       z     vdW  Elec       q    Type
REMARK                         _______ _______ _______ _____ _____    ______ ____
ROOT
ATOM      1  N   UNL     1      -5.169  14.509  21.818  0.00  0.00    +0.000 NA
ATOM      2  C   UNL     1      -4.031  14.566  20.867  0.00  0.00    +0.000 C 
ATOM      3  C   UNL     1      -2.644  14.379  21.511  0.00  0.00    +0.000 C 
ATOM      4  N   UNL     1      -2.586  13.192  22.368  0.00  0.00    +0.000 N 
ATOM      5  C   UNL     1      -1.736  12.161  22.004  0.00  0.00    +0.000 A 
ATOM      6  C   UNL     1      -1.267  11.288  22.988  0.00  0.00    +0.000 A 
ATOM      7  C   UNL     1      -0.382  10.268  22.660  0.00  0.00    +0.000 A 
ATOM      8  C   UNL     1       0.148   9.370  23.747  0.00  0.00    +0.000 C 
ATOM      9  C   UNL     1       0.009  10.137  21.314  0.00  0.00    +0.000 A 
ATOM     10  C   UNL     1       0.874   9.114  20.900  0.00  0.00    +0.000 A 
ATOM     11  C   UNL     1       1.243   8.964  19.573  0.00  0.00    +0.000 A 
ATOM     12  C   UNL     1       0.765   9.886  18.641  0.00  0.00    +0.000 A 
ATOM     13  C   UNL     1      -0.090  10.920  19.049  0.00  0.00    +0.000 A 
ATOM     14  C   UNL     1      -0.494  11.055  20.376  0.00  0.00    +0.000 A 
ATOM     15  N   UNL     1      -1.334  12.044  20.722  0.00  0.00    +0.000 NA
ATOM     16  C   UNL     1      -3.752  12.897  23.214  0.00  0.00    +0.000 C 
ATOM     17  C   UNL     1      -5.092  13.191  22.494  0.00  0.00    +0.000 C 
ENDROOT
BRANCH  11  18
ATOM     18  N   UNL     1       2.049   7.899  19.128  0.00  0.00    +0.000 N 
ATOM     19  C   UNL     1       2.771   7.842  17.936  0.00  0.00    +0.000 C 
ATOM     20  O   UNL     1       2.749   8.664  17.033  0.00  0.00    +0.000 OA
ATOM     21  H   UNL     1       2.116   7.114  19.762  0.00  0.00    +0.000 HD
BRANCH  19  22
ATOM     22  C   UNL     1       3.605   6.622  17.773  0.00  0.00    +0.000 A 
ATOM     23  C   UNL     1       4.724   6.751  16.923  0.00  0.00    +0.000 A 
ATOM     24  C   UNL     1       5.583   5.681  16.692  0.00  0.00    +0.000 A 
ATOM     25  C   UNL     1       5.359   4.477  17.340  0.00  0.00    +0.000 A 
ATOM     26  C   UNL     1       4.290   4.355  18.231  0.00  0.00    +0.000 A 
ATOM     27  C   UNL     1       3.395   5.415  18.460  0.00  0.00    +0.000 A 
BRANCH  27  28
ATOM     28  O   UNL     1       2.479   5.098  19.425  0.00  0.00    +0.000 OA
ATOM     29  C   UNL     1       1.456   4.157  19.137  0.00  0.00    +0.000 C 
ENDBRANCH  27  28
ENDBRANCH  19  22
ENDBRANCH  11  18
BRANCH   1  31
ATOM     30  C   UNL     1      -5.300  16.988  22.212  0.00  0.00    +0.000 C 
ATOM     31  C   UNL     1      -5.159  15.596  22.813  0.00  0.00    +0.000 C 
ENDBRANCH   1  31
TORSDOF 4
ENDMDL
MODEL 4
REMARK VINA RESULT:      -7.9      1.549      2.506
REMARK  Name = 
REMARK  7 active torsions:
REMARK  status: ('A' for Active; 'I' for Inactive)
REMARK    1  A    between atoms: C_1  and  C_2
REMARK    2  A    between atoms: C_2  and  N_3
REMARK    3  A    between atoms: C_9  and  C_10
REMARK    4  A    between atoms: C_13  and  N_14
REMARK    5  A    between atoms: C_15  and  C_17
REMARK    6  A    between atoms: C_22  and  O_23
REMARK    7  A    between atoms: O_23  and  C_24
REMARK                            x       y       z     vdW  Elec       q    Type
REMARK                         _______ _______ _______ _____ _____    ______ ____
ROOT
ATOM      1  N   UNL     1      -2.372  15.693  23.751  0.00  0.00    +0.000 NA
ATOM      2  C   UNL     1      -2.031  14.327  24.220  0.00  0.00    +0.000 C 
ATOM      3  C   UNL     1      -2.719  13.188  23.442  0.00  0.00    +0.000 C 
ATOM      4  N   UNL     1      -2.554  13.329  21.993  0.00  0.00    +0.000 N 
ATOM      5  C   UNL     1      -1.836  12.357  21.317  0.00  0.00    +0.000 A 
ATOM      6  C   UNL     1      -2.073  12.160  19.956  0.00  0.00    +0.000 A 
ATOM      7  C   UNL     1      -1.396  11.167  19.259  0.00  0.00    +0.000 A 
ATOM      8  C   UNL     1      -1.706  10.941  17.803  0.00  0.00    +0.000 C 
ATOM      9  C   UNL     1      -0.460  10.384  19.962  0.00  0.00    +0.000 A 
ATOM     10  C   UNL     1       0.285   9.384  19.322  0.00  0.00    +0.000 A 
ATOM     11  C   UNL     1       1.225   8.628  20.003  0.00  0.00    +0.000 A 
ATOM     12  C   UNL     1       1.397   8.852  21.369  0.00  0.00    +0.000 A 
ATOM     13  C   UNL     1       0.645   9.841  22.020  0.00  0.00    +0.000 A 
ATOM     14  C   UNL     1      -0.275  10.630  21.334  0.00  0.00    +0.000 A 
ATOM     15  N   UNL     1      -0.957  11.584  21.989  0.00  0.00    +0.000 NA
ATOM     16  C   UNL     1      -2.657  14.678  21.417  0.00  0.00    +0.000 C 
ATOM     17  C   UNL     1      -1.998  15.754  22.317  0.00  0.00    +0.000 C 
ENDROOT
BRANCH  11  18
ATOM     18  N   UNL     1       2.035   7.672  19.360  0.00  0.00    +0.000 N 
ATOM     19  C   UNL     1       2.665   7.811  18.123  0.00  0.00    +0.000 C 
ATOM     20  O   UNL     1       2.542   8.745  17.345  0.00  0.00    +0.000 OA
ATOM     21  H   UNL     1       2.180   6.813  19.874  0.00  0.00    +0.000 HD
BRANCH  19  22
ATOM     22  C   UNL     1       3.529   6.665  17.735  0.00  0.00    +0.000 A 
ATOM     23  C   UNL     1       4.866   6.983  17.415  0.00  0.00    +0.000 A 
ATOM     24  C   UNL     1       5.774   5.998  17.040  0.00  0.00    +0.000 A 
ATOM     25  C   UNL     1       5.369   4.673  17.020  0.00  0.00    +0.000 A 
ATOM     26  C   UNL     1       4.067   4.338  17.393  0.00  0.00    +0.000 A 
ATOM     27  C   UNL     1       3.125   5.319  17.751  0.00  0.00    +0.000 A 
BRANCH  27  28
ATOM     28  O   UNL     1       1.944   4.759  18.154  0.00  0.00    +0.000 OA
ATOM     29  C   UNL     1       1.880   4.082  19.400  0.00  0.00    +0.000 C 
ENDBRANCH  27  28
ENDBRANCH  19  22
ENDBRANCH  11  18
BRANCH   1  31
ATOM     30  C   UNL     1      -4.067  16.977  25.092  0.00  0.00    +0.000 C 
ATOM     31  C   UNL     1      -3.795  16.037  23.924  0.00  0.00    +0.000 C 
ENDBRANCH   1  31
TORSDOF 4
ENDMDL
MODEL 5
REMARK VINA RESULT:      -7.8      1.809      2.806
REMARK  Name = 
REMARK  7 active torsions:
REMARK  status: ('A' for Active; 'I' for Inactive)
REMARK    1  A    between atoms: C_1  and  C_2
REMARK    2  A    between atoms: C_2  and  N_3
REMARK    3  A    between atoms: C_9  and  C_10
REMARK    4  A    between atoms: C_13  and  N_14
REMARK    5  A    between atoms: C_15  and  C_17
REMARK    6  A    between atoms: C_22  and  O_23
REMARK    7  A    between atoms: O_23  and  C_24
REMARK                            x       y       z     vdW  Elec       q    Type
REMARK                         _______ _______ _______ _____ _____    ______ ____
ROOT
ATOM      1  N   UNL     1      -2.868  15.911  24.825  0.00  0.00    +0.000 NA
ATOM      2  C   UNL     1      -2.740  14.461  25.112  0.00  0.00    +0.000 C 
ATOM      3  C   UNL     1      -3.349  13.536  24.042  0.00  0.00    +0.000 C 
ATOM      4  N   UNL     1      -2.888  13.872  22.691  0.00  0.00    +0.000 N 
ATOM      5  C   UNL     1      -2.130  12.938  22.006  0.00  0.00    +0.000 A 
ATOM      6  C   UNL     1      -2.107  12.974  20.610  0.00  0.00    +0.000 A 
ATOM      7  C   UNL     1      -1.388  12.026  19.893  0.00  0.00    +0.000 A 
ATOM      8  C   UNL     1      -1.419  12.056  18.388  0.00  0.00    +0.000 C 
ATOM      9  C   UNL     1      -0.677  11.047  20.614  0.00  0.00    +0.000 A 
ATOM     10  C   UNL     1       0.097  10.077  19.963  0.00  0.00    +0.000 A 
ATOM     11  C   UNL     1       0.819   9.127  20.668  0.00  0.00    +0.000 A 
ATOM     12  C   UNL     1       0.732   9.124  22.061  0.00  0.00    +0.000 A 
ATOM     13  C   UNL     1      -0.051  10.083  22.718  0.00  0.00    +0.000 A 
ATOM     14  C   UNL     1      -0.750  11.063  22.018  0.00  0.00    +0.000 A 
ATOM     15  N   UNL     1      -1.468  11.980  22.688  0.00  0.00    +0.000 NA
ATOM     16  C   UNL     1      -2.764  15.295  22.342  0.00  0.00    +0.000 C 
ATOM     17  C   UNL     1      -2.213  16.144  23.515  0.00  0.00    +0.000 C 
ENDROOT
BRANCH  11  18
ATOM     18  N   UNL     1       1.660   8.193  20.033  0.00  0.00    +0.000 N 
ATOM     19  C   UNL     1       2.028   8.183  18.687  0.00  0.00    +0.000 C 
ATOM     20  O   UNL     1       1.605   8.924  17.813  0.00  0.00    +0.000 OA
ATOM     21  H   UNL     1       2.043   7.478  20.637  0.00  0.00    +0.000 HD
BRANCH  19  22
ATOM     22  C   UNL     1       3.000   7.121  18.318  0.00  0.00    +0.000 A 
ATOM     23  C   UNL     1       3.891   7.440  17.271  0.00  0.00    +0.000 A 
ATOM     24  C   UNL     1       4.850   6.531  16.836  0.00  0.00    +0.000 A 
ATOM     25  C   UNL     1       4.960   5.304  17.469  0.00  0.00    +0.000 A 
ATOM     26  C   UNL     1       4.125   5.000  18.546  0.00  0.00    +0.000 A 
ATOM     27  C   UNL     1       3.132   5.892  18.986  0.00  0.00    +0.000 A 
BRANCH  27  28
ATOM     28  O   UNL     1       2.491   5.421  20.099  0.00  0.00    +0.000 OA
ATOM     29  C   UNL     1       2.582   4.044  20.428  0.00  0.00    +0.000 C 
ENDBRANCH  27  28
ENDBRANCH  19  22
ENDBRANCH  11  18
BRANCH   1  31
ATOM     30  C   UNL     1      -4.430  17.854  25.152  0.00  0.00    +0.000 C 
ATOM     31  C   UNL     1      -4.264  16.383  24.789  0.00  0.00    +0.000 C 
ENDBRANCH   1  31
TORSDOF 4
ENDMDL
MODEL 6
REMARK VINA RESULT:      -7.8      3.186     10.531
REMARK  Name = 
REMARK  7 active torsions:
REMARK  status: ('A' for Active; 'I' for Inactive)
REMARK    1  A    between atoms: C_1  and  C_2
REMARK    2  A    between atoms: C_2  and  N_3
REMARK    3  A    between atoms: C_9  and  C_10
REMARK    4  A    between atoms: C_13  and  N_14
REMARK    5  A    between atoms: C_15  and  C_17
REMARK    6  A    between atoms: C_22  and  O_23
REMARK    7  A    between atoms: O_23  and  C_24
REMARK                            x       y       z     vdW  Elec       q    Type
REMARK                         _______ _______ _______ _____ _____    ______ ____
ROOT
ATOM      1  N   UNL     1       2.159   3.353  18.926  0.00  0.00    +0.000 NA
ATOM      2  C   UNL     1       2.162   3.990  20.267  0.00  0.00    +0.000 C 
ATOM      3  C   UNL     1       2.936   5.319  20.347  0.00  0.00    +0.000 C 
ATOM      4  N   UNL     1       2.537   6.257  19.294  0.00  0.00    +0.000 N 
ATOM      5  C   UNL     1       1.929   7.444  19.669  0.00  0.00    +0.000 A 
ATOM      6  C   UNL     1       1.999   8.543  18.811  0.00  0.00    +0.000 A 
ATOM      7  C   UNL     1       1.432   9.759  19.176  0.00  0.00    +0.000 A 
ATOM      8  C   UNL     1       1.564  10.943  18.256  0.00  0.00    +0.000 C 
ATOM      9  C   UNL     1       0.779   9.838  20.421  0.00  0.00    +0.000 A 
ATOM     10  C   UNL     1       0.156  11.020  20.846  0.00  0.00    +0.000 A 
ATOM     11  C   UNL     1      -0.510  11.097  22.058  0.00  0.00    +0.000 A 
ATOM     12  C   UNL     1      -0.520   9.973  22.885  0.00  0.00    +0.000 A 
ATOM     13  C   UNL     1       0.112   8.792  22.473  0.00  0.00    +0.000 A 
ATOM     14  C   UNL     1       0.753   8.696  21.240  0.00  0.00    +0.000 A 
ATOM     15  N   UNL     1       1.325   7.537  20.871  0.00  0.00    +0.000 NA
ATOM     16  C   UNL     1       2.291   5.717  17.949  0.00  0.00    +0.000 C 
ATOM     17  C   UNL     1       1.575   4.343  17.988  0.00  0.00    +0.000 C 
ENDROOT
BRANCH  11  18
ATOM     18  N   UNL     1      -1.204  12.252  22.467  0.00  0.00    +0.000 N 
ATOM     19  C   UNL     1      -0.678  13.538  22.596  0.00  0.00    +0.000 C 
ATOM     20  O   UNL     1       0.493  13.860  22.471  0.00  0.00    +0.000 OA
ATOM     21  H   UNL     1      -2.188  12.119  22.660  0.00  0.00    +0.000 HD
BRANCH  19  22
ATOM     22  C   UNL     1      -1.672  14.580  22.965  0.00  0.00    +0.000 A 
ATOM     23  C   UNL     1      -2.845  14.616  22.180  0.00  0.00    +0.000 A 
ATOM     24  C   UNL     1      -3.852  15.543  22.427  0.00  0.00    +0.000 A 
ATOM     25  C   UNL     1      -3.720  16.423  23.490  0.00  0.00    +0.000 A 
ATOM     26  C   UNL     1      -2.593  16.357  24.311  0.00  0.00    +0.000 A 
ATOM     27  C   UNL     1      -1.551  15.445  24.064  0.00  0.00    +0.000 A 
BRANCH  27  28
ATOM     28  O   UNL     1      -0.591  15.505  25.037  0.00  0.00    +0.000 OA
ATOM     29  C   UNL     1      -0.973  15.749  26.382  0.00  0.00    +0.000 C 
ENDBRANCH  27  28
ENDBRANCH  19  22
ENDBRANCH  11  18
BRANCH   1  31
ATOM     30  C   UNL     1       3.690   1.433  18.392  0.00  0.00    +0.000 C 
ATOM     31  C   UNL     1       3.498   2.942  18.466  0.00  0.00    +0.000 C 
ENDBRANCH   1  31
TORSDOF 4
ENDMDL
MODEL 7
REMARK VINA RESULT:      -7.8      3.124     10.363
REMARK  Name = 
REMARK  7 active torsions:
REMARK  status: ('A' for Active; 'I' for Inactive)
REMARK    1  A    between atoms: C_1  and  C_2
REMARK    2  A    between atoms: C_2  and  N_3
REMARK    3  A    between atoms: C_9  and  C_10
REMARK    4  A    between atoms: C_13  and  N_14
REMARK    5  A    between atoms: C_15  and  C_17
REMARK    6  A    between atoms: C_22  and  O_23
REMARK    7  A    between atoms: O_23  and  C_24
REMARK                            x       y       z     vdW  Elec       q    Type
REMARK                         _______ _______ _______ _____ _____    ______ ____
ROOT
ATOM      1  N   UNL     1       2.167   3.267  19.301  0.00  0.00    +0.000 NA
ATOM      2  C   UNL     1       2.174   3.977  20.604  0.00  0.00    +0.000 C 
ATOM      3  C   UNL     1       2.909   5.332  20.596  0.00  0.00    +0.000 C 
ATOM      4  N   UNL     1       2.464   6.197  19.500  0.00  0.00    +0.000 N 
ATOM      5  C   UNL     1       1.827   7.385  19.820  0.00  0.00    +0.000 A 
ATOM      6  C   UNL     1       1.849   8.436  18.901  0.00  0.00    +0.000 A 
ATOM      7  C   UNL     1       1.253   9.653  19.208  0.00  0.00    +0.000 A 
ATOM      8  C   UNL     1       1.333  10.787  18.222  0.00  0.00    +0.000 C 
ATOM      9  C   UNL     1       0.618   9.783  20.459  0.00  0.00    +0.000 A 
ATOM     10  C   UNL     1      -0.033  10.968  20.829  0.00  0.00    +0.000 A 
ATOM     11  C   UNL     1      -0.681  11.093  22.047  0.00  0.00    +0.000 A 
ATOM     12  C   UNL     1      -0.643  10.018  22.935  0.00  0.00    +0.000 A 
ATOM     13  C   UNL     1       0.018   8.834  22.578  0.00  0.00    +0.000 A 
ATOM     14  C   UNL     1       0.640   8.687  21.340  0.00  0.00    +0.000 A 
ATOM     15  N   UNL     1       1.240   7.528  21.026  0.00  0.00    +0.000 NA
ATOM     16  C   UNL     1       2.211   5.575  18.192  0.00  0.00    +0.000 C 
ATOM     17  C   UNL     1       1.538   4.186  18.320  0.00  0.00    +0.000 C 
ENDROOT
BRANCH  11  18
ATOM     18  N   UNL     1      -1.403  12.249  22.404  0.00  0.00    +0.000 N 
ATOM     19  C   UNL     1      -0.875  13.516  22.653  0.00  0.00    +0.000 C 
ATOM     20  O   UNL     1       0.308  13.815  22.699  0.00  0.00    +0.000 OA
ATOM     21  H   UNL     1      -2.406  12.131  22.458  0.00  0.00    +0.000 HD
BRANCH  19  22
ATOM     22  C   UNL     1      -1.891  14.567  22.925  0.00  0.00    +0.000 A 
ATOM     23  C   UNL     1      -1.786  15.740  22.146  0.00  0.00    +0.000 A 
ATOM     24  C   UNL     1      -2.679  16.795  22.305  0.00  0.00    +0.000 A 
ATOM     25  C   UNL     1      -3.716  16.676  23.216  0.00  0.00    +0.000 A 
ATOM     26  C   UNL     1      -3.867  15.497  23.948  0.00  0.00    +0.000 A 
ATOM     27  C   UNL     1      -2.962  14.429  23.823  0.00  0.00    +0.000 A 
BRANCH  27  28
ATOM     28  O   UNL     1      -3.349  13.353  24.573  0.00  0.00    +0.000 OA
ATOM     29  C   UNL     1      -4.517  12.631  24.211  0.00  0.00    +0.000 C 
ENDBRANCH  27  28
ENDBRANCH  19  22
ENDBRANCH  11  18
BRANCH   1  31
ATOM     30  C   UNL     1       3.639   1.388  18.514  0.00  0.00    +0.000 C 
ATOM     31  C   UNL     1       3.510   2.870  18.841  0.00  0.00    +0.000 C 
ENDBRANCH   1  31
TORSDOF 4
ENDMDL
MODEL 8
REMARK VINA RESULT:      -7.7      3.085     10.495
REMARK  Name = 
REMARK  7 active torsions:
REMARK  status: ('A' for Active; 'I' for Inactive)
REMARK    1  A    between atoms: C_1  and  C_2
REMARK    2  A    between atoms: C_2  and  N_3
REMARK    3  A    between atoms: C_9  and  C_10
REMARK    4  A    between atoms: C_13  and  N_14
REMARK    5  A    between atoms: C_15  and  C_17
REMARK    6  A    between atoms: C_22  and  O_23
REMARK    7  A    between atoms: O_23  and  C_24
REMARK                            x       y       z     vdW  Elec       q    Type
REMARK                         _______ _______ _______ _____ _____    ______ ____
ROOT
ATOM      1  N   UNL     1       2.027   3.256  19.344  0.00  0.00    +0.000 NA
ATOM      2  C   UNL     1       2.000   3.945  20.658  0.00  0.00    +0.000 C 
ATOM      3  C   UNL     1       2.791   5.266  20.709  0.00  0.00    +0.000 C 
ATOM      4  N   UNL     1       2.438   6.167  19.608  0.00  0.00    +0.000 N 
ATOM      5  C   UNL     1       1.837   7.376  19.917  0.00  0.00    +0.000 A 
ATOM      6  C   UNL     1       1.948   8.439  19.019  0.00  0.00    +0.000 A 
ATOM      7  C   UNL     1       1.390   9.676  19.318  0.00  0.00    +0.000 A 
ATOM      8  C   UNL     1       1.566  10.820  18.357  0.00  0.00    +0.000 C 
ATOM      9  C   UNL     1       0.701   9.814  20.539  0.00  0.00    +0.000 A 
ATOM     10  C   UNL     1       0.084  11.020  20.898  0.00  0.00    +0.000 A 
ATOM     11  C   UNL     1      -0.616  11.155  22.086  0.00  0.00    +0.000 A 
ATOM     12  C   UNL     1      -0.667  10.066  22.956  0.00  0.00    +0.000 A 
ATOM     13  C   UNL     1      -0.041   8.860  22.610  0.00  0.00    +0.000 A 
ATOM     14  C   UNL     1       0.634   8.706  21.401  0.00  0.00    +0.000 A 
ATOM     15  N   UNL     1       1.199   7.526  21.096  0.00  0.00    +0.000 NA
ATOM     16  C   UNL     1       2.223   5.577  18.279  0.00  0.00    +0.000 C 
ATOM     17  C   UNL     1       1.486   4.216  18.351  0.00  0.00    +0.000 C 
ENDROOT
BRANCH  11  18
ATOM     18  N   UNL     1      -1.305  12.335  22.427  0.00  0.00    +0.000 N 
ATOM     19  C   UNL     1      -2.431  12.435  23.245  0.00  0.00    +0.000 C 
ATOM     20  O   UNL     1      -3.066  11.509  23.723  0.00  0.00    +0.000 OA
ATOM     21  H   UNL     1      -0.914  13.188  22.048  0.00  0.00    +0.000 HD
BRANCH  19  22
ATOM     22  C   UNL     1      -2.891  13.826  23.498  0.00  0.00    +0.000 A 
ATOM     23  C   UNL     1      -4.290  14.009  23.560  0.00  0.00    +0.000 A 
ATOM     24  C   UNL     1      -4.845  15.263  23.794  0.00  0.00    +0.000 A 
ATOM     25  C   UNL     1      -4.010  16.346  24.009  0.00  0.00    +0.000 A 
ATOM     26  C   UNL     1      -2.625  16.167  24.011  0.00  0.00    +0.000 A 
ATOM     27  C   UNL     1      -2.041  14.915  23.752  0.00  0.00    +0.000 A 
BRANCH  27  28
ATOM     28  O   UNL     1      -0.680  14.959  23.883  0.00  0.00    +0.000 OA
ATOM     29  C   UNL     1       0.057  15.957  23.194  0.00  0.00    +0.000 C 
ENDBRANCH  27  28
ENDBRANCH  19  22
ENDBRANCH  11  18
BRANCH   1  31
ATOM     30  C   UNL     1       3.371   1.766  17.831  0.00  0.00    +0.000 C 
ATOM     31  C   UNL     1       3.372   2.808  18.942  0.00  0.00    +0.000 C 
ENDBRANCH   1  31
TORSDOF 4
ENDMDL
MODEL 9
REMARK VINA RESULT:      -7.7      2.965     10.388
REMARK  Name = 
REMARK  7 active torsions:
REMARK  status: ('A' for Active; 'I' for Inactive)
REMARK    1  A    between atoms: C_1  and  C_2
REMARK    2  A    between atoms: C_2  and  N_3
REMARK    3  A    between atoms: C_9  and  C_10
REMARK    4  A    between atoms: C_13  and  N_14
REMARK    5  A    between atoms: C_15  and  C_17
REMARK    6  A    between atoms: C_22  and  O_23
REMARK    7  A    between atoms: O_23  and  C_24
REMARK                            x       y       z     vdW  Elec       q    Type
REMARK                         _______ _______ _______ _____ _____    ______ ____
ROOT
ATOM      1  N   UNL     1       2.738   3.701  18.724  0.00  0.00    +0.000 NA
ATOM      2  C   UNL     1       2.728   4.286  20.088  0.00  0.00    +0.000 C 
ATOM      3  C   UNL     1       3.304   5.712  20.181  0.00  0.00    +0.000 C 
ATOM      4  N   UNL     1       2.710   6.615  19.190  0.00  0.00    +0.000 N 
ATOM      5  C   UNL     1       1.960   7.686  19.646  0.00  0.00    +0.000 A 
ATOM      6  C   UNL     1       1.818   8.811  18.832  0.00  0.00    +0.000 A 
ATOM      7  C   UNL     1       1.103   9.917  19.276  0.00  0.00    +0.000 A 
ATOM      8  C   UNL     1       1.006  11.137  18.400  0.00  0.00    +0.000 C 
ATOM      9  C   UNL     1       0.521   9.859  20.557  0.00  0.00    +0.000 A 
ATOM     10  C   UNL     1      -0.241  10.921  21.063  0.00  0.00    +0.000 A 
ATOM     11  C   UNL     1      -0.838  10.859  22.312  0.00  0.00    +0.000 A 
ATOM     12  C   UNL     1      -0.635   9.720  23.091  0.00  0.00    +0.000 A 
ATOM     13  C   UNL     1       0.137   8.659  22.597  0.00  0.00    +0.000 A 
ATOM     14  C   UNL     1       0.710   8.699  21.328  0.00  0.00    +0.000 A 
ATOM     15  N   UNL     1       1.421   7.650  20.882  0.00  0.00    +0.000 NA
ATOM     16  C   UNL     1       2.466   6.089  17.840  0.00  0.00    +0.000 C 
ATOM     17  C   UNL     1       1.961   4.624  17.861  0.00  0.00    +0.000 C 
ENDROOT
BRANCH  11  18
ATOM     18  N   UNL     1      -1.667  11.885  22.804  0.00  0.00    +0.000 N 
ATOM     19  C   UNL     1      -1.277  13.182  23.140  0.00  0.00    +0.000 C 
ATOM     20  O   UNL     1      -0.136  13.617  23.157  0.00  0.00    +0.000 OA
ATOM     21  H   UNL     1      -2.645  11.643  22.896  0.00  0.00    +0.000 HD
BRANCH  19  22
ATOM     22  C   UNL     1      -2.391  14.076  23.554  0.00  0.00    +0.000 A 
ATOM     23  C   UNL     1      -2.113  14.946  24.631  0.00  0.00    +0.000 A 
ATOM     24  C   UNL     1      -3.072  15.833  25.109  0.00  0.00    +0.000 A 
ATOM     25  C   UNL     1      -4.310  15.893  24.491  0.00  0.00    +0.000 A 
ATOM     26  C   UNL     1      -4.576  15.083  23.385  0.00  0.00    +0.000 A 
ATOM     27  C   UNL     1      -3.631  14.161  22.901  0.00  0.00    +0.000 A 
BRANCH  27  28
ATOM     28  O   UNL     1      -4.076  13.535  21.769  0.00  0.00    +0.000 OA
ATOM     29  C   UNL     1      -5.351  12.911  21.768  0.00  0.00    +0.000 C 
ENDBRANCH  27  28
ENDBRANCH  19  22
ENDBRANCH  11  18
BRANCH   1  31
ATOM     30  C   UNL     1       4.199   3.773  16.680  0.00  0.00    +0.000 C 
ATOM     31  C   UNL     1       4.092   3.507  18.176  0.00  0.00    +0.000 C 
ENDBRANCH   1  31
TORSDOF 4
ENDMDL
