MODEL 1
REMARK VINA RESULT:      -6.3      0.000      0.000
REMARK  Name = 
REMARK  10 active torsions:
REMARK  status: ('A' for Active; 'I' for Inactive)
REMARK    1  A    between atoms: C_1  and  C_2
REMARK    2  A    between atoms: C_2  and  C_3
REMARK    3  A    between atoms: C_3  and  C_4
REMARK    4  A    between atoms: C_4  and  C_5
REMARK    5  A    between atoms: C_5  and  C_6
REMARK    6  A    between atoms: C_6  and  N_7
REMARK    7  A    between atoms: C_9  and  N_10
REMARK    8  A    between atoms: C_12  and  C_13
REMARK    9  A    between atoms: C_18  and  O_19
REMARK   10  A    between atoms: C_21  and  C_22
REMARK                            x       y       z     vdW  Elec       q    Type
REMARK                         _______ _______ _______ _____ _____    ______ ____
ROOT
ATOM      1  N   UNL     1       3.746   4.728  18.331  0.00  0.00    +0.000 NA
ATOM      2  C   UNL     1       2.568   5.374  17.729  0.00  0.00    +0.000 C 
ATOM      3  C   UNL     1       2.551   6.909  17.884  0.00  0.00    +0.000 C 
ATOM      4  C   UNL     1       3.904   7.589  17.610  0.00  0.00    +0.000 C 
ATOM      5  C   UNL     1       5.113   6.780  18.085  0.00  0.00    +0.000 C 
ATOM      6  C   UNL     1       5.030   5.261  17.844  0.00  0.00    +0.000 C 
ENDROOT
BRANCH   6   7
ATOM      7  C   UNL     1       5.464   4.810  16.449  0.00  0.00    +0.000 A 
ATOM      8  C   UNL     1       6.820   4.915  16.084  0.00  0.00    +0.000 A 
ATOM      9  C   UNL     1       7.266   4.514  14.821  0.00  0.00    +0.000 A 
ATOM     10  C   UNL     1       6.354   4.033  13.889  0.00  0.00    +0.000 A 
ATOM     11 CL   UNL     1       6.886   3.581  12.319  0.00  0.00    +0.000 Cl
ATOM     12  C   UNL     1       5.013   3.917  14.223  0.00  0.00    +0.000 A 
ATOM     13  C   UNL     1       4.581   4.281  15.499  0.00  0.00    +0.000 A 
ENDBRANCH   6   7
BRANCH   3  14
ATOM     14  N   UNL     1       2.037   7.279  19.195  0.00  0.00    +0.000 N 
ATOM     15  C   UNL     1       1.692   8.521  19.653  0.00  0.00    +0.000 A 
ATOM     16  C   UNL     1       1.353   8.299  20.957  0.00  0.00    +0.000 A 
ATOM     17  N   UNL     1       1.483   6.971  21.255  0.00  0.00    +0.000 NA
ATOM     18  N   UNL     1       1.898   6.348  20.158  0.00  0.00    +0.000 NA
BRANCH  16  19
ATOM     19  C   UNL     1       0.927   9.390  21.905  0.00  0.00    +0.000 C 
ATOM     20  C   UNL     1      -0.322  10.182  21.590  0.00  0.00    +0.000 C 
ATOM     21  C   UNL     1      -0.342   9.190  22.702  0.00  0.00    +0.000 C 
ENDBRANCH  16  19
ENDBRANCH   3  14
BRANCH   4  22
ATOM     22  O   UNL     1       4.022   7.901  16.217  0.00  0.00    +0.000 OA
ATOM     23  H   UNL     1       4.394   7.127  15.756  0.00  0.00    +0.000 HD
ENDBRANCH   4  22
BRANCH   1  24
ATOM     24  C   UNL     1       3.636   3.263  18.316  0.00  0.00    +0.000 C 
BRANCH  24  25
ATOM     25  C   UNL     1       2.301   2.735  17.760  0.00  0.00    +0.000 C 
BRANCH  25  26
ATOM     26  C   UNL     1       1.402   2.046  18.794  0.00  0.00    +0.000 C 
BRANCH  26  27
ATOM     27  C   UNL     1       0.864   2.979  19.880  0.00  0.00    +0.000 C 
BRANCH  27  29
ATOM     28  C   UNL     1       2.382   3.484  21.831  0.00  0.00    +0.000 C 
ATOM     29  C   UNL     1       1.316   2.558  21.278  0.00  0.00    +0.000 C 
ENDBRANCH  27  29
ENDBRANCH  26  27
ENDBRANCH  25  26
ENDBRANCH  24  25
ENDBRANCH   1  24
TORSDOF 9
ENDMDL
MODEL 2
REMARK VINA RESULT:      -6.2      2.897      4.927
REMARK  Name = 
REMARK  10 active torsions:
REMARK  status: ('A' for Active; 'I' for Inactive)
REMARK    1  A    between atoms: C_1  and  C_2
REMARK    2  A    between atoms: C_2  and  C_3
REMARK    3  A    between atoms: C_3  and  C_4
REMARK    4  A    between atoms: C_4  and  C_5
REMARK    5  A    between atoms: C_5  and  C_6
REMARK    6  A    between atoms: C_6  and  N_7
REMARK    7  A    between atoms: C_9  and  N_10
REMARK    8  A    between atoms: C_12  and  C_13
REMARK    9  A    between atoms: C_18  and  O_19
REMARK   10  A    between atoms: C_21  and  C_22
REMARK                            x       y       z     vdW  Elec       q    Type
REMARK                         _______ _______ _______ _____ _____    ______ ____
ROOT
ATOM      1  N   UNL     1       3.500   5.324  17.570  0.00  0.00    +0.000 NA
ATOM      2  C   UNL     1       4.021   6.187  18.643  0.00  0.00    +0.000 C 
ATOM      3  C   UNL     1       2.929   6.755  19.572  0.00  0.00    +0.000 C 
ATOM      4  C   UNL     1       1.860   5.731  19.993  0.00  0.00    +0.000 C 
ATOM      5  C   UNL     1       1.493   4.730  18.896  0.00  0.00    +0.000 C 
ATOM      6  C   UNL     1       2.673   4.206  18.055  0.00  0.00    +0.000 C 
ENDROOT
BRANCH   6   7
ATOM      7  C   UNL     1       3.425   3.027  18.673  0.00  0.00    +0.000 A 
ATOM      8  C   UNL     1       4.158   3.226  19.859  0.00  0.00    +0.000 A 
ATOM      9  C   UNL     1       4.860   2.178  20.463  0.00  0.00    +0.000 A 
ATOM     10  C   UNL     1       4.867   0.922  19.871  0.00  0.00    +0.000 A 
ATOM     11 CL   UNL     1       5.764  -0.360  20.583  0.00  0.00    +0.000 Cl
ATOM     12  C   UNL     1       4.151   0.698  18.704  0.00  0.00    +0.000 A 
ATOM     13  C   UNL     1       3.420   1.737  18.127  0.00  0.00    +0.000 A 
ENDBRANCH   6   7
BRANCH   3  14
ATOM     14  N   UNL     1       2.317   7.933  18.974  0.00  0.00    +0.000 N 
ATOM     15  C   UNL     1       1.344   8.741  19.493  0.00  0.00    +0.000 A 
ATOM     16  C   UNL     1       1.097   9.632  18.489  0.00  0.00    +0.000 A 
ATOM     17  N   UNL     1       1.904   9.365  17.417  0.00  0.00    +0.000 NA
ATOM     18  N   UNL     1       2.660   8.318  17.730  0.00  0.00    +0.000 NA
BRANCH  16  19
ATOM     19  C   UNL     1       0.060  10.721  18.576  0.00  0.00    +0.000 C 
ATOM     20  C   UNL     1      -1.368  10.400  18.195  0.00  0.00    +0.000 C 
ATOM     21  C   UNL     1      -1.017  10.602  19.629  0.00  0.00    +0.000 C 
ENDBRANCH  16  19
ENDBRANCH   3  14
BRANCH   4  22
ATOM     22  O   UNL     1       2.276   5.047  21.180  0.00  0.00    +0.000 OA
ATOM     23  H   UNL     1       2.150   5.641  21.942  0.00  0.00    +0.000 HD
ENDBRANCH   4  22
BRANCH   1  24
ATOM     24  C   UNL     1       4.547   4.950  16.609  0.00  0.00    +0.000 C 
BRANCH  24  25
ATOM     25  C   UNL     1       5.437   6.122  16.157  0.00  0.00    +0.000 C 
BRANCH  25  26
ATOM     26  C   UNL     1       6.910   6.006  16.567  0.00  0.00    +0.000 C 
BRANCH  26  27
ATOM     27  C   UNL     1       7.475   7.256  17.243  0.00  0.00    +0.000 C 
BRANCH  27  29
ATOM     28  C   UNL     1       7.700   5.554  19.091  0.00  0.00    +0.000 C 
ATOM     29  C   UNL     1       8.049   6.955  18.627  0.00  0.00    +0.000 C 
ENDBRANCH  27  29
ENDBRANCH  26  27
ENDBRANCH  25  26
ENDBRANCH  24  25
ENDBRANCH   1  24
TORSDOF 9
ENDMDL
MODEL 3
REMARK VINA RESULT:      -6.1      0.655      1.093
REMARK  Name = 
REMARK  10 active torsions:
REMARK  status: ('A' for Active; 'I' for Inactive)
REMARK    1  A    between atoms: C_1  and  C_2
REMARK    2  A    between atoms: C_2  and  C_3
REMARK    3  A    between atoms: C_3  and  C_4
REMARK    4  A    between atoms: C_4  and  C_5
REMARK    5  A    between atoms: C_5  and  C_6
REMARK    6  A    between atoms: C_6  and  N_7
REMARK    7  A    between atoms: C_9  and  N_10
REMARK    8  A    between atoms: C_12  and  C_13
REMARK    9  A    between atoms: C_18  and  O_19
REMARK   10  A    between atoms: C_21  and  C_22
REMARK                            x       y       z     vdW  Elec       q    Type
REMARK                         _______ _______ _______ _____ _____    ______ ____
ROOT
ATOM      1  N   UNL     1       4.114   4.898  18.391  0.00  0.00    +0.000 NA
ATOM      2  C   UNL     1       2.812   5.301  17.834  0.00  0.00    +0.000 C 
ATOM      3  C   UNL     1       2.579   6.826  17.834  0.00  0.00    +0.000 C 
ATOM      4  C   UNL     1       3.793   7.653  17.372  0.00  0.00    +0.000 C 
ATOM      5  C   UNL     1       5.140   7.079  17.817  0.00  0.00    +0.000 C 
ATOM      6  C   UNL     1       5.265   5.546  17.740  0.00  0.00    +0.000 C 
ENDROOT
BRANCH   6   7
ATOM      7  C   UNL     1       5.657   5.005  16.365  0.00  0.00    +0.000 A 
ATOM      8  C   UNL     1       6.933   5.303  15.847  0.00  0.00    +0.000 A 
ATOM      9  C   UNL     1       7.339   4.830  14.596  0.00  0.00    +0.000 A 
ATOM     10  C   UNL     1       6.460   4.079  13.826  0.00  0.00    +0.000 A 
ATOM     11 CL   UNL     1       6.934   3.532  12.267  0.00  0.00    +0.000 Cl
ATOM     12  C   UNL     1       5.198   3.769  14.312  0.00  0.00    +0.000 A 
ATOM     13  C   UNL     1       4.814   4.210  15.579  0.00  0.00    +0.000 A 
ENDBRANCH   6   7
BRANCH   3  14
ATOM     14  N   UNL     1       2.114   7.267  19.141  0.00  0.00    +0.000 N 
ATOM     15  C   UNL     1       1.744   8.524  19.532  0.00  0.00    +0.000 A 
ATOM     16  C   UNL     1       1.475   8.381  20.863  0.00  0.00    +0.000 A 
ATOM     17  N   UNL     1       1.669   7.081  21.242  0.00  0.00    +0.000 NA
ATOM     18  N   UNL     1       2.056   6.399  20.170  0.00  0.00    +0.000 NA
BRANCH  16  19
ATOM     19  C   UNL     1       1.053   9.518  21.756  0.00  0.00    +0.000 C 
ATOM     20  C   UNL     1      -0.421   9.741  22.004  0.00  0.00    +0.000 C 
ATOM     21  C   UNL     1       0.431   9.185  23.093  0.00  0.00    +0.000 C 
ENDBRANCH  16  19
ENDBRANCH   3  14
BRANCH   4  22
ATOM     22  O   UNL     1       3.761   7.819  15.951  0.00  0.00    +0.000 OA
ATOM     23  H   UNL     1       2.859   7.624  15.635  0.00  0.00    +0.000 HD
ENDBRANCH   4  22
BRANCH   1  24
ATOM     24  C   UNL     1       4.222   3.439  18.534  0.00  0.00    +0.000 C 
BRANCH  24  25
ATOM     25  C   UNL     1       4.318   2.953  19.991  0.00  0.00    +0.000 C 
BRANCH  25  26
ATOM     26  C   UNL     1       3.071   2.225  20.510  0.00  0.00    +0.000 C 
BRANCH  26  27
ATOM     27  C   UNL     1       2.070   3.129  21.228  0.00  0.00    +0.000 C 
BRANCH  27  29
ATOM     28  C   UNL     1       0.784   2.490  19.153  0.00  0.00    +0.000 C 
ATOM     29  C   UNL     1       0.746   3.239  20.472  0.00  0.00    +0.000 C 
ENDBRANCH  27  29
ENDBRANCH  26  27
ENDBRANCH  25  26
ENDBRANCH  24  25
ENDBRANCH   1  24
TORSDOF 9
ENDMDL
MODEL 4
REMARK VINA RESULT:      -6.1      5.471     10.069
REMARK  Name = 
REMARK  10 active torsions:
REMARK  status: ('A' for Active; 'I' for Inactive)
REMARK    1  A    between atoms: C_1  and  C_2
REMARK    2  A    between atoms: C_2  and  C_3
REMARK    3  A    between atoms: C_3  and  C_4
REMARK    4  A    between atoms: C_4  and  C_5
REMARK    5  A    between atoms: C_5  and  C_6
REMARK    6  A    between atoms: C_6  and  N_7
REMARK    7  A    between atoms: C_9  and  N_10
REMARK    8  A    between atoms: C_12  and  C_13
REMARK    9  A    between atoms: C_18  and  O_19
REMARK   10  A    between atoms: C_21  and  C_22
REMARK                            x       y       z     vdW  Elec       q    Type
REMARK                         _______ _______ _______ _____ _____    ______ ____
ROOT
ATOM      1  N   UNL     1      -0.702  11.451  18.663  0.00  0.00    +0.000 NA
ATOM      2  C   UNL     1      -0.952  10.169  19.345  0.00  0.00    +0.000 C 
ATOM      3  C   UNL     1       0.248   9.656  20.166  0.00  0.00    +0.000 C 
ATOM      4  C   UNL     1       0.952  10.737  21.005  0.00  0.00    +0.000 C 
ATOM      5  C   UNL     1       1.013  12.107  20.327  0.00  0.00    +0.000 C 
ATOM      6  C   UNL     1      -0.259  12.527  19.565  0.00  0.00    +0.000 C 
ENDROOT
BRANCH   6   7
ATOM      7  C   UNL     1      -1.340  13.170  20.433  0.00  0.00    +0.000 A 
ATOM      8  C   UNL     1      -1.517  14.567  20.388  0.00  0.00    +0.000 A 
ATOM      9  C   UNL     1      -2.494  15.201  21.160  0.00  0.00    +0.000 A 
ATOM     10  C   UNL     1      -3.288  14.452  22.019  0.00  0.00    +0.000 A 
ATOM     11 CL   UNL     1      -4.460  15.228  23.007  0.00  0.00    +0.000 Cl
ATOM     12  C   UNL     1      -3.136  13.074  22.082  0.00  0.00    +0.000 A 
ATOM     13  C   UNL     1      -2.187  12.442  21.278  0.00  0.00    +0.000 A 
ENDBRANCH   6   7
BRANCH   3  14
ATOM     14  N   UNL     1       1.196   8.967  19.301  0.00  0.00    +0.000 N 
ATOM     15  C   UNL     1       1.992   7.895  19.597  0.00  0.00    +0.000 A 
ATOM     16  C   UNL     1       2.725   7.716  18.459  0.00  0.00    +0.000 A 
ATOM     17  N   UNL     1       2.366   8.644  17.520  0.00  0.00    +0.000 NA
ATOM     18  N   UNL     1       1.415   9.407  18.047  0.00  0.00    +0.000 NA
BRANCH  16  19
ATOM     19  C   UNL     1       3.784   6.656  18.307  0.00  0.00    +0.000 C 
ATOM     20  C   UNL     1       3.442   5.387  17.559  0.00  0.00    +0.000 C 
ATOM     21  C   UNL     1       4.341   6.393  16.926  0.00  0.00    +0.000 C 
ENDBRANCH  16  19
ENDBRANCH   3  14
BRANCH   4  22
ATOM     22  O   UNL     1       0.332  10.840  22.292  0.00  0.00    +0.000 OA
ATOM     23  H   UNL     1       0.173  11.782  22.486  0.00  0.00    +0.000 HD
ENDBRANCH   4  22
BRANCH   1  24
ATOM     24  C   UNL     1      -1.800  11.813  17.757  0.00  0.00    +0.000 C 
BRANCH  24  25
ATOM     25  C   UNL     1      -3.057  10.937  17.905  0.00  0.00    +0.000 C 
BRANCH  25  26
ATOM     26  C   UNL     1      -4.301  11.677  18.411  0.00  0.00    +0.000 C 
BRANCH  26  27
ATOM     27  C   UNL     1      -5.530  11.526  17.515  0.00  0.00    +0.000 C 
BRANCH  27  29
ATOM     28  C   UNL     1      -6.583  11.332  19.800  0.00  0.00    +0.000 C 
ATOM     29  C   UNL     1      -6.779  11.140  18.309  0.00  0.00    +0.000 C 
ENDBRANCH  27  29
ENDBRANCH  26  27
ENDBRANCH  25  26
ENDBRANCH  24  25
ENDBRANCH   1  24
TORSDOF 9
ENDMDL
MODEL 5
REMARK VINA RESULT:      -6.0      5.859      9.823
REMARK  Name = 
REMARK  10 active torsions:
REMARK  status: ('A' for Active; 'I' for Inactive)
REMARK    1  A    between atoms: C_1  and  C_2
REMARK    2  A    between atoms: C_2  and  C_3
REMARK    3  A    between atoms: C_3  and  C_4
REMARK    4  A    between atoms: C_4  and  C_5
REMARK    5  A    between atoms: C_5  and  C_6
REMARK    6  A    between atoms: C_6  and  N_7
REMARK    7  A    between atoms: C_9  and  N_10
REMARK    8  A    between atoms: C_12  and  C_13
REMARK    9  A    between atoms: C_18  and  O_19
REMARK   10  A    between atoms: C_21  and  C_22
REMARK                            x       y       z     vdW  Elec       q    Type
REMARK                         _______ _______ _______ _____ _____    ______ ____
ROOT
ATOM      1  N   UNL     1      -0.720  11.679  18.412  0.00  0.00    +0.000 NA
ATOM      2  C   UNL     1      -0.751  10.889  19.654  0.00  0.00    +0.000 C 
ATOM      3  C   UNL     1       0.646  10.578  20.230  0.00  0.00    +0.000 C 
ATOM      4  C   UNL     1       1.617  11.773  20.217  0.00  0.00    +0.000 C 
ATOM      5  C   UNL     1       1.473  12.676  18.991  0.00  0.00    +0.000 C 
ATOM      6  C   UNL     1       0.027  12.943  18.530  0.00  0.00    +0.000 C 
ENDROOT
BRANCH   6   7
ATOM      7  C   UNL     1      -0.679  14.080  19.267  0.00  0.00    +0.000 A 
ATOM      8  C   UNL     1      -0.422  15.411  18.885  0.00  0.00    +0.000 A 
ATOM      9  C   UNL     1      -1.045  16.485  19.527  0.00  0.00    +0.000 A 
ATOM     10  C   UNL     1      -1.911  16.246  20.586  0.00  0.00    +0.000 A 
ATOM     11 CL   UNL     1      -2.647  17.562  21.411  0.00  0.00    +0.000 Cl
ATOM     12  C   UNL     1      -2.185  14.945  20.982  0.00  0.00    +0.000 A 
ATOM     13  C   UNL     1      -1.591  13.875  20.311  0.00  0.00    +0.000 A 
ENDBRANCH   6   7
BRANCH   3  14
ATOM     14  N   UNL     1       1.227   9.426  19.555  0.00  0.00    +0.000 N 
ATOM     15  C   UNL     1       1.707   8.271  20.108  0.00  0.00    +0.000 A 
ATOM     16  C   UNL     1       2.197   7.581  19.037  0.00  0.00    +0.000 A 
ATOM     17  N   UNL     1       2.004   8.300  17.890  0.00  0.00    +0.000 NA
ATOM     18  N   UNL     1       1.397   9.435  18.219  0.00  0.00    +0.000 NA
BRANCH  16  19
ATOM     19  C   UNL     1       2.869   6.237  19.146  0.00  0.00    +0.000 C 
ATOM     20  C   UNL     1       2.018   4.989  19.075  0.00  0.00    +0.000 C 
ATOM     21  C   UNL     1       2.894   5.348  17.923  0.00  0.00    +0.000 C 
ENDBRANCH  16  19
ENDBRANCH   3  14
BRANCH   4  22
ATOM     22  O   UNL     1       1.475  12.533  21.423  0.00  0.00    +0.000 OA
ATOM     23  H   UNL     1       2.004  13.347  21.341  0.00  0.00    +0.000 HD
ENDBRANCH   4  22
BRANCH   1  24
ATOM     24  C   UNL     1      -2.053  11.801  17.806  0.00  0.00    +0.000 C 
BRANCH  24  25
ATOM     25  C   UNL     1      -2.808  10.466  17.668  0.00  0.00    +0.000 C 
BRANCH  25  26
ATOM     26  C   UNL     1      -2.647   9.774  16.309  0.00  0.00    +0.000 C 
BRANCH  26  27
ATOM     27  C   UNL     1      -3.165  10.589  15.124  0.00  0.00    +0.000 C 
BRANCH  27  29
ATOM     28  C   UNL     1      -4.212   9.882  12.939  0.00  0.00    +0.000 C 
ATOM     29  C   UNL     1      -2.958   9.867  13.792  0.00  0.00    +0.000 C 
ENDBRANCH  27  29
ENDBRANCH  26  27
ENDBRANCH  25  26
ENDBRANCH  24  25
ENDBRANCH   1  24
TORSDOF 9
ENDMDL
MODEL 6
REMARK VINA RESULT:      -6.0      2.765      5.174
REMARK  Name = 
REMARK  10 active torsions:
REMARK  status: ('A' for Active; 'I' for Inactive)
REMARK    1  A    between atoms: C_1  and  C_2
REMARK    2  A    between atoms: C_2  and  C_3
REMARK    3  A    between atoms: C_3  and  C_4
REMARK    4  A    between atoms: C_4  and  C_5
REMARK    5  A    between atoms: C_5  and  C_6
REMARK    6  A    between atoms: C_6  and  N_7
REMARK    7  A    between atoms: C_9  and  N_10
REMARK    8  A    between atoms: C_12  and  C_13
REMARK    9  A    between atoms: C_18  and  O_19
REMARK   10  A    between atoms: C_21  and  C_22
REMARK                            x       y       z     vdW  Elec       q    Type
REMARK                         _______ _______ _______ _____ _____    ______ ____
ROOT
ATOM      1  N   UNL     1       3.899   5.540  17.751  0.00  0.00    +0.000 NA
ATOM      2  C   UNL     1       4.024   6.269  19.024  0.00  0.00    +0.000 C 
ATOM      3  C   UNL     1       2.672   6.675  19.646  0.00  0.00    +0.000 C 
ATOM      4  C   UNL     1       1.599   5.571  19.606  0.00  0.00    +0.000 C 
ATOM      5  C   UNL     1       1.638   4.714  18.339  0.00  0.00    +0.000 C 
ATOM      6  C   UNL     1       3.045   4.343  17.833  0.00  0.00    +0.000 C 
ENDROOT
BRANCH   6   7
ATOM      7  C   UNL     1       3.663   3.116  18.504  0.00  0.00    +0.000 A 
ATOM      8  C   UNL     1       4.332   3.269  19.734  0.00  0.00    +0.000 A 
ATOM      9  C   UNL     1       4.911   2.177  20.387  0.00  0.00    +0.000 A 
ATOM     10  C   UNL     1       4.860   0.918  19.802  0.00  0.00    +0.000 A 
ATOM     11 CL   UNL     1       5.608  -0.421  20.576  0.00  0.00    +0.000 Cl
ATOM     12  C   UNL     1       4.204   0.738  18.593  0.00  0.00    +0.000 A 
ATOM     13  C   UNL     1       3.593   1.825  17.965  0.00  0.00    +0.000 A 
ENDBRANCH   6   7
BRANCH   3  14
ATOM     14  N   UNL     1       2.182   7.902  19.035  0.00  0.00    +0.000 N 
ATOM     15  C   UNL     1       1.294   8.809  19.545  0.00  0.00    +0.000 A 
ATOM     16  C   UNL     1       1.139   9.711  18.532  0.00  0.00    +0.000 A 
ATOM     17  N   UNL     1       1.916   9.354  17.465  0.00  0.00    +0.000 NA
ATOM     18  N   UNL     1       2.563   8.240  17.788  0.00  0.00    +0.000 NA
BRANCH  16  19
ATOM     19  C   UNL     1       0.217  10.899  18.606  0.00  0.00    +0.000 C 
ATOM     20  C   UNL     1      -1.232  10.724  18.209  0.00  0.00    +0.000 C 
ATOM     21  C   UNL     1      -0.880  10.890  19.648  0.00  0.00    +0.000 C 
ENDBRANCH  16  19
ENDBRANCH   3  14
BRANCH   4  22
ATOM     22  O   UNL     1       1.698   4.749  20.774  0.00  0.00    +0.000 OA
ATOM     23  H   UNL     1       1.846   5.324  21.547  0.00  0.00    +0.000 HD
ENDBRANCH   4  22
BRANCH   1  24
ATOM     24  C   UNL     1       5.204   5.329  17.109  0.00  0.00    +0.000 C 
BRANCH  24  25
ATOM     25  C   UNL     1       5.205   5.565  15.587  0.00  0.00    +0.000 C 
BRANCH  25  26
ATOM     26  C   UNL     1       5.371   4.298  14.740  0.00  0.00    +0.000 C 
BRANCH  26  27
ATOM     27  C   UNL     1       6.481   4.384  13.693  0.00  0.00    +0.000 C 
BRANCH  27  29
ATOM     28  C   UNL     1       4.851   3.459  12.004  0.00  0.00    +0.000 C 
ATOM     29  C   UNL     1       6.267   3.400  12.543  0.00  0.00    +0.000 C 
ENDBRANCH  27  29
ENDBRANCH  26  27
ENDBRANCH  25  26
ENDBRANCH  24  25
ENDBRANCH   1  24
TORSDOF 9
ENDMDL
MODEL 7
REMARK VINA RESULT:      -6.0      7.869     11.216
REMARK  Name = 
REMARK  10 active torsions:
REMARK  status: ('A' for Active; 'I' for Inactive)
REMARK    1  A    between atoms: C_1  and  C_2
REMARK    2  A    between atoms: C_2  and  C_3
REMARK    3  A    between atoms: C_3  and  C_4
REMARK    4  A    between atoms: C_4  and  C_5
REMARK    5  A    between atoms: C_5  and  C_6
REMARK    6  A    between atoms: C_6  and  N_7
REMARK    7  A    between atoms: C_9  and  N_10
REMARK    8  A    between atoms: C_12  and  C_13
REMARK    9  A    between atoms: C_18  and  O_19
REMARK   10  A    between atoms: C_21  and  C_22
REMARK                            x       y       z     vdW  Elec       q    Type
REMARK                         _______ _______ _______ _____ _____    ______ ____
ROOT
ATOM      1  N   UNL     1      -1.149  12.187  22.049  0.00  0.00    +0.000 NA
ATOM      2  C   UNL     1      -0.607  13.436  22.609  0.00  0.00    +0.000 C 
ATOM      3  C   UNL     1      -0.381  14.544  21.560  0.00  0.00    +0.000 C 
ATOM      4  C   UNL     1      -1.531  14.704  20.550  0.00  0.00    +0.000 C 
ATOM      5  C   UNL     1      -2.191  13.384  20.146  0.00  0.00    +0.000 C 
ATOM      6  C   UNL     1      -2.396  12.369  21.287  0.00  0.00    +0.000 C 
ENDROOT
BRANCH   6   7
ATOM      7  C   UNL     1      -3.666  12.581  22.110  0.00  0.00    +0.000 A 
ATOM      8  C   UNL     1      -4.898  12.742  21.444  0.00  0.00    +0.000 A 
ATOM      9  C   UNL     1      -6.087  12.936  22.153  0.00  0.00    +0.000 A 
ATOM     10  C   UNL     1      -6.059  13.007  23.540  0.00  0.00    +0.000 A 
ATOM     11 CL   UNL     1      -7.509  13.291  24.417  0.00  0.00    +0.000 Cl
ATOM     12  C   UNL     1      -4.861  12.849  24.221  0.00  0.00    +0.000 A 
ATOM     13  C   UNL     1      -3.683  12.616  23.510  0.00  0.00    +0.000 A 
ENDBRANCH   6   7
BRANCH   3  14
ATOM     14  N   UNL     1       0.890  14.343  20.878  0.00  0.00    +0.000 N 
ATOM     15  C   UNL     1       1.188  14.550  19.560  0.00  0.00    +0.000 A 
ATOM     16  C   UNL     1       2.483  14.132  19.454  0.00  0.00    +0.000 A 
ATOM     17  N   UNL     1       2.937  13.703  20.670  0.00  0.00    +0.000 NA
ATOM     18  N   UNL     1       1.948  13.844  21.546  0.00  0.00    +0.000 NA
BRANCH  16  19
ATOM     19  C   UNL     1       3.259  14.135  18.162  0.00  0.00    +0.000 C 
ATOM     20  C   UNL     1       3.656  15.461  17.553  0.00  0.00    +0.000 C 
ATOM     21  C   UNL     1       4.695  14.604  18.191  0.00  0.00    +0.000 C 
ENDBRANCH  16  19
ENDBRANCH   3  14
BRANCH   4  22
ATOM     22  O   UNL     1      -2.507  15.620  21.058  0.00  0.00    +0.000 OA
ATOM     23  H   UNL     1      -2.890  16.113  20.310  0.00  0.00    +0.000 HD
ENDBRANCH   4  22
BRANCH   1  24
ATOM     24  C   UNL     1      -1.182  11.107  23.045  0.00  0.00    +0.000 C 
BRANCH  24  25
ATOM     25  C   UNL     1      -0.386   9.853  22.645  0.00  0.00    +0.000 C 
BRANCH  25  26
ATOM     26  C   UNL     1       0.750  10.104  21.645  0.00  0.00    +0.000 C 
BRANCH  26  27
ATOM     27  C   UNL     1       0.516   9.494  20.263  0.00  0.00    +0.000 C 
BRANCH  27  29
ATOM     28  C   UNL     1      -0.935  10.363  18.391  0.00  0.00    +0.000 C 
ATOM     29  C   UNL     1       0.343  10.562  19.183  0.00  0.00    +0.000 C 
ENDBRANCH  27  29
ENDBRANCH  26  27
ENDBRANCH  25  26
ENDBRANCH  24  25
ENDBRANCH   1  24
TORSDOF 9
ENDMDL
MODEL 8
REMARK VINA RESULT:      -6.0      4.344      8.494
REMARK  Name = 
REMARK  10 active torsions:
REMARK  status: ('A' for Active; 'I' for Inactive)
REMARK    1  A    between atoms: C_1  and  C_2
REMARK    2  A    between atoms: C_2  and  C_3
REMARK    3  A    between atoms: C_3  and  C_4
REMARK    4  A    between atoms: C_4  and  C_5
REMARK    5  A    between atoms: C_5  and  C_6
REMARK    6  A    between atoms: C_6  and  N_7
REMARK    7  A    between atoms: C_9  and  N_10
REMARK    8  A    between atoms: C_12  and  C_13
REMARK    9  A    between atoms: C_18  and  O_19
REMARK   10  A    between atoms: C_21  and  C_22
REMARK                            x       y       z     vdW  Elec       q    Type
REMARK                         _______ _______ _______ _____ _____    ______ ____
ROOT
ATOM      1  N   UNL     1      -0.039   8.990  20.124  0.00  0.00    +0.000 NA
ATOM      2  C   UNL     1       1.415   8.980  20.357  0.00  0.00    +0.000 C 
ATOM      3  C   UNL     1       2.242   8.572  19.120  0.00  0.00    +0.000 C 
ATOM      4  C   UNL     1       1.777   9.221  17.805  0.00  0.00    +0.000 C 
ATOM      5  C   UNL     1       0.259   9.385  17.696  0.00  0.00    +0.000 C 
ATOM      6  C   UNL     1      -0.453   9.830  18.988  0.00  0.00    +0.000 C 
ENDROOT
BRANCH   6   7
ATOM      7  C   UNL     1      -0.456  11.339  19.228  0.00  0.00    +0.000 A 
ATOM      8  C   UNL     1      -1.660  12.056  19.087  0.00  0.00    +0.000 A 
ATOM      9  C   UNL     1      -1.714  13.436  19.299  0.00  0.00    +0.000 A 
ATOM     10  C   UNL     1      -0.554  14.130  19.623  0.00  0.00    +0.000 A 
ATOM     11 CL   UNL     1      -0.602  15.834  19.840  0.00  0.00    +0.000 Cl
ATOM     12  C   UNL     1       0.646  13.448  19.771  0.00  0.00    +0.000 A 
ATOM     13  C   UNL     1       0.685  12.064  19.597  0.00  0.00    +0.000 A 
ENDBRANCH   6   7
BRANCH   3  14
ATOM     14  N   UNL     1       2.290   7.121  19.000  0.00  0.00    +0.000 N 
ATOM     15  C   UNL     1       2.178   6.183  19.988  0.00  0.00    +0.000 A 
ATOM     16  C   UNL     1       2.371   5.001  19.332  0.00  0.00    +0.000 A 
ATOM     17  N   UNL     1       2.580   5.234  18.000  0.00  0.00    +0.000 NA
ATOM     18  N   UNL     1       2.520   6.546  17.804  0.00  0.00    +0.000 NA
BRANCH  16  19
ATOM     19  C   UNL     1       2.373   3.658  20.014  0.00  0.00    +0.000 C 
ATOM     20  C   UNL     1       1.054   2.951  20.234  0.00  0.00    +0.000 C 
ATOM     21  C   UNL     1       1.999   2.441  19.199  0.00  0.00    +0.000 C 
ENDBRANCH  16  19
ENDBRANCH   3  14
BRANCH   4  22
ATOM     22  O   UNL     1       2.435  10.479  17.619  0.00  0.00    +0.000 OA
ATOM     23  H   UNL     1       1.805  11.193  17.829  0.00  0.00    +0.000 HD
ENDBRANCH   4  22
BRANCH   1  24
ATOM     24  C   UNL     1      -0.793   9.210  21.366  0.00  0.00    +0.000 C 
BRANCH  24  25
ATOM     25  C   UNL     1      -0.028  10.011  22.435  0.00  0.00    +0.000 C 
BRANCH  25  26
ATOM     26  C   UNL     1      -0.915  10.829  23.382  0.00  0.00    +0.000 C 
BRANCH  26  27
ATOM     27  C   UNL     1      -1.287  12.214  22.853  0.00  0.00    +0.000 C 
BRANCH  27  29
ATOM     28  C   UNL     1      -3.562  12.498  23.907  0.00  0.00    +0.000 C 
ATOM     29  C   UNL     1      -2.790  12.353  22.610  0.00  0.00    +0.000 C 
ENDBRANCH  27  29
ENDBRANCH  26  27
ENDBRANCH  25  26
ENDBRANCH  24  25
ENDBRANCH   1  24
TORSDOF 9
ENDMDL
MODEL 9
REMARK VINA RESULT:      -6.0      7.771     11.584
REMARK  Name = 
REMARK  10 active torsions:
REMARK  status: ('A' for Active; 'I' for Inactive)
REMARK    1  A    between atoms: C_1  and  C_2
REMARK    2  A    between atoms: C_2  and  C_3
REMARK    3  A    between atoms: C_3  and  C_4
REMARK    4  A    between atoms: C_4  and  C_5
REMARK    5  A    between atoms: C_5  and  C_6
REMARK    6  A    between atoms: C_6  and  N_7
REMARK    7  A    between atoms: C_9  and  N_10
REMARK    8  A    between atoms: C_12  and  C_13
REMARK    9  A    between atoms: C_18  and  O_19
REMARK   10  A    between atoms: C_21  and  C_22
REMARK                            x       y       z     vdW  Elec       q    Type
REMARK                         _______ _______ _______ _____ _____    ______ ____
ROOT
ATOM      1  N   UNL     1      -2.153  12.139  21.961  0.00  0.00    +0.000 NA
ATOM      2  C   UNL     1      -2.064  13.042  20.802  0.00  0.00    +0.000 C 
ATOM      3  C   UNL     1      -3.428  13.374  20.163  0.00  0.00    +0.000 C 
ATOM      4  C   UNL     1      -4.542  13.690  21.177  0.00  0.00    +0.000 C 
ATOM      5  C   UNL     1      -4.474  12.852  22.456  0.00  0.00    +0.000 C 
ATOM      6  C   UNL     1      -3.059  12.618  23.019  0.00  0.00    +0.000 C 
ENDROOT
BRANCH   6   7
ATOM      7  C   UNL     1      -2.529  13.745  23.905  0.00  0.00    +0.000 A 
ATOM      8  C   UNL     1      -3.342  14.246  24.940  0.00  0.00    +0.000 A 
ATOM      9  C   UNL     1      -2.901  15.274  25.778  0.00  0.00    +0.000 A 
ATOM     10  C   UNL     1      -1.650  15.842  25.572  0.00  0.00    +0.000 A 
ATOM     11 CL   UNL     1      -1.118  17.137  26.569  0.00  0.00    +0.000 Cl
ATOM     12  C   UNL     1      -0.827  15.366  24.562  0.00  0.00    +0.000 A 
ATOM     13  C   UNL     1      -1.257  14.312  23.755  0.00  0.00    +0.000 A 
ENDBRANCH   6   7
BRANCH   3  14
ATOM     14  N   UNL     1      -3.834  12.310  19.256  0.00  0.00    +0.000 N 
ATOM     15  C   UNL     1      -3.056  11.583  18.398  0.00  0.00    +0.000 A 
ATOM     16  C   UNL     1      -3.954  10.789  17.744  0.00  0.00    +0.000 A 
ATOM     17  N   UNL     1      -5.218  11.032  18.208  0.00  0.00    +0.000 NA
ATOM     18  N   UNL     1      -5.132  11.968  19.147  0.00  0.00    +0.000 NA
BRANCH  16  19
ATOM     19  C   UNL     1      -3.573   9.817  16.658  0.00  0.00    +0.000 C 
ATOM     20  C   UNL     1      -3.071  10.358  15.339  0.00  0.00    +0.000 C 
ATOM     21  C   UNL     1      -2.114   9.705  16.277  0.00  0.00    +0.000 C 
ENDBRANCH  16  19
ENDBRANCH   3  14
BRANCH   4  22
ATOM     22  O   UNL     1      -4.540  15.087  21.489  0.00  0.00    +0.000 OA
ATOM     23  H   UNL     1      -3.669  15.456  21.254  0.00  0.00    +0.000 HD
ENDBRANCH   4  22
BRANCH   1  24
ATOM     24  C   UNL     1      -0.826  11.711  22.427  0.00  0.00    +0.000 C 
BRANCH  24  25
ATOM     25  C   UNL     1      -0.829  10.390  23.216  0.00  0.00    +0.000 C 
BRANCH  25  26
ATOM     26  C   UNL     1       0.269   9.398  22.814  0.00  0.00    +0.000 C 
BRANCH  26  27
ATOM     27  C   UNL     1      -0.002   8.658  21.504  0.00  0.00    +0.000 C 
BRANCH  27  29
ATOM     28  C   UNL     1       0.204   9.983  19.367  0.00  0.00    +0.000 C 
ATOM     29  C   UNL     1       0.926   9.116  20.379  0.00  0.00    +0.000 C 
ENDBRANCH  27  29
ENDBRANCH  26  27
ENDBRANCH  25  26
ENDBRANCH  24  25
ENDBRANCH   1  24
TORSDOF 9
ENDMDL
