MODEL 1
REMARK VINA RESULT:      -6.8      0.000      0.000
REMARK  Name = 
REMARK  15 active torsions:
REMARK  status: ('A' for Active; 'I' for Inactive)
REMARK    1  A    between atoms: C_1  and  C_2
REMARK    2  A    between atoms: C_2  and  O_4
REMARK    3  A    between atoms: O_4  and  C_5
REMARK    4  A    between atoms: C_7  and  C_8
REMARK    5  A    between atoms: C_8  and  O_9
REMARK    6  A    between atoms: C_10  and  O_11
REMARK    7  A    between atoms: O_11  and  C_12
REMARK    8  A    between atoms: C_12  and  C_14
REMARK    9  A    between atoms: C_14  and  C_15
REMARK   10  A    between atoms: C_15  and  C_16
REMARK   11  A    between atoms: C_26  and  C_27
REMARK   12  A    between atoms: C_28  and  O_29
REMARK   13  A    between atoms: C_30  and  C_31
REMARK   14  A    between atoms: C_30  and  C_32
REMARK   15  A    between atoms: C_32  and  O_33
REMARK                            x       y       z     vdW  Elec       q    Type
REMARK                         _______ _______ _______ _____ _____    ______ ____
ROOT
ATOM      1  C   UNL     1       2.264  14.675  20.483  0.00  0.00    +0.000 C 
ATOM      2  C   UNL     1       1.809  13.254  20.819  0.00  0.00    +0.000 C 
ATOM      3  C   UNL     1       1.098  12.300  20.165  0.00  0.00    +0.000 C 
ATOM      4  C   UNL     1       0.741  11.023  20.932  0.00  0.00    +0.000 C 
ATOM      5  C   UNL     1      -0.483  11.063  21.920  0.00  0.00    +0.000 C 
ATOM      6  C   UNL     1      -0.900  12.236  22.844  0.00  0.00    +0.000 C 
ATOM      7  C   UNL     1      -1.339  13.804  22.871  0.00  0.00    +0.000 C 
ATOM      8  C   UNL     1      -0.183  14.545  22.422  0.00  0.00    +0.000 C 
ATOM      9  C   UNL     1       0.098  15.562  21.596  0.00  0.00    +0.000 C 
ATOM     10  C   UNL     1      -0.885  16.400  20.838  0.00  0.00    +0.000 C 
ATOM     11  C   UNL     1       1.591  15.796  21.372  0.00  0.00    +0.000 C 
ATOM     12  C   UNL     1      -2.294  12.739  22.494  0.00  0.00    +0.000 C 
ATOM     13  C   UNL     1      -3.332  12.353  23.540  0.00  0.00    +0.000 C 
ENDROOT
BRANCH  11  14
ATOM     14  O   UNL     1       1.839  17.101  20.844  0.00  0.00    +0.000 OA
ATOM     15  H   UNL     1       2.764  17.092  20.538  0.00  0.00    +0.000 HD
ENDBRANCH  11  14
BRANCH   1  16
ATOM     16  O   UNL     1       2.030  15.022  19.113  0.00  0.00    +0.000 OA
BRANCH  16  18
ATOM     17  C   UNL     1       3.175  16.381  17.599  0.00  0.00    +0.000 C 
ATOM     18  C   UNL     1       3.147  15.082  18.339  0.00  0.00    +0.000 C 
ATOM     19  O   UNL     1       3.970  14.193  18.200  0.00  0.00    +0.000 OA
ENDBRANCH  16  18
ENDBRANCH   1  16
BRANCH   3  20
ATOM     20  C   UNL     1       0.691  12.374  18.716  0.00  0.00    +0.000 C 
BRANCH  20  21
ATOM     21  O   UNL     1       1.782  12.077  17.854  0.00  0.00    +0.000 OA
ATOM     22  H   UNL     1       1.595  12.519  17.004  0.00  0.00    +0.000 HD
ENDBRANCH  20  21
ENDBRANCH   3  20
BRANCH   4  23
ATOM     23  O   UNL     1       0.861   9.864  19.983  0.00  0.00    +0.000 OA
BRANCH  23  24
ATOM     24  C   UNL     1       1.389   8.648  20.285  0.00  0.00    +0.000 C 
ATOM     25  O   UNL     1       1.310   8.097  21.381  0.00  0.00    +0.000 OA
BRANCH  24  26
ATOM     26  C   UNL     1       1.993   7.896  19.088  0.00  0.00    +0.000 C 
BRANCH  26  27
ATOM     27  C   UNL     1       2.926   6.715  19.358  0.00  0.00    +0.000 C 
BRANCH  27  28
ATOM     28  C   UNL     1       2.224   5.362  19.354  0.00  0.00    +0.000 A 
ATOM     29  C   UNL     1       1.743   4.786  20.539  0.00  0.00    +0.000 A 
ATOM     30  C   UNL     1       1.063   3.557  20.540  0.00  0.00    +0.000 A 
ATOM     31  C   UNL     1       0.857   2.872  19.341  0.00  0.00    +0.000 A 
ATOM     32  C   UNL     1       1.333   3.419  18.155  0.00  0.00    +0.000 A 
ATOM     33  C   UNL     1       2.017   4.648  18.155  0.00  0.00    +0.000 A 
ENDBRANCH  27  28
ENDBRANCH  26  27
ENDBRANCH  24  26
ENDBRANCH  23  24
ENDBRANCH   4  23
BRANCH  12  34
ATOM     34  C   UNL     1      -2.919  12.749  21.113  0.00  0.00    +0.000 C 
BRANCH  34  35
ATOM     35  O   UNL     1      -4.311  12.519  21.124  0.00  0.00    +0.000 OA
ATOM     36  H   UNL     1      -4.726  13.398  21.231  0.00  0.00    +0.000 HD
ENDBRANCH  34  35
ENDBRANCH  12  34
TORSDOF 12
ENDMDL
MODEL 2
REMARK VINA RESULT:      -6.5      1.617      4.844
REMARK  Name = 
REMARK  15 active torsions:
REMARK  status: ('A' for Active; 'I' for Inactive)
REMARK    1  A    between atoms: C_1  and  C_2
REMARK    2  A    between atoms: C_2  and  O_4
REMARK    3  A    between atoms: O_4  and  C_5
REMARK    4  A    between atoms: C_7  and  C_8
REMARK    5  A    between atoms: C_8  and  O_9
REMARK    6  A    between atoms: C_10  and  O_11
REMARK    7  A    between atoms: O_11  and  C_12
REMARK    8  A    between atoms: C_12  and  C_14
REMARK    9  A    between atoms: C_14  and  C_15
REMARK   10  A    between atoms: C_15  and  C_16
REMARK   11  A    between atoms: C_26  and  C_27
REMARK   12  A    between atoms: C_28  and  O_29
REMARK   13  A    between atoms: C_30  and  C_31
REMARK   14  A    between atoms: C_30  and  C_32
REMARK   15  A    between atoms: C_32  and  O_33
REMARK                            x       y       z     vdW  Elec       q    Type
REMARK                         _______ _______ _______ _____ _____    ______ ____
ROOT
ATOM      1  C   UNL     1      -2.500  12.977  20.649  0.00  0.00    +0.000 C 
ATOM      2  C   UNL     1      -1.382  12.269  19.882  0.00  0.00    +0.000 C 
ATOM      3  C   UNL     1      -0.328  11.489  20.237  0.00  0.00    +0.000 C 
ATOM      4  C   UNL     1       0.657  11.078  19.138  0.00  0.00    +0.000 C 
ATOM      5  C   UNL     1       1.752  12.116  18.691  0.00  0.00    +0.000 C 
ATOM      6  C   UNL     1       1.581  13.651  18.547  0.00  0.00    +0.000 C 
ATOM      7  C   UNL     1       1.185  15.015  19.341  0.00  0.00    +0.000 C 
ATOM      8  C   UNL     1      -0.209  14.875  19.694  0.00  0.00    +0.000 C 
ATOM      9  C   UNL     1      -1.003  15.090  20.752  0.00  0.00    +0.000 C 
ATOM     10  C   UNL     1      -0.609  15.708  22.058  0.00  0.00    +0.000 C 
ATOM     11  C   UNL     1      -2.425  14.555  20.590  0.00  0.00    +0.000 C 
ATOM     12  C   UNL     1       2.520  14.395  19.486  0.00  0.00    +0.000 C 
ATOM     13  C   UNL     1       3.669  15.071  18.748  0.00  0.00    +0.000 C 
ENDROOT
BRANCH  11  14
ATOM     14  O   UNL     1      -3.317  15.157  21.532  0.00  0.00    +0.000 OA
ATOM     15  H   UNL     1      -3.435  16.077  21.234  0.00  0.00    +0.000 HD
ENDBRANCH  11  14
BRANCH   1  16
ATOM     16  O   UNL     1      -2.545  12.606  22.032  0.00  0.00    +0.000 OA
BRANCH  16  18
ATOM     17  C   UNL     1      -3.704  12.463  24.053  0.00  0.00    +0.000 C 
ATOM     18  C   UNL     1      -3.795  12.520  22.562  0.00  0.00    +0.000 C 
ATOM     19  O   UNL     1      -4.835  12.429  21.932  0.00  0.00    +0.000 OA
ENDBRANCH  16  18
ENDBRANCH   1  16
BRANCH   3  20
ATOM     20  C   UNL     1      -0.092  10.939  21.620  0.00  0.00    +0.000 C 
BRANCH  20  21
ATOM     21  O   UNL     1       1.294  10.751  21.875  0.00  0.00    +0.000 OA
ATOM     22  H   UNL     1       1.653  10.256  21.114  0.00  0.00    +0.000 HD
ENDBRANCH  20  21
ENDBRANCH   3  20
BRANCH   4  23
ATOM     23  O   UNL     1       1.077   9.659  19.399  0.00  0.00    +0.000 OA
BRANCH  23  24
ATOM     24  C   UNL     1       1.731   8.854  18.520  0.00  0.00    +0.000 C 
ATOM     25  O   UNL     1       1.993   9.148  17.356  0.00  0.00    +0.000 OA
BRANCH  24  26
ATOM     26  C   UNL     1       2.280   7.553  19.127  0.00  0.00    +0.000 C 
BRANCH  26  27
ATOM     27  C   UNL     1       2.612   6.389  18.192  0.00  0.00    +0.000 C 
BRANCH  27  28
ATOM     28  C   UNL     1       2.093   5.041  18.680  0.00  0.00    +0.000 A 
ATOM     29  C   UNL     1       2.048   3.927  17.829  0.00  0.00    +0.000 A 
ATOM     30  C   UNL     1       1.605   2.672  18.279  0.00  0.00    +0.000 A 
ATOM     31  C   UNL     1       1.190   2.511  19.602  0.00  0.00    +0.000 A 
ATOM     32  C   UNL     1       1.217   3.604  20.461  0.00  0.00    +0.000 A 
ATOM     33  C   UNL     1       1.657   4.862  20.009  0.00  0.00    +0.000 A 
ENDBRANCH  27  28
ENDBRANCH  26  27
ENDBRANCH  24  26
ENDBRANCH  23  24
ENDBRANCH   4  23
BRANCH  12  34
ATOM     34  C   UNL     1       2.980  13.921  20.850  0.00  0.00    +0.000 C 
BRANCH  34  35
ATOM     35  O   UNL     1       3.870  14.813  21.485  0.00  0.00    +0.000 OA
ATOM     36  H   UNL     1       3.336  15.292  22.150  0.00  0.00    +0.000 HD
ENDBRANCH  34  35
ENDBRANCH  12  34
TORSDOF 12
ENDMDL
MODEL 3
REMARK VINA RESULT:      -6.5      0.680      1.077
REMARK  Name = 
REMARK  15 active torsions:
REMARK  status: ('A' for Active; 'I' for Inactive)
REMARK    1  A    between atoms: C_1  and  C_2
REMARK    2  A    between atoms: C_2  and  O_4
REMARK    3  A    between atoms: O_4  and  C_5
REMARK    4  A    between atoms: C_7  and  C_8
REMARK    5  A    between atoms: C_8  and  O_9
REMARK    6  A    between atoms: C_10  and  O_11
REMARK    7  A    between atoms: O_11  and  C_12
REMARK    8  A    between atoms: C_12  and  C_14
REMARK    9  A    between atoms: C_14  and  C_15
REMARK   10  A    between atoms: C_15  and  C_16
REMARK   11  A    between atoms: C_26  and  C_27
REMARK   12  A    between atoms: C_28  and  O_29
REMARK   13  A    between atoms: C_30  and  C_31
REMARK   14  A    between atoms: C_30  and  C_32
REMARK   15  A    between atoms: C_32  and  O_33
REMARK                            x       y       z     vdW  Elec       q    Type
REMARK                         _______ _______ _______ _____ _____    ______ ____
ROOT
ATOM      1  C   UNL     1       2.616  14.575  20.786  0.00  0.00    +0.000 C 
ATOM      2  C   UNL     1       2.049  13.168  20.982  0.00  0.00    +0.000 C 
ATOM      3  C   UNL     1       1.371  12.294  20.193  0.00  0.00    +0.000 C 
ATOM      4  C   UNL     1       0.857  11.003  20.836  0.00  0.00    +0.000 C 
ATOM      5  C   UNL     1      -0.472  11.063  21.676  0.00  0.00    +0.000 C 
ATOM      6  C   UNL     1      -0.933  12.210  22.614  0.00  0.00    +0.000 C 
ATOM      7  C   UNL     1      -1.288  13.797  22.682  0.00  0.00    +0.000 C 
ATOM      8  C   UNL     1      -0.049  14.490  22.415  0.00  0.00    +0.000 C 
ATOM      9  C   UNL     1       0.383  15.531  21.690  0.00  0.00    +0.000 C 
ATOM     10  C   UNL     1      -0.456  16.465  20.875  0.00  0.00    +0.000 C 
ATOM     11  C   UNL     1       1.903  15.686  21.655  0.00  0.00    +0.000 C 
ATOM     12  C   UNL     1      -2.246  12.813  22.135  0.00  0.00    +0.000 C 
ATOM     13  C   UNL     1      -3.421  12.436  23.027  0.00  0.00    +0.000 C 
ENDROOT
BRANCH  11  14
ATOM     14  O   UNL     1       2.281  17.000  21.238  0.00  0.00    +0.000 OA
ATOM     15  H   UNL     1       2.780  17.381  21.983  0.00  0.00    +0.000 HD
ENDBRANCH  11  14
BRANCH   1  16
ATOM     16  O   UNL     1       2.566  15.007  19.421  0.00  0.00    +0.000 OA
BRANCH  16  18
ATOM     17  C   UNL     1       3.701  15.408  17.420  0.00  0.00    +0.000 C 
ATOM     18  C   UNL     1       3.751  15.442  18.914  0.00  0.00    +0.000 C 
ATOM     19  O   UNL     1       4.738  15.747  19.562  0.00  0.00    +0.000 OA
ENDBRANCH  16  18
ENDBRANCH   1  16
BRANCH   3  20
ATOM     20  C   UNL     1       1.145  12.469  18.714  0.00  0.00    +0.000 C 
BRANCH  20  21
ATOM     21  O   UNL     1       2.159  11.825  17.954  0.00  0.00    +0.000 OA
ATOM     22  H   UNL     1       1.734  11.505  17.135  0.00  0.00    +0.000 HD
ENDBRANCH  20  21
ENDBRANCH   3  20
BRANCH   4  23
ATOM     23  O   UNL     1       1.027   9.890  19.841  0.00  0.00    +0.000 OA
BRANCH  23  24
ATOM     24  C   UNL     1       1.523   8.654  20.115  0.00  0.00    +0.000 C 
ATOM     25  O   UNL     1       1.456   8.094  21.206  0.00  0.00    +0.000 OA
BRANCH  24  26
ATOM     26  C   UNL     1       2.070   7.897  18.894  0.00  0.00    +0.000 C 
BRANCH  26  27
ATOM     27  C   UNL     1       2.973   6.684  19.126  0.00  0.00    +0.000 C 
BRANCH  27  28
ATOM     28  C   UNL     1       2.217   5.362  19.211  0.00  0.00    +0.000 A 
ATOM     29  C   UNL     1       2.012   4.566  18.075  0.00  0.00    +0.000 A 
ATOM     30  C   UNL     1       1.349   3.329  18.150  0.00  0.00    +0.000 A 
ATOM     31  C   UNL     1       0.870   2.868  19.376  0.00  0.00    +0.000 A 
ATOM     32  C   UNL     1       1.053   3.644  20.515  0.00  0.00    +0.000 A 
ATOM     33  C   UNL     1       1.714   4.884  20.438  0.00  0.00    +0.000 A 
ENDBRANCH  27  28
ENDBRANCH  26  27
ENDBRANCH  24  26
ENDBRANCH  23  24
ENDBRANCH   4  23
BRANCH  12  34
ATOM     34  C   UNL     1      -2.700  12.934  20.693  0.00  0.00    +0.000 C 
BRANCH  34  35
ATOM     35  O   UNL     1      -3.088  14.242  20.334  0.00  0.00    +0.000 OA
ATOM     36  H   UNL     1      -2.258  14.757  20.268  0.00  0.00    +0.000 HD
ENDBRANCH  34  35
ENDBRANCH  12  34
TORSDOF 12
ENDMDL
MODEL 4
REMARK VINA RESULT:      -6.5      1.210      1.565
REMARK  Name = 
REMARK  15 active torsions:
REMARK  status: ('A' for Active; 'I' for Inactive)
REMARK    1  A    between atoms: C_1  and  C_2
REMARK    2  A    between atoms: C_2  and  O_4
REMARK    3  A    between atoms: O_4  and  C_5
REMARK    4  A    between atoms: C_7  and  C_8
REMARK    5  A    between atoms: C_8  and  O_9
REMARK    6  A    between atoms: C_10  and  O_11
REMARK    7  A    between atoms: O_11  and  C_12
REMARK    8  A    between atoms: C_12  and  C_14
REMARK    9  A    between atoms: C_14  and  C_15
REMARK   10  A    between atoms: C_15  and  C_16
REMARK   11  A    between atoms: C_26  and  C_27
REMARK   12  A    between atoms: C_28  and  O_29
REMARK   13  A    between atoms: C_30  and  C_31
REMARK   14  A    between atoms: C_30  and  C_32
REMARK   15  A    between atoms: C_32  and  O_33
REMARK                            x       y       z     vdW  Elec       q    Type
REMARK                         _______ _______ _______ _____ _____    ______ ____
ROOT
ATOM      1  C   UNL     1       2.423  14.793  20.179  0.00  0.00    +0.000 C 
ATOM      2  C   UNL     1       1.955  13.350  20.375  0.00  0.00    +0.000 C 
ATOM      3  C   UNL     1       1.185  12.491  19.657  0.00  0.00    +0.000 C 
ATOM      4  C   UNL     1       0.842  11.140  20.290  0.00  0.00    +0.000 C 
ATOM      5  C   UNL     1      -0.322  11.084  21.347  0.00  0.00    +0.000 C 
ATOM      6  C   UNL     1      -0.659  12.148  22.424  0.00  0.00    +0.000 C 
ATOM      7  C   UNL     1      -1.058  13.708  22.658  0.00  0.00    +0.000 C 
ATOM      8  C   UNL     1       0.087  14.477  22.230  0.00  0.00    +0.000 C 
ATOM      9  C   UNL     1       0.345  15.580  21.513  0.00  0.00    +0.000 C 
ATOM     10  C   UNL     1      -0.660  16.517  20.917  0.00  0.00    +0.000 C 
ATOM     11  C   UNL     1       1.828  15.814  21.230  0.00  0.00    +0.000 C 
ATOM     12  C   UNL     1      -2.058  12.711  22.217  0.00  0.00    +0.000 C 
ATOM     13  C   UNL     1      -3.044  12.223  23.271  0.00  0.00    +0.000 C 
ENDROOT
BRANCH  11  14
ATOM     14  O   UNL     1       2.076  17.167  20.843  0.00  0.00    +0.000 OA
ATOM     15  H   UNL     1       1.567  17.306  20.025  0.00  0.00    +0.000 HD
ENDBRANCH  11  14
BRANCH   1  16
ATOM     16  O   UNL     1       2.120  15.302  18.875  0.00  0.00    +0.000 OA
BRANCH  16  18
ATOM     17  C   UNL     1       3.021  16.764  17.293  0.00  0.00    +0.000 C 
ATOM     18  C   UNL     1       3.200  15.501  18.072  0.00  0.00    +0.000 C 
ATOM     19  O   UNL     1       4.144  14.739  17.940  0.00  0.00    +0.000 OA
ENDBRANCH  16  18
ENDBRANCH   1  16
BRANCH   3  20
ATOM     20  C   UNL     1       0.699  12.741  18.253  0.00  0.00    +0.000 C 
BRANCH  20  21
ATOM     21  O   UNL     1      -0.600  12.202  18.049  0.00  0.00    +0.000 OA
ATOM     22  H   UNL     1      -0.550  11.256  18.284  0.00  0.00    +0.000 HD
ENDBRANCH  20  21
ENDBRANCH   3  20
BRANCH   4  23
ATOM     23  O   UNL     1       0.881  10.098  19.208  0.00  0.00    +0.000 OA
BRANCH  23  24
ATOM     24  C   UNL     1       1.504   8.892  19.294  0.00  0.00    +0.000 C 
ATOM     25  O   UNL     1       1.581   8.210  20.314  0.00  0.00    +0.000 OA
BRANCH  24  26
ATOM     26  C   UNL     1       2.006   8.332  17.954  0.00  0.00    +0.000 C 
BRANCH  26  27
ATOM     27  C   UNL     1       3.346   7.594  17.922  0.00  0.00    +0.000 C 
BRANCH  27  28
ATOM     28  C   UNL     1       3.218   6.095  17.676  0.00  0.00    +0.000 A 
ATOM     29  C   UNL     1       4.282   5.350  17.147  0.00  0.00    +0.000 A 
ATOM     30  C   UNL     1       4.186   3.963  16.951  0.00  0.00    +0.000 A 
ATOM     31  C   UNL     1       3.007   3.291  17.279  0.00  0.00    +0.000 A 
ATOM     32  C   UNL     1       1.935   4.010  17.795  0.00  0.00    +0.000 A 
ATOM     33  C   UNL     1       2.031   5.401  17.988  0.00  0.00    +0.000 A 
ENDBRANCH  27  28
ENDBRANCH  26  27
ENDBRANCH  24  26
ENDBRANCH  23  24
ENDBRANCH   4  23
BRANCH  12  34
ATOM     34  C   UNL     1      -2.759  12.894  20.886  0.00  0.00    +0.000 C 
BRANCH  34  35
ATOM     35  O   UNL     1      -2.079  13.762  20.006  0.00  0.00    +0.000 OA
ATOM     36  H   UNL     1      -2.697  14.498  19.827  0.00  0.00    +0.000 HD
ENDBRANCH  34  35
ENDBRANCH  12  34
TORSDOF 12
ENDMDL
MODEL 5
REMARK VINA RESULT:      -6.4      0.992      1.384
REMARK  Name = 
REMARK  15 active torsions:
REMARK  status: ('A' for Active; 'I' for Inactive)
REMARK    1  A    between atoms: C_1  and  C_2
REMARK    2  A    between atoms: C_2  and  O_4
REMARK    3  A    between atoms: O_4  and  C_5
REMARK    4  A    between atoms: C_7  and  C_8
REMARK    5  A    between atoms: C_8  and  O_9
REMARK    6  A    between atoms: C_10  and  O_11
REMARK    7  A    between atoms: O_11  and  C_12
REMARK    8  A    between atoms: C_12  and  C_14
REMARK    9  A    between atoms: C_14  and  C_15
REMARK   10  A    between atoms: C_15  and  C_16
REMARK   11  A    between atoms: C_26  and  C_27
REMARK   12  A    between atoms: C_28  and  O_29
REMARK   13  A    between atoms: C_30  and  C_31
REMARK   14  A    between atoms: C_30  and  C_32
REMARK   15  A    between atoms: C_32  and  O_33
REMARK                            x       y       z     vdW  Elec       q    Type
REMARK                         _______ _______ _______ _____ _____    ______ ____
ROOT
ATOM      1  C   UNL     1       1.749  14.625  20.670  0.00  0.00    +0.000 C 
ATOM      2  C   UNL     1       1.260  13.197  20.919  0.00  0.00    +0.000 C 
ATOM      3  C   UNL     1       0.453  12.335  20.248  0.00  0.00    +0.000 C 
ATOM      4  C   UNL     1       0.104  11.007  20.928  0.00  0.00    +0.000 C 
ATOM      5  C   UNL     1      -1.028  11.002  22.020  0.00  0.00    +0.000 C 
ATOM      6  C   UNL     1      -1.311  12.101  23.078  0.00  0.00    +0.000 C 
ATOM      7  C   UNL     1      -1.674  13.674  23.282  0.00  0.00    +0.000 C 
ATOM      8  C   UNL     1      -0.528  14.409  22.799  0.00  0.00    +0.000 C 
ATOM      9  C   UNL     1      -0.272  15.487  22.045  0.00  0.00    +0.000 C 
ATOM     10  C   UNL     1      -1.277  16.428  21.455  0.00  0.00    +0.000 C 
ATOM     11  C   UNL     1       1.206  15.684  21.711  0.00  0.00    +0.000 C 
ATOM     12  C   UNL     1      -2.705  12.685  22.899  0.00  0.00    +0.000 C 
ATOM     13  C   UNL     1      -3.668  12.245  23.995  0.00  0.00    +0.000 C 
ENDROOT
BRANCH  11  14
ATOM     14  O   UNL     1       1.467  17.022  21.280  0.00  0.00    +0.000 OA
ATOM     15  H   UNL     1       2.164  16.951  20.604  0.00  0.00    +0.000 HD
ENDBRANCH  11  14
BRANCH   1  16
ATOM     16  O   UNL     1       1.415  15.105  19.363  0.00  0.00    +0.000 OA
BRANCH  16  18
ATOM     17  C   UNL     1       3.479  14.653  18.368  0.00  0.00    +0.000 C 
ATOM     18  C   UNL     1       2.443  15.683  18.685  0.00  0.00    +0.000 C 
ATOM     19  O   UNL     1       2.554  16.871  18.431  0.00  0.00    +0.000 OA
ENDBRANCH  16  18
ENDBRANCH   1  16
BRANCH   3  20
ATOM     20  C   UNL     1      -0.072  12.557  18.853  0.00  0.00    +0.000 C 
BRANCH  20  21
ATOM     21  O   UNL     1       0.958  12.418  17.883  0.00  0.00    +0.000 OA
ATOM     22  H   UNL     1       1.786  12.703  18.312  0.00  0.00    +0.000 HD
ENDBRANCH  20  21
ENDBRANCH   3  20
BRANCH   4  23
ATOM     23  O   UNL     1       0.090   9.937  19.874  0.00  0.00    +0.000 OA
BRANCH  23  24
ATOM     24  C   UNL     1       1.182   9.277  19.402  0.00  0.00    +0.000 C 
ATOM     25  O   UNL     1       1.866   9.639  18.448  0.00  0.00    +0.000 OA
BRANCH  24  26
ATOM     26  C   UNL     1       1.624   8.077  20.254  0.00  0.00    +0.000 C 
BRANCH  26  27
ATOM     27  C   UNL     1       2.615   7.077  19.656  0.00  0.00    +0.000 C 
BRANCH  27  28
ATOM     28  C   UNL     1       2.042   5.677  19.472  0.00  0.00    +0.000 A 
ATOM     29  C   UNL     1       1.981   5.074  18.206  0.00  0.00    +0.000 A 
ATOM     30  C   UNL     1       1.488   3.771  18.032  0.00  0.00    +0.000 A 
ATOM     31  C   UNL     1       1.036   3.042  19.134  0.00  0.00    +0.000 A 
ATOM     32  C   UNL     1       1.078   3.622  20.397  0.00  0.00    +0.000 A 
ATOM     33  C   UNL     1       1.569   4.930  20.570  0.00  0.00    +0.000 A 
ENDBRANCH  27  28
ENDBRANCH  26  27
ENDBRANCH  24  26
ENDBRANCH  23  24
ENDBRANCH   4  23
BRANCH  12  34
ATOM     34  C   UNL     1      -3.444  12.847  21.585  0.00  0.00    +0.000 C 
BRANCH  34  35
ATOM     35  O   UNL     1      -3.296  14.127  21.010  0.00  0.00    +0.000 OA
ATOM     36  H   UNL     1      -2.778  14.650  21.655  0.00  0.00    +0.000 HD
ENDBRANCH  34  35
ENDBRANCH  12  34
TORSDOF 12
ENDMDL
MODEL 6
REMARK VINA RESULT:      -6.4      1.069      1.276
REMARK  Name = 
REMARK  15 active torsions:
REMARK  status: ('A' for Active; 'I' for Inactive)
REMARK    1  A    between atoms: C_1  and  C_2
REMARK    2  A    between atoms: C_2  and  O_4
REMARK    3  A    between atoms: O_4  and  C_5
REMARK    4  A    between atoms: C_7  and  C_8
REMARK    5  A    between atoms: C_8  and  O_9
REMARK    6  A    between atoms: C_10  and  O_11
REMARK    7  A    between atoms: O_11  and  C_12
REMARK    8  A    between atoms: C_12  and  C_14
REMARK    9  A    between atoms: C_14  and  C_15
REMARK   10  A    between atoms: C_15  and  C_16
REMARK   11  A    between atoms: C_26  and  C_27
REMARK   12  A    between atoms: C_28  and  O_29
REMARK   13  A    between atoms: C_30  and  C_31
REMARK   14  A    between atoms: C_30  and  C_32
REMARK   15  A    between atoms: C_32  and  O_33
REMARK                            x       y       z     vdW  Elec       q    Type
REMARK                         _______ _______ _______ _____ _____    ______ ____
ROOT
ATOM      1  C   UNL     1       2.001  14.958  20.478  0.00  0.00    +0.000 C 
ATOM      2  C   UNL     1       1.509  13.514  20.589  0.00  0.00    +0.000 C 
ATOM      3  C   UNL     1       0.679  12.730  19.854  0.00  0.00    +0.000 C 
ATOM      4  C   UNL     1       0.339  11.340  20.401  0.00  0.00    +0.000 C 
ATOM      5  C   UNL     1      -0.763  11.225  21.517  0.00  0.00    +0.000 C 
ATOM      6  C   UNL     1      -1.011  12.209  22.691  0.00  0.00    +0.000 C 
ATOM      7  C   UNL     1      -1.357  13.754  23.068  0.00  0.00    +0.000 C 
ATOM      8  C   UNL     1      -0.220  14.530  22.633  0.00  0.00    +0.000 C 
ATOM      9  C   UNL     1       0.024  15.680  21.989  0.00  0.00    +0.000 C 
ATOM     10  C   UNL     1      -0.990  16.681  21.528  0.00  0.00    +0.000 C 
ATOM     11  C   UNL     1       1.494  15.905  21.637  0.00  0.00    +0.000 C 
ATOM     12  C   UNL     1      -2.405  12.814  22.612  0.00  0.00    +0.000 C 
ATOM     13  C   UNL     1      -3.341  12.266  23.681  0.00  0.00    +0.000 C 
ENDROOT
BRANCH  11  14
ATOM     14  O   UNL     1       1.753  17.279  21.342  0.00  0.00    +0.000 OA
ATOM     15  H   UNL     1       1.332  17.449  20.480  0.00  0.00    +0.000 HD
ENDBRANCH  11  14
BRANCH   1  16
ATOM     16  O   UNL     1       1.637  15.573  19.237  0.00  0.00    +0.000 OA
BRANCH  16  18
ATOM     17  C   UNL     1       3.507  15.113  17.917  0.00  0.00    +0.000 C 
ATOM     18  C   UNL     1       2.663  16.162  18.566  0.00  0.00    +0.000 C 
ATOM     19  O   UNL     1       2.914  17.356  18.546  0.00  0.00    +0.000 OA
ENDBRANCH  16  18
ENDBRANCH   1  16
BRANCH   3  20
ATOM     20  C   UNL     1       0.119  13.099  18.505  0.00  0.00    +0.000 C 
BRANCH  20  21
ATOM     21  O   UNL     1      -0.840  14.142  18.608  0.00  0.00    +0.000 OA
ATOM     22  H   UNL     1      -1.090  14.200  19.550  0.00  0.00    +0.000 HD
ENDBRANCH  20  21
ENDBRANCH   3  20
BRANCH   4  23
ATOM     23  O   UNL     1       0.290  10.385  19.242  0.00  0.00    +0.000 OA
BRANCH  23  24
ATOM     24  C   UNL     1       1.232   9.450  18.948  0.00  0.00    +0.000 C 
ATOM     25  O   UNL     1       1.996   9.497  17.987  0.00  0.00    +0.000 OA
BRANCH  24  26
ATOM     26  C   UNL     1       1.399   8.351  20.010  0.00  0.00    +0.000 C 
BRANCH  26  27
ATOM     27  C   UNL     1       2.537   7.342  19.850  0.00  0.00    +0.000 C 
BRANCH  27  28
ATOM     28  C   UNL     1       2.071   5.945  19.457  0.00  0.00    +0.000 A 
ATOM     29  C   UNL     1       1.607   5.035  20.419  0.00  0.00    +0.000 A 
ATOM     30  C   UNL     1       1.141   3.758  20.063  0.00  0.00    +0.000 A 
ATOM     31  C   UNL     1       1.138   3.365  18.723  0.00  0.00    +0.000 A 
ATOM     32  C   UNL     1       1.603   4.246  17.754  0.00  0.00    +0.000 A 
ATOM     33  C   UNL     1       2.073   5.524  18.112  0.00  0.00    +0.000 A 
ENDBRANCH  27  28
ENDBRANCH  26  27
ENDBRANCH  24  26
ENDBRANCH  23  24
ENDBRANCH   4  23
BRANCH  12  34
ATOM     34  C   UNL     1      -3.177  13.115  21.343  0.00  0.00    +0.000 C 
BRANCH  34  35
ATOM     35  O   UNL     1      -4.305  12.287  21.161  0.00  0.00    +0.000 OA
ATOM     36  H   UNL     1      -5.080  12.838  21.391  0.00  0.00    +0.000 HD
ENDBRANCH  34  35
ENDBRANCH  12  34
TORSDOF 12
ENDMDL
MODEL 7
REMARK VINA RESULT:      -6.4      1.432      2.025
REMARK  Name = 
REMARK  15 active torsions:
REMARK  status: ('A' for Active; 'I' for Inactive)
REMARK    1  A    between atoms: C_1  and  C_2
REMARK    2  A    between atoms: C_2  and  O_4
REMARK    3  A    between atoms: O_4  and  C_5
REMARK    4  A    between atoms: C_7  and  C_8
REMARK    5  A    between atoms: C_8  and  O_9
REMARK    6  A    between atoms: C_10  and  O_11
REMARK    7  A    between atoms: O_11  and  C_12
REMARK    8  A    between atoms: C_12  and  C_14
REMARK    9  A    between atoms: C_14  and  C_15
REMARK   10  A    between atoms: C_15  and  C_16
REMARK   11  A    between atoms: C_26  and  C_27
REMARK   12  A    between atoms: C_28  and  O_29
REMARK   13  A    between atoms: C_30  and  C_31
REMARK   14  A    between atoms: C_30  and  C_32
REMARK   15  A    between atoms: C_32  and  O_33
REMARK                            x       y       z     vdW  Elec       q    Type
REMARK                         _______ _______ _______ _____ _____    ______ ____
ROOT
ATOM      1  C   UNL     1       2.370  14.616  20.364  0.00  0.00    +0.000 C 
ATOM      2  C   UNL     1       1.895  13.195  20.673  0.00  0.00    +0.000 C 
ATOM      3  C   UNL     1       1.184  12.258  19.994  0.00  0.00    +0.000 C 
ATOM      4  C   UNL     1       0.801  10.975  20.738  0.00  0.00    +0.000 C 
ATOM      5  C   UNL     1      -0.438  11.015  21.707  0.00  0.00    +0.000 C 
ATOM      6  C   UNL     1      -0.857  12.180  22.640  0.00  0.00    +0.000 C 
ATOM      7  C   UNL     1      -1.279  13.752  22.682  0.00  0.00    +0.000 C 
ATOM      8  C   UNL     1      -0.109  14.486  22.261  0.00  0.00    +0.000 C 
ATOM      9  C   UNL     1       0.197  15.512  21.454  0.00  0.00    +0.000 C 
ATOM     10  C   UNL     1      -0.765  16.371  20.693  0.00  0.00    +0.000 C 
ATOM     11  C   UNL     1       1.696  15.733  21.257  0.00  0.00    +0.000 C 
ATOM     12  C   UNL     1      -2.239  12.703  22.276  0.00  0.00    +0.000 C 
ATOM     13  C   UNL     1      -3.299  12.315  23.299  0.00  0.00    +0.000 C 
ENDROOT
BRANCH  11  14
ATOM     14  O   UNL     1       1.966  17.042  20.751  0.00  0.00    +0.000 OA
ATOM     15  H   UNL     1       2.007  17.624  21.531  0.00  0.00    +0.000 HD
ENDBRANCH  11  14
BRANCH   1  16
ATOM     16  O   UNL     1       2.162  14.984  18.995  0.00  0.00    +0.000 OA
BRANCH  16  18
ATOM     17  C   UNL     1       3.290  16.348  17.473  0.00  0.00    +0.000 C 
ATOM     18  C   UNL     1       3.294  15.069  18.246  0.00  0.00    +0.000 C 
ATOM     19  O   UNL     1       4.156  14.211  18.151  0.00  0.00    +0.000 OA
ENDBRANCH  16  18
ENDBRANCH   1  16
BRANCH   3  20
ATOM     20  C   UNL     1       0.801  12.357  18.540  0.00  0.00    +0.000 C 
BRANCH  20  21
ATOM     21  O   UNL     1      -0.464  11.758  18.294  0.00  0.00    +0.000 OA
ATOM     22  H   UNL     1      -1.056  12.471  17.989  0.00  0.00    +0.000 HD
ENDBRANCH  20  21
ENDBRANCH   3  20
BRANCH   4  23
ATOM     23  O   UNL     1       0.924   9.828  19.775  0.00  0.00    +0.000 OA
BRANCH  23  24
ATOM     24  C   UNL     1       1.490   8.623  20.050  0.00  0.00    +0.000 C 
ATOM     25  O   UNL     1       1.375   8.016  21.113  0.00  0.00    +0.000 OA
BRANCH  24  26
ATOM     26  C   UNL     1       2.197   7.959  18.858  0.00  0.00    +0.000 C 
BRANCH  26  27
ATOM     27  C   UNL     1       2.506   6.462  18.928  0.00  0.00    +0.000 C 
BRANCH  27  28
ATOM     28  C   UNL     1       3.505   5.991  17.878  0.00  0.00    +0.000 A 
ATOM     29  C   UNL     1       3.655   4.629  17.575  0.00  0.00    +0.000 A 
ATOM     30  C   UNL     1       4.547   4.188  16.584  0.00  0.00    +0.000 A 
ATOM     31  C   UNL     1       5.318   5.112  15.876  0.00  0.00    +0.000 A 
ATOM     32  C   UNL     1       5.194   6.465  16.167  0.00  0.00    +0.000 A 
ATOM     33  C   UNL     1       4.302   6.907  17.162  0.00  0.00    +0.000 A 
ENDBRANCH  27  28
ENDBRANCH  26  27
ENDBRANCH  24  26
ENDBRANCH  23  24
ENDBRANCH   4  23
BRANCH  12  34
ATOM     34  C   UNL     1      -2.842  12.739  20.885  0.00  0.00    +0.000 C 
BRANCH  34  35
ATOM     35  O   UNL     1      -2.116  13.540  19.978  0.00  0.00    +0.000 OA
ATOM     36  H   UNL     1      -1.552  12.923  19.470  0.00  0.00    +0.000 HD
ENDBRANCH  34  35
ENDBRANCH  12  34
TORSDOF 12
ENDMDL
MODEL 8
REMARK VINA RESULT:      -6.3      1.706      4.612
REMARK  Name = 
REMARK  15 active torsions:
REMARK  status: ('A' for Active; 'I' for Inactive)
REMARK    1  A    between atoms: C_1  and  C_2
REMARK    2  A    between atoms: C_2  and  O_4
REMARK    3  A    between atoms: O_4  and  C_5
REMARK    4  A    between atoms: C_7  and  C_8
REMARK    5  A    between atoms: C_8  and  O_9
REMARK    6  A    between atoms: C_10  and  O_11
REMARK    7  A    between atoms: O_11  and  C_12
REMARK    8  A    between atoms: C_12  and  C_14
REMARK    9  A    between atoms: C_14  and  C_15
REMARK   10  A    between atoms: C_15  and  C_16
REMARK   11  A    between atoms: C_26  and  C_27
REMARK   12  A    between atoms: C_28  and  O_29
REMARK   13  A    between atoms: C_30  and  C_31
REMARK   14  A    between atoms: C_30  and  C_32
REMARK   15  A    between atoms: C_32  and  O_33
REMARK                            x       y       z     vdW  Elec       q    Type
REMARK                         _______ _______ _______ _____ _____    ______ ____
ROOT
ATOM      1  C   UNL     1      -2.657  13.912  20.834  0.00  0.00    +0.000 C 
ATOM      2  C   UNL     1      -1.732  13.005  20.021  0.00  0.00    +0.000 C 
ATOM      3  C   UNL     1      -0.907  11.969  20.321  0.00  0.00    +0.000 C 
ATOM      4  C   UNL     1      -0.033  11.405  19.197  0.00  0.00    +0.000 C 
ATOM      5  C   UNL     1       1.289  12.170  18.822  0.00  0.00    +0.000 C 
ATOM      6  C   UNL     1       1.501  13.707  18.785  0.00  0.00    +0.000 C 
ATOM      7  C   UNL     1       1.435  15.070  19.672  0.00  0.00    +0.000 C 
ATOM      8  C   UNL     1       0.044  15.252  20.014  0.00  0.00    +0.000 C 
ATOM      9  C   UNL     1      -0.692  15.583  21.084  0.00  0.00    +0.000 C 
ATOM     10  C   UNL     1      -0.182  15.997  22.429  0.00  0.00    +0.000 C 
ATOM     11  C   UNL     1      -2.199  15.425  20.885  0.00  0.00    +0.000 C 
ATOM     12  C   UNL     1       2.577  14.135  19.774  0.00  0.00    +0.000 C 
ATOM     13  C   UNL     1       3.868  14.557  19.084  0.00  0.00    +0.000 C 
ENDROOT
BRANCH  11  14
ATOM     14  O   UNL     1      -2.933  16.161  21.865  0.00  0.00    +0.000 OA
ATOM     15  H   UNL     1      -2.271  16.493  22.498  0.00  0.00    +0.000 HD
ENDBRANCH  11  14
BRANCH   1  16
ATOM     16  O   UNL     1      -2.815  13.471  22.188  0.00  0.00    +0.000 OA
BRANCH  16  18
ATOM     17  C   UNL     1      -4.988  13.160  21.392  0.00  0.00    +0.000 C 
ATOM     18  C   UNL     1      -3.984  12.826  22.448  0.00  0.00    +0.000 C 
ATOM     19  O   UNL     1      -4.218  12.136  23.426  0.00  0.00    +0.000 OA
ENDBRANCH  16  18
ENDBRANCH   1  16
BRANCH   3  20
ATOM     20  C   UNL     1      -0.836  11.287  21.662  0.00  0.00    +0.000 C 
BRANCH  20  21
ATOM     21  O   UNL     1      -0.222  12.120  22.637  0.00  0.00    +0.000 OA
ATOM     22  H   UNL     1       0.717  11.855  22.679  0.00  0.00    +0.000 HD
ENDBRANCH  20  21
ENDBRANCH   3  20
BRANCH   4  23
ATOM     23  O   UNL     1       0.024   9.912  19.359  0.00  0.00    +0.000 OA
BRANCH  23  24
ATOM     24  C   UNL     1       1.137   9.191  19.659  0.00  0.00    +0.000 C 
ATOM     25  O   UNL     1       1.576   9.012  20.792  0.00  0.00    +0.000 OA
BRANCH  24  26
ATOM     26  C   UNL     1       1.767   8.456  18.465  0.00  0.00    +0.000 C 
BRANCH  26  27
ATOM     27  C   UNL     1       2.826   7.387  18.736  0.00  0.00    +0.000 C 
BRANCH  27  28
ATOM     28  C   UNL     1       2.248   6.005  19.015  0.00  0.00    +0.000 A 
ATOM     29  C   UNL     1       1.898   5.609  20.315  0.00  0.00    +0.000 A 
ATOM     30  C   UNL     1       1.331   4.351  20.576  0.00  0.00    +0.000 A 
ATOM     31  C   UNL     1       1.109   3.454  19.530  0.00  0.00    +0.000 A 
ATOM     32  C   UNL     1       1.457   3.820  18.234  0.00  0.00    +0.000 A 
ATOM     33  C   UNL     1       2.028   5.080  17.974  0.00  0.00    +0.000 A 
ENDBRANCH  27  28
ENDBRANCH  26  27
ENDBRANCH  24  26
ENDBRANCH  23  24
ENDBRANCH   4  23
BRANCH  12  34
ATOM     34  C   UNL     1       2.883  13.471  21.102  0.00  0.00    +0.000 C 
BRANCH  34  35
ATOM     35  O   UNL     1       3.114  14.389  22.149  0.00  0.00    +0.000 OA
ATOM     36  H   UNL     1       3.462  13.861  22.895  0.00  0.00    +0.000 HD
ENDBRANCH  34  35
ENDBRANCH  12  34
TORSDOF 12
ENDMDL
MODEL 9
REMARK VINA RESULT:      -6.3      7.431     11.788
REMARK  Name = 
REMARK  15 active torsions:
REMARK  status: ('A' for Active; 'I' for Inactive)
REMARK    1  A    between atoms: C_1  and  C_2
REMARK    2  A    between atoms: C_2  and  O_4
REMARK    3  A    between atoms: O_4  and  C_5
REMARK    4  A    between atoms: C_7  and  C_8
REMARK    5  A    between atoms: C_8  and  O_9
REMARK    6  A    between atoms: C_10  and  O_11
REMARK    7  A    between atoms: O_11  and  C_12
REMARK    8  A    between atoms: C_12  and  C_14
REMARK    9  A    between atoms: C_14  and  C_15
REMARK   10  A    between atoms: C_15  and  C_16
REMARK   11  A    between atoms: C_26  and  C_27
REMARK   12  A    between atoms: C_28  and  O_29
REMARK   13  A    between atoms: C_30  and  C_31
REMARK   14  A    between atoms: C_30  and  C_32
REMARK   15  A    between atoms: C_32  and  O_33
REMARK                            x       y       z     vdW  Elec       q    Type
REMARK                         _______ _______ _______ _____ _____    ______ ____
ROOT
ATOM      1  C   UNL     1       4.286   3.248  19.727  0.00  0.00    +0.000 C 
ATOM      2  C   UNL     1       5.549   3.943  19.216  0.00  0.00    +0.000 C 
ATOM      3  C   UNL     1       5.860   5.217  18.862  0.00  0.00    +0.000 C 
ATOM      4  C   UNL     1       7.245   5.473  18.260  0.00  0.00    +0.000 C 
ATOM      5  C   UNL     1       7.471   5.141  16.739  0.00  0.00    +0.000 C 
ATOM      6  C   UNL     1       6.886   3.942  15.947  0.00  0.00    +0.000 C 
ATOM      7  C   UNL     1       5.506   3.209  15.491  0.00  0.00    +0.000 C 
ATOM      8  C   UNL     1       4.894   2.727  16.707  0.00  0.00    +0.000 C 
ATOM      9  C   UNL     1       3.679   2.686  17.272  0.00  0.00    +0.000 C 
ATOM     10  C   UNL     1       2.390   3.140  16.660  0.00  0.00    +0.000 C 
ATOM     11  C   UNL     1       3.674   2.196  18.719  0.00  0.00    +0.000 C 
ATOM     12  C   UNL     1       6.003   4.421  14.804  0.00  0.00    +0.000 C 
ATOM     13  C   UNL     1       6.650   4.215  13.441  0.00  0.00    +0.000 C 
ENDROOT
BRANCH  11  14
ATOM     14  O   UNL     1       2.367   1.783  19.123  0.00  0.00    +0.000 OA
ATOM     15  H   UNL     1       2.312   0.834  18.911  0.00  0.00    +0.000 HD
ENDBRANCH  11  14
BRANCH   1  16
ATOM     16  O   UNL     1       3.244   4.170  20.063  0.00  0.00    +0.000 OA
BRANCH  16  18
ATOM     17  C   UNL     1       1.051   4.392  20.834  0.00  0.00    +0.000 C 
ATOM     18  C   UNL     1       2.381   3.737  21.022  0.00  0.00    +0.000 C 
ATOM     19  O   UNL     1       2.654   2.987  21.944  0.00  0.00    +0.000 OA
ENDBRANCH  16  18
ENDBRANCH   1  16
BRANCH   3  20
ATOM     20  C   UNL     1       4.968   6.412  19.080  0.00  0.00    +0.000 C 
BRANCH  20  21
ATOM     21  O   UNL     1       3.890   6.431  18.154  0.00  0.00    +0.000 OA
ATOM     22  H   UNL     1       3.238   7.071  18.497  0.00  0.00    +0.000 HD
ENDBRANCH  20  21
ENDBRANCH   3  20
BRANCH   4  23
ATOM     23  O   UNL     1       7.744   6.788  18.790  0.00  0.00    +0.000 OA
BRANCH  23  24
ATOM     24  C   UNL     1       7.975   7.903  18.047  0.00  0.00    +0.000 C 
ATOM     25  O   UNL     1       7.563   8.085  16.903  0.00  0.00    +0.000 OA
BRANCH  24  26
ATOM     26  C   UNL     1       8.689   9.038  18.797  0.00  0.00    +0.000 C 
BRANCH  26  27
ATOM     27  C   UNL     1       8.859  10.387  18.098  0.00  0.00    +0.000 C 
BRANCH  27  28
ATOM     28  C   UNL     1      10.059  11.189  18.590  0.00  0.00    +0.000 A 
ATOM     29  C   UNL     1      10.414  11.210  19.948  0.00  0.00    +0.000 A 
ATOM     30  C   UNL     1      11.539  11.915  20.406  0.00  0.00    +0.000 A 
ATOM     31  C   UNL     1      12.332  12.626  19.504  0.00  0.00    +0.000 A 
ATOM     32  C   UNL     1      11.995  12.627  18.155  0.00  0.00    +0.000 A 
ATOM     33  C   UNL     1      10.866  11.923  17.697  0.00  0.00    +0.000 A 
ENDBRANCH  27  28
ENDBRANCH  26  27
ENDBRANCH  24  26
ENDBRANCH  23  24
ENDBRANCH   4  23
BRANCH  12  34
ATOM     34  C   UNL     1       5.154   5.677  14.797  0.00  0.00    +0.000 C 
BRANCH  34  35
ATOM     35  O   UNL     1       5.671   6.710  15.608  0.00  0.00    +0.000 OA
ATOM     36  H   UNL     1       6.601   6.466  15.789  0.00  0.00    +0.000 HD
ENDBRANCH  34  35
ENDBRANCH  12  34
TORSDOF 12
ENDMDL
