MODEL 1
REMARK VINA RESULT:      -7.2      0.000      0.000
REMARK  Name = 
REMARK  6 active torsions:
REMARK  status: ('A' for Active; 'I' for Inactive)
REMARK    1  A    between atoms: C_1  and  N_2
REMARK    2  A    between atoms: N_2  and  C_3
REMARK    3  A    between atoms: N_6  and  C_7
REMARK    4  A    between atoms: C_7  and  C_8
REMARK    5  A    between atoms: N_14  and  S_15
REMARK    6  A    between atoms: S_15  and  C_16
REMARK                            x       y       z     vdW  Elec       q    Type
REMARK                         _______ _______ _______ _____ _____    ______ ____
ROOT
ATOM      1  C   UNL     1       5.958   5.688  17.112  0.00  0.00    +0.000 A 
ATOM      2  N   UNL     1       5.914   7.028  16.808  0.00  0.00    +0.000 NA
ATOM      3  C   UNL     1       4.707   7.420  17.144  0.00  0.00    +0.000 A 
ATOM      4  N   UNL     1       3.984   6.410  17.721  0.00  0.00    +0.000 N 
ATOM      5  C   UNL     1       4.761   5.276  17.681  0.00  0.00    +0.000 A 
ATOM      6  C   UNL     1       4.386   3.900  18.108  0.00  0.00    +0.000 C 
ATOM      7  N   UNL     1       3.326   3.850  19.111  0.00  0.00    +0.000 NA
ATOM      8  C   UNL     1       3.230   4.928  20.095  0.00  0.00    +0.000 C 
ATOM      9  C   UNL     1       2.298   6.014  19.581  0.00  0.00    +0.000 C 
ATOM     10  C   UNL     1       2.616   6.537  18.176  0.00  0.00    +0.000 C 
ENDROOT
BRANCH   7  11
ATOM     11  S   UNL     1       2.091   2.736  18.935  0.00  0.00    +0.000 S 
ATOM     12  C   UNL     1       1.349   2.748  20.557  0.00  0.00    +0.000 C 
ATOM     13  O   UNL     1       1.120   3.274  18.003  0.00  0.00    +0.000 OA
ATOM     14  O   UNL     1       2.695   1.443  18.720  0.00  0.00    +0.000 OA
ENDBRANCH   7  11
BRANCH   1  15
ATOM     15  C   UNL     1       7.169   4.864  16.834  0.00  0.00    +0.000 C 
BRANCH  15  21
ATOM     16  C   UNL     1       6.187   3.450  12.291  0.00  0.00    +0.000 C 
ATOM     17  N   UNL     1       6.903   4.315  13.214  0.00  0.00    +0.000 N 
ATOM     18  C   UNL     1       7.886   5.236  12.667  0.00  0.00    +0.000 C 
ATOM     19  C   UNL     1       6.658   4.132  14.563  0.00  0.00    +0.000 C 
ATOM     20  O   UNL     1       5.847   3.307  14.981  0.00  0.00    +0.000 OA
ATOM     21  N   UNL     1       7.413   4.892  15.410  0.00  0.00    +0.000 N 
ATOM     22  H   UNL     1       7.825   5.743  15.064  0.00  0.00    +0.000 HD
ENDBRANCH  15  21
ENDBRANCH   1  15
TORSDOF 3
ENDMDL
MODEL 2
REMARK VINA RESULT:      -7.0      1.256      1.518
REMARK  Name = 
REMARK  6 active torsions:
REMARK  status: ('A' for Active; 'I' for Inactive)
REMARK    1  A    between atoms: C_1  and  N_2
REMARK    2  A    between atoms: N_2  and  C_3
REMARK    3  A    between atoms: N_6  and  C_7
REMARK    4  A    between atoms: C_7  and  C_8
REMARK    5  A    between atoms: N_14  and  S_15
REMARK    6  A    between atoms: S_15  and  C_16
REMARK                            x       y       z     vdW  Elec       q    Type
REMARK                         _______ _______ _______ _____ _____    ______ ____
ROOT
ATOM      1  C   UNL     1       5.725   5.483  16.803  0.00  0.00    +0.000 A 
ATOM      2  N   UNL     1       6.006   6.807  16.562  0.00  0.00    +0.000 NA
ATOM      3  C   UNL     1       4.977   7.472  17.033  0.00  0.00    +0.000 A 
ATOM      4  N   UNL     1       4.068   6.644  17.636  0.00  0.00    +0.000 N 
ATOM      5  C   UNL     1       4.516   5.355  17.472  0.00  0.00    +0.000 A 
ATOM      6  C   UNL     1       3.833   4.096  17.876  0.00  0.00    +0.000 C 
ATOM      7  N   UNL     1       2.887   4.252  18.977  0.00  0.00    +0.000 NA
ATOM      8  C   UNL     1       3.160   5.250  20.010  0.00  0.00    +0.000 C 
ATOM      9  C   UNL     1       2.503   6.571  19.638  0.00  0.00    +0.000 C 
ATOM     10  C   UNL     1       2.824   7.087  18.231  0.00  0.00    +0.000 C 
ENDROOT
BRANCH   7  11
ATOM     11  S   UNL     1       1.394   3.505  18.879  0.00  0.00    +0.000 S 
ATOM     12  C   UNL     1       1.840   1.778  18.935  0.00  0.00    +0.000 C 
ATOM     13  O   UNL     1       0.652   3.806  20.088  0.00  0.00    +0.000 OA
ATOM     14  O   UNL     1       0.845   3.792  17.575  0.00  0.00    +0.000 OA
ENDBRANCH   7  11
BRANCH   1  15
ATOM     15  C   UNL     1       6.651   4.398  16.371  0.00  0.00    +0.000 C 
BRANCH  15  21
ATOM     16  C   UNL     1       7.414   4.740  11.585  0.00  0.00    +0.000 C 
ATOM     17  N   UNL     1       6.738   4.118  12.711  0.00  0.00    +0.000 N 
ATOM     18  C   UNL     1       5.720   3.119  12.432  0.00  0.00    +0.000 C 
ATOM     19  C   UNL     1       7.054   4.593  13.972  0.00  0.00    +0.000 C 
ATOM     20  O   UNL     1       7.893   5.473  14.155  0.00  0.00    +0.000 OA
ATOM     21  N   UNL     1       6.335   4.057  15.003  0.00  0.00    +0.000 N 
ATOM     22  H   UNL     1       5.898   3.159  14.877  0.00  0.00    +0.000 HD
ENDBRANCH  15  21
ENDBRANCH   1  15
TORSDOF 3
ENDMDL
MODEL 3
REMARK VINA RESULT:      -6.8      0.945      1.194
REMARK  Name = 
REMARK  6 active torsions:
REMARK  status: ('A' for Active; 'I' for Inactive)
REMARK    1  A    between atoms: C_1  and  N_2
REMARK    2  A    between atoms: N_2  and  C_3
REMARK    3  A    between atoms: N_6  and  C_7
REMARK    4  A    between atoms: C_7  and  C_8
REMARK    5  A    between atoms: N_14  and  S_15
REMARK    6  A    between atoms: S_15  and  C_16
REMARK                            x       y       z     vdW  Elec       q    Type
REMARK                         _______ _______ _______ _____ _____    ______ ____
ROOT
ATOM      1  C   UNL     1       5.438   5.326  16.999  0.00  0.00    +0.000 A 
ATOM      2  N   UNL     1       5.462   6.666  16.694  0.00  0.00    +0.000 NA
ATOM      3  C   UNL     1       4.366   7.161  17.221  0.00  0.00    +0.000 A 
ATOM      4  N   UNL     1       3.663   6.215  17.918  0.00  0.00    +0.000 N 
ATOM      5  C   UNL     1       4.320   5.018  17.761  0.00  0.00    +0.000 A 
ATOM      6  C   UNL     1       3.902   3.678  18.257  0.00  0.00    +0.000 C 
ATOM      7  N   UNL     1       3.022   3.715  19.421  0.00  0.00    +0.000 NA
ATOM      8  C   UNL     1       3.184   4.792  20.398  0.00  0.00    +0.000 C 
ATOM      9  C   UNL     1       2.279   5.958  20.034  0.00  0.00    +0.000 C 
ATOM     10  C   UNL     1       2.405   6.459  18.592  0.00  0.00    +0.000 C 
ENDROOT
BRANCH   7  11
ATOM     11  S   UNL     1       1.683   2.715  19.461  0.00  0.00    +0.000 S 
ATOM     12  C   UNL     1       1.260   2.732  21.194  0.00  0.00    +0.000 C 
ATOM     13  O   UNL     1       0.606   3.364  18.739  0.00  0.00    +0.000 OA
ATOM     14  O   UNL     1       2.119   1.384  19.112  0.00  0.00    +0.000 OA
ENDBRANCH   7  11
BRANCH   1  15
ATOM     15  C   UNL     1       6.511   4.401  16.532  0.00  0.00    +0.000 C 
BRANCH  15  21
ATOM     16  C   UNL     1       7.493   4.829  11.794  0.00  0.00    +0.000 C 
ATOM     17  N   UNL     1       6.766   4.187  12.876  0.00  0.00    +0.000 N 
ATOM     18  C   UNL     1       5.762   3.194  12.532  0.00  0.00    +0.000 C 
ATOM     19  C   UNL     1       7.023   4.639  14.158  0.00  0.00    +0.000 C 
ATOM     20  O   UNL     1       7.853   5.515  14.395  0.00  0.00    +0.000 OA
ATOM     21  N   UNL     1       6.258   4.085  15.145  0.00  0.00    +0.000 N 
ATOM     22  H   UNL     1       5.827   3.190  14.982  0.00  0.00    +0.000 HD
ENDBRANCH  15  21
ENDBRANCH   1  15
TORSDOF 3
ENDMDL
MODEL 4
REMARK VINA RESULT:      -6.7      0.874      1.012
REMARK  Name = 
REMARK  6 active torsions:
REMARK  status: ('A' for Active; 'I' for Inactive)
REMARK    1  A    between atoms: C_1  and  N_2
REMARK    2  A    between atoms: N_2  and  C_3
REMARK    3  A    between atoms: N_6  and  C_7
REMARK    4  A    between atoms: C_7  and  C_8
REMARK    5  A    between atoms: N_14  and  S_15
REMARK    6  A    between atoms: S_15  and  C_16
REMARK                            x       y       z     vdW  Elec       q    Type
REMARK                         _______ _______ _______ _____ _____    ______ ____
ROOT
ATOM      1  C   UNL     1       5.870   5.664  17.264  0.00  0.00    +0.000 A 
ATOM      2  N   UNL     1       5.663   6.963  16.867  0.00  0.00    +0.000 NA
ATOM      3  C   UNL     1       4.426   7.238  17.207  0.00  0.00    +0.000 A 
ATOM      4  N   UNL     1       3.838   6.197  17.874  0.00  0.00    +0.000 N 
ATOM      5  C   UNL     1       4.741   5.161  17.894  0.00  0.00    +0.000 A 
ATOM      6  C   UNL     1       4.539   3.786  18.429  0.00  0.00    +0.000 C 
ATOM      7  N   UNL     1       3.512   3.688  19.463  0.00  0.00    +0.000 NA
ATOM      8  C   UNL     1       3.309   4.818  20.369  0.00  0.00    +0.000 C 
ATOM      9  C   UNL     1       2.246   5.748  19.805  0.00  0.00    +0.000 C 
ATOM     10  C   UNL     1       2.473   6.198  18.358  0.00  0.00    +0.000 C 
ENDROOT
BRANCH   7  11
ATOM     11  S   UNL     1       2.413   2.429  19.401  0.00  0.00    +0.000 S 
ATOM     12  C   UNL     1       1.234   3.026  18.203  0.00  0.00    +0.000 C 
ATOM     13  O   UNL     1       3.075   1.273  18.829  0.00  0.00    +0.000 OA
ATOM     14  O   UNL     1       1.759   2.355  20.686  0.00  0.00    +0.000 OA
ENDBRANCH   7  11
BRANCH   1  15
ATOM     15  C   UNL     1       7.165   4.968  17.012  0.00  0.00    +0.000 C 
BRANCH  15  21
ATOM     16  C   UNL     1       6.269   3.506  12.466  0.00  0.00    +0.000 C 
ATOM     17  N   UNL     1       6.949   4.397  13.391  0.00  0.00    +0.000 N 
ATOM     18  C   UNL     1       7.906   5.347  12.849  0.00  0.00    +0.000 C 
ATOM     19  C   UNL     1       6.697   4.211  14.739  0.00  0.00    +0.000 C 
ATOM     20  O   UNL     1       5.909   3.362  15.153  0.00  0.00    +0.000 OA
ATOM     21  N   UNL     1       7.420   4.998  15.590  0.00  0.00    +0.000 N 
ATOM     22  H   UNL     1       7.807   5.861  15.244  0.00  0.00    +0.000 HD
ENDBRANCH  15  21
ENDBRANCH   1  15
TORSDOF 3
ENDMDL
MODEL 5
REMARK VINA RESULT:      -6.6      3.705      6.935
REMARK  Name = 
REMARK  6 active torsions:
REMARK  status: ('A' for Active; 'I' for Inactive)
REMARK    1  A    between atoms: C_1  and  N_2
REMARK    2  A    between atoms: N_2  and  C_3
REMARK    3  A    between atoms: N_6  and  C_7
REMARK    4  A    between atoms: C_7  and  C_8
REMARK    5  A    between atoms: N_14  and  S_15
REMARK    6  A    between atoms: S_15  and  C_16
REMARK                            x       y       z     vdW  Elec       q    Type
REMARK                         _______ _______ _______ _____ _____    ______ ____
ROOT
ATOM      1  C   UNL     1       2.779   7.326  18.362  0.00  0.00    +0.000 A 
ATOM      2  N   UNL     1       2.166   6.905  19.518  0.00  0.00    +0.000 NA
ATOM      3  C   UNL     1       2.826   5.833  19.891  0.00  0.00    +0.000 A 
ATOM      4  N   UNL     1       3.889   5.577  19.066  0.00  0.00    +0.000 N 
ATOM      5  C   UNL     1       3.858   6.508  18.056  0.00  0.00    +0.000 A 
ATOM      6  C   UNL     1       4.752   6.595  16.869  0.00  0.00    +0.000 C 
ATOM      7  N   UNL     1       6.062   5.978  17.058  0.00  0.00    +0.000 NA
ATOM      8  C   UNL     1       6.674   6.005  18.386  0.00  0.00    +0.000 C 
ATOM      9  C   UNL     1       6.291   4.750  19.156  0.00  0.00    +0.000 C 
ATOM     10  C   UNL     1       4.789   4.452  19.214  0.00  0.00    +0.000 C 
ENDROOT
BRANCH   7  11
ATOM     11  S   UNL     1       6.690   5.015  15.843  0.00  0.00    +0.000 S 
ATOM     12  C   UNL     1       5.486   3.702  15.752  0.00  0.00    +0.000 C 
ATOM     13  O   UNL     1       6.630   5.754  14.597  0.00  0.00    +0.000 OA
ATOM     14  O   UNL     1       7.934   4.460  16.322  0.00  0.00    +0.000 OA
ENDBRANCH   7  11
BRANCH   1  15
ATOM     15  C   UNL     1       2.284   8.510  17.604  0.00  0.00    +0.000 C 
BRANCH  15  21
ATOM     16  C   UNL     1       0.555  12.645  19.480  0.00  0.00    +0.000 C 
ATOM     17  N   UNL     1       0.455  11.207  19.296  0.00  0.00    +0.000 N 
ATOM     18  C   UNL     1      -0.606  10.499  19.994  0.00  0.00    +0.000 C 
ATOM     19  C   UNL     1       1.439  10.602  18.534  0.00  0.00    +0.000 C 
ATOM     20  O   UNL     1       2.344  11.240  17.998  0.00  0.00    +0.000 OA
ATOM     21  N   UNL     1       1.374   9.240  18.457  0.00  0.00    +0.000 N 
ATOM     22  H   UNL     1       0.493   8.784  18.630  0.00  0.00    +0.000 HD
ENDBRANCH  15  21
ENDBRANCH   1  15
TORSDOF 3
ENDMDL
MODEL 6
REMARK VINA RESULT:      -6.6      3.874      7.632
REMARK  Name = 
REMARK  6 active torsions:
REMARK  status: ('A' for Active; 'I' for Inactive)
REMARK    1  A    between atoms: C_1  and  N_2
REMARK    2  A    between atoms: N_2  and  C_3
REMARK    3  A    between atoms: N_6  and  C_7
REMARK    4  A    between atoms: C_7  and  C_8
REMARK    5  A    between atoms: N_14  and  S_15
REMARK    6  A    between atoms: S_15  and  C_16
REMARK                            x       y       z     vdW  Elec       q    Type
REMARK                         _______ _______ _______ _____ _____    ______ ____
ROOT
ATOM      1  C   UNL     1       2.102   7.007  19.828  0.00  0.00    +0.000 A 
ATOM      2  N   UNL     1       1.509   6.255  20.814  0.00  0.00    +0.000 NA
ATOM      3  C   UNL     1       2.008   5.048  20.678  0.00  0.00    +0.000 A 
ATOM      4  N   UNL     1       2.956   4.997  19.691  0.00  0.00    +0.000 N 
ATOM      5  C   UNL     1       3.010   6.241  19.109  0.00  0.00    +0.000 A 
ATOM      6  C   UNL     1       3.823   6.664  17.937  0.00  0.00    +0.000 C 
ATOM      7  N   UNL     1       5.024   5.863  17.718  0.00  0.00    +0.000 NA
ATOM      8  C   UNL     1       5.722   5.301  18.875  0.00  0.00    +0.000 C 
ATOM      9  C   UNL     1       5.192   3.906  19.168  0.00  0.00    +0.000 C 
ATOM     10  C   UNL     1       3.669   3.799  19.300  0.00  0.00    +0.000 C 
ENDROOT
BRANCH   7  11
ATOM     11  S   UNL     1       5.403   5.371  16.166  0.00  0.00    +0.000 S 
ATOM     12  C   UNL     1       7.117   4.906  16.333  0.00  0.00    +0.000 C 
ATOM     13  O   UNL     1       4.648   4.168  15.871  0.00  0.00    +0.000 OA
ATOM     14  O   UNL     1       5.326   6.529  15.307  0.00  0.00    +0.000 OA
ENDBRANCH   7  11
BRANCH   1  15
ATOM     15  C   UNL     1       1.757   8.444  19.629  0.00  0.00    +0.000 C 
BRANCH  15  21
ATOM     16  C   UNL     1      -0.602  11.846  22.171  0.00  0.00    +0.000 C 
ATOM     17  N   UNL     1      -0.085  10.493  22.056  0.00  0.00    +0.000 N 
ATOM     18  C   UNL     1      -0.214   9.610  23.203  0.00  0.00    +0.000 C 
ATOM     19  C   UNL     1       0.577  10.173  20.884  0.00  0.00    +0.000 C 
ATOM     20  O   UNL     1       0.699  10.971  19.955  0.00  0.00    +0.000 OA
ATOM     21  N   UNL     1       1.135   8.927  20.841  0.00  0.00    +0.000 N 
ATOM     22  H   UNL     1       0.774   8.211  21.450  0.00  0.00    +0.000 HD
ENDBRANCH  15  21
ENDBRANCH   1  15
TORSDOF 3
ENDMDL
MODEL 7
REMARK VINA RESULT:      -6.6      3.973      7.287
REMARK  Name = 
REMARK  6 active torsions:
REMARK  status: ('A' for Active; 'I' for Inactive)
REMARK    1  A    between atoms: C_1  and  N_2
REMARK    2  A    between atoms: N_2  and  C_3
REMARK    3  A    between atoms: N_6  and  C_7
REMARK    4  A    between atoms: C_7  and  C_8
REMARK    5  A    between atoms: N_14  and  S_15
REMARK    6  A    between atoms: S_15  and  C_16
REMARK                            x       y       z     vdW  Elec       q    Type
REMARK                         _______ _______ _______ _____ _____    ______ ____
ROOT
ATOM      1  C   UNL     1       2.003   7.561  19.815  0.00  0.00    +0.000 A 
ATOM      2  N   UNL     1       2.187   8.506  18.834  0.00  0.00    +0.000 NA
ATOM      3  C   UNL     1       2.898   7.910  17.906  0.00  0.00    +0.000 A 
ATOM      4  N   UNL     1       3.125   6.593  18.205  0.00  0.00    +0.000 N 
ATOM      5  C   UNL     1       2.584   6.356  19.447  0.00  0.00    +0.000 A 
ATOM      6  C   UNL     1       2.647   5.100  20.243  0.00  0.00    +0.000 C 
ATOM      7  N   UNL     1       2.836   3.891  19.446  0.00  0.00    +0.000 NA
ATOM      8  C   UNL     1       2.256   3.829  18.105  0.00  0.00    +0.000 C 
ATOM      9  C   UNL     1       3.269   4.318  17.081  0.00  0.00    +0.000 C 
ATOM     10  C   UNL     1       3.893   5.684  17.380  0.00  0.00    +0.000 C 
ENDROOT
BRANCH   7  11
ATOM     11  S   UNL     1       3.939   2.743  19.958  0.00  0.00    +0.000 S 
ATOM     12  C   UNL     1       3.603   1.388  18.848  0.00  0.00    +0.000 C 
ATOM     13  O   UNL     1       5.274   3.229  19.667  0.00  0.00    +0.000 OA
ATOM     14  O   UNL     1       3.566   2.341  21.293  0.00  0.00    +0.000 OA
ENDBRANCH   7  11
BRANCH   1  15
ATOM     15  C   UNL     1       1.266   7.875  21.073  0.00  0.00    +0.000 C 
BRANCH  15  21
ATOM     16  C   UNL     1      -0.791  12.049  22.470  0.00  0.00    +0.000 C 
ATOM     17  N   UNL     1      -0.485  11.083  21.429  0.00  0.00    +0.000 N 
ATOM     18  C   UNL     1      -1.036  11.308  20.102  0.00  0.00    +0.000 C 
ATOM     19  C   UNL     1       0.241   9.966  21.803  0.00  0.00    +0.000 C 
ATOM     20  O   UNL     1       0.649   9.799  22.951  0.00  0.00    +0.000 OA
ATOM     21  N   UNL     1       0.433   9.030  20.827  0.00  0.00    +0.000 N 
ATOM     22  H   UNL     1       0.369   9.313  19.863  0.00  0.00    +0.000 HD
ENDBRANCH  15  21
ENDBRANCH   1  15
TORSDOF 3
ENDMDL
MODEL 8
REMARK VINA RESULT:      -6.5      4.177      7.560
REMARK  Name = 
REMARK  6 active torsions:
REMARK  status: ('A' for Active; 'I' for Inactive)
REMARK    1  A    between atoms: C_1  and  N_2
REMARK    2  A    between atoms: N_2  and  C_3
REMARK    3  A    between atoms: N_6  and  C_7
REMARK    4  A    between atoms: C_7  and  C_8
REMARK    5  A    between atoms: N_14  and  S_15
REMARK    6  A    between atoms: S_15  and  C_16
REMARK                            x       y       z     vdW  Elec       q    Type
REMARK                         _______ _______ _______ _____ _____    ______ ____
ROOT
ATOM      1  C   UNL     1       1.807   7.714  20.173  0.00  0.00    +0.000 A 
ATOM      2  N   UNL     1       2.048   8.569  19.123  0.00  0.00    +0.000 NA
ATOM      3  C   UNL     1       2.535   7.815  18.166  0.00  0.00    +0.000 A 
ATOM      4  N   UNL     1       2.556   6.492  18.520  0.00  0.00    +0.000 N 
ATOM      5  C   UNL     1       2.121   6.409  19.821  0.00  0.00    +0.000 A 
ATOM      6  C   UNL     1       2.047   5.196  20.681  0.00  0.00    +0.000 C 
ATOM      7  N   UNL     1       1.930   3.942  19.942  0.00  0.00    +0.000 NA
ATOM      8  C   UNL     1       1.205   3.932  18.672  0.00  0.00    +0.000 C 
ATOM      9  C   UNL     1       2.170   4.185  17.524  0.00  0.00    +0.000 C 
ATOM     10  C   UNL     1       3.056   5.426  17.677  0.00  0.00    +0.000 C 
ENDROOT
BRANCH   7  11
ATOM     11  S   UNL     1       2.861   2.633  20.409  0.00  0.00    +0.000 S 
ATOM     12  C   UNL     1       4.495   3.145  19.909  0.00  0.00    +0.000 C 
ATOM     13  O   UNL     1       2.848   2.556  21.857  0.00  0.00    +0.000 OA
ATOM     14  O   UNL     1       2.469   1.505  19.598  0.00  0.00    +0.000 OA
ENDBRANCH   7  11
BRANCH   1  15
ATOM     15  C   UNL     1       1.279   8.209  21.477  0.00  0.00    +0.000 C 
BRANCH  15  21
ATOM     16  C   UNL     1      -1.240  12.111  22.903  0.00  0.00    +0.000 C 
ATOM     17  N   UNL     1      -0.729  11.261  21.841  0.00  0.00    +0.000 N 
ATOM     18  C   UNL     1      -1.113  11.569  20.472  0.00  0.00    +0.000 C 
ATOM     19  C   UNL     1       0.019  10.161  22.222  0.00  0.00    +0.000 C 
ATOM     20  O   UNL     1       0.282   9.918  23.399  0.00  0.00    +0.000 OA
ATOM     21  N   UNL     1       0.406   9.329  21.210  0.00  0.00    +0.000 N 
ATOM     22  H   UNL     1       0.450   9.691  20.272  0.00  0.00    +0.000 HD
ENDBRANCH  15  21
ENDBRANCH   1  15
TORSDOF 3
ENDMDL
MODEL 9
REMARK VINA RESULT:      -6.4      3.689      6.866
REMARK  Name = 
REMARK  6 active torsions:
REMARK  status: ('A' for Active; 'I' for Inactive)
REMARK    1  A    between atoms: C_1  and  N_2
REMARK    2  A    between atoms: N_2  and  C_3
REMARK    3  A    between atoms: N_6  and  C_7
REMARK    4  A    between atoms: C_7  and  C_8
REMARK    5  A    between atoms: N_14  and  S_15
REMARK    6  A    between atoms: S_15  and  C_16
REMARK                            x       y       z     vdW  Elec       q    Type
REMARK                         _______ _______ _______ _____ _____    ______ ____
ROOT
ATOM      1  C   UNL     1       2.757   7.684  18.341  0.00  0.00    +0.000 A 
ATOM      2  N   UNL     1       1.945   7.259  19.365  0.00  0.00    +0.000 NA
ATOM      3  C   UNL     1       2.387   6.066  19.686  0.00  0.00    +0.000 A 
ATOM      4  N   UNL     1       3.498   5.722  18.964  0.00  0.00    +0.000 N 
ATOM      5  C   UNL     1       3.735   6.738  18.068  0.00  0.00    +0.000 A 
ATOM      6  C   UNL     1       4.778   6.793  17.008  0.00  0.00    +0.000 C 
ATOM      7  N   UNL     1       5.948   5.960  17.272  0.00  0.00    +0.000 NA
ATOM      8  C   UNL     1       6.381   5.763  18.656  0.00  0.00    +0.000 C 
ATOM      9  C   UNL     1       5.721   4.519  19.230  0.00  0.00    +0.000 C 
ATOM     10  C   UNL     1       4.197   4.460  19.084  0.00  0.00    +0.000 C 
ENDROOT
BRANCH   7  11
ATOM     11  S   UNL     1       6.580   5.029  16.035  0.00  0.00    +0.000 S 
ATOM     12  C   UNL     1       5.352   3.744  15.875  0.00  0.00    +0.000 C 
ATOM     13  O   UNL     1       6.557   5.813  14.815  0.00  0.00    +0.000 OA
ATOM     14  O   UNL     1       7.803   4.432  16.516  0.00  0.00    +0.000 OA
ENDBRANCH   7  11
BRANCH   1  15
ATOM     15  C   UNL     1       2.544   8.999  17.671  0.00  0.00    +0.000 C 
BRANCH  15  21
ATOM     16  C   UNL     1      -1.291  11.610  19.114  0.00  0.00    +0.000 C 
ATOM     17  N   UNL     1      -0.719  10.573  18.272  0.00  0.00    +0.000 N 
ATOM     18  C   UNL     1      -1.614   9.814  17.414  0.00  0.00    +0.000 C 
ATOM     19  C   UNL     1       0.635  10.324  18.416  0.00  0.00    +0.000 C 
ATOM     20  O   UNL     1       1.345  10.966  19.188  0.00  0.00    +0.000 OA
ATOM     21  N   UNL     1       1.127   9.283  17.682  0.00  0.00    +0.000 N 
ATOM     22  H   UNL     1       0.626   8.986  16.861  0.00  0.00    +0.000 HD
ENDBRANCH  15  21
ENDBRANCH   1  15
TORSDOF 3
ENDMDL
