MODEL 1
REMARK VINA RESULT:      -6.4      0.000      0.000
REMARK  Name = 
REMARK  6 active torsions:
REMARK  status: ('A' for Active; 'I' for Inactive)
REMARK    1  A    between atoms: C_1  and  C_2
REMARK    2  A    between atoms: C_2  and  C_3
REMARK    3  A    between atoms: C_2  and  C_4
REMARK    4  A    between atoms: C_4  and  C_5
REMARK    5  A    between atoms: C_7  and  C_8
REMARK    6  A    between atoms: C_21  and  C_23
REMARK                            x       y       z     vdW  Elec       q    Type
REMARK                         _______ _______ _______ _____ _____    ______ ____
ROOT
ATOM      1  C   UNL     1      -0.195  11.046  20.126  0.00  0.00    +0.000 C 
ATOM      2  C   UNL     1      -0.289  11.607  18.694  0.00  0.00    +0.000 C 
ATOM      3  C   UNL     1      -1.678  12.261  18.568  0.00  0.00    +0.000 C 
ATOM      4  C   UNL     1      -1.977  12.695  20.030  0.00  0.00    +0.000 C 
ATOM      5  C   UNL     1      -1.283  14.104  20.187  0.00  0.00    +0.000 C 
ATOM      6  O   UNL     1      -0.093  14.367  20.107  0.00  0.00    +0.000 OA
ATOM      7  N   UNL     1      -2.290  15.033  20.418  0.00  0.00    +0.000 N 
ATOM      8  C   UNL     1      -3.519  14.413  20.589  0.00  0.00    +0.000 A 
ATOM      9  C   UNL     1      -4.670  15.014  21.059  0.00  0.00    +0.000 A 
ATOM     10  C   UNL     1      -5.807  14.218  21.183  0.00  0.00    +0.000 A 
ATOM     11  C   UNL     1      -5.766  12.862  20.819  0.00  0.00    +0.000 A 
ATOM     12  C   UNL     1      -4.567  12.258  20.411  0.00  0.00    +0.000 A 
ATOM     13  C   UNL     1      -3.424  13.040  20.327  0.00  0.00    +0.000 A 
ATOM     14  N   UNL     1      -1.321  11.656  20.864  0.00  0.00    +0.000 N 
ATOM     15  C   UNL     1      -1.327  11.538  22.277  0.00  0.00    +0.000 C 
ATOM     16  O   UNL     1      -0.773  10.588  22.843  0.00  0.00    +0.000 OA
ATOM     17  H   UNL     1      -2.068  15.982  20.672  0.00  0.00    +0.000 HD
ENDROOT
BRANCH  15  18
ATOM     18  C   UNL     1      -1.976  12.542  23.187  0.00  0.00    +0.000 A 
ATOM     19  C   UNL     1      -3.199  12.256  23.790  0.00  0.00    +0.000 A 
ATOM     20  C   UNL     1      -3.792  13.222  24.609  0.00  0.00    +0.000 A 
ATOM     21  C   UNL     1      -3.139  14.430  24.824  0.00  0.00    +0.000 A 
ATOM     22  C   UNL     1      -1.882  14.587  24.272  0.00  0.00    +0.000 A 
ATOM     23  N   UNL     1      -1.284  13.664  23.483  0.00  0.00    +0.000 NA
ENDBRANCH  15  18
BRANCH   3  24
ATOM     24  C   UNL     1      -2.707  11.327  17.926  0.00  0.00    +0.000 C 
ATOM     25 CL   UNL     1      -1.919   9.983  17.042  0.00  0.00    +0.000 Cl
ENDBRANCH   3  24
BRANCH   1  26
ATOM     26  C   UNL     1      -0.080   9.499  20.137  0.00  0.00    +0.000 C 
BRANCH  26  28
ATOM     27  C   UNL     1       1.608   7.660  20.825  0.00  0.00    +0.000 C 
ATOM     28  C   UNL     1       1.378   8.958  20.043  0.00  0.00    +0.000 C 
ATOM     29  C   UNL     1       1.788   8.737  18.584  0.00  0.00    +0.000 C 
ENDBRANCH  26  28
ENDBRANCH   1  26
TORSDOF 4
ENDMDL
MODEL 2
REMARK VINA RESULT:      -6.2      0.880      1.128
REMARK  Name = 
REMARK  6 active torsions:
REMARK  status: ('A' for Active; 'I' for Inactive)
REMARK    1  A    between atoms: C_1  and  C_2
REMARK    2  A    between atoms: C_2  and  C_3
REMARK    3  A    between atoms: C_2  and  C_4
REMARK    4  A    between atoms: C_4  and  C_5
REMARK    5  A    between atoms: C_7  and  C_8
REMARK    6  A    between atoms: C_21  and  C_23
REMARK                            x       y       z     vdW  Elec       q    Type
REMARK                         _______ _______ _______ _____ _____    ______ ____
ROOT
ATOM      1  C   UNL     1      -0.104  10.769  20.727  0.00  0.00    +0.000 C 
ATOM      2  C   UNL     1       0.155  11.256  19.289  0.00  0.00    +0.000 C 
ATOM      3  C   UNL     1      -0.993  12.220  18.938  0.00  0.00    +0.000 C 
ATOM      4  C   UNL     1      -1.385  12.794  20.327  0.00  0.00    +0.000 C 
ATOM      5  C   UNL     1      -0.392  13.998  20.565  0.00  0.00    +0.000 C 
ATOM      6  O   UNL     1       0.825  13.958  20.666  0.00  0.00    +0.000 OA
ATOM      7  N   UNL     1      -1.158  15.156  20.622  0.00  0.00    +0.000 N 
ATOM      8  C   UNL     1      -2.514  14.865  20.611  0.00  0.00    +0.000 A 
ATOM      9  C   UNL     1      -3.535  15.754  20.886  0.00  0.00    +0.000 A 
ATOM     10  C   UNL     1      -4.839  15.266  20.846  0.00  0.00    +0.000 A 
ATOM     11  C   UNL     1      -5.086  13.924  20.516  0.00  0.00    +0.000 A 
ATOM     12  C   UNL     1      -4.029  13.024  20.310  0.00  0.00    +0.000 A 
ATOM     13  C   UNL     1      -2.727  13.497  20.391  0.00  0.00    +0.000 A 
ATOM     14  N   UNL     1      -1.137  11.675  21.271  0.00  0.00    +0.000 N 
ATOM     15  C   UNL     1      -1.379  11.641  22.668  0.00  0.00    +0.000 C 
ATOM     16  O   UNL     1      -1.168  10.616  23.329  0.00  0.00    +0.000 OA
ATOM     17  H   UNL     1      -0.746  16.035  20.890  0.00  0.00    +0.000 HD
ENDROOT
BRANCH  15  18
ATOM     18  C   UNL     1      -1.882  12.821  23.448  0.00  0.00    +0.000 A 
ATOM     19  C   UNL     1      -3.199  12.853  23.902  0.00  0.00    +0.000 A 
ATOM     20  C   UNL     1      -3.647  13.978  24.601  0.00  0.00    +0.000 A 
ATOM     21  C   UNL     1      -2.765  15.023  24.851  0.00  0.00    +0.000 A 
ATOM     22  C   UNL     1      -1.451  14.861  24.457  0.00  0.00    +0.000 A 
ATOM     23  N   UNL     1      -0.992  13.779  23.787  0.00  0.00    +0.000 NA
ENDBRANCH  15  18
BRANCH   3  24
ATOM     24  C   UNL     1      -2.118  11.531  18.160  0.00  0.00    +0.000 C 
ATOM     25 CL   UNL     1      -1.560  10.009  17.399  0.00  0.00    +0.000 Cl
ENDBRANCH   3  24
BRANCH   1  26
ATOM     26  C   UNL     1      -0.382   9.243  20.783  0.00  0.00    +0.000 C 
BRANCH  26  28
ATOM     27  C   UNL     1       1.760   7.900  20.221  0.00  0.00    +0.000 C 
ATOM     28  C   UNL     1       0.807   8.389  21.318  0.00  0.00    +0.000 C 
ATOM     29  C   UNL     1       1.612   9.165  22.364  0.00  0.00    +0.000 C 
ENDBRANCH  26  28
ENDBRANCH   1  26
TORSDOF 4
ENDMDL
MODEL 3
REMARK VINA RESULT:      -6.0      2.555      4.436
REMARK  Name = 
REMARK  6 active torsions:
REMARK  status: ('A' for Active; 'I' for Inactive)
REMARK    1  A    between atoms: C_1  and  C_2
REMARK    2  A    between atoms: C_2  and  C_3
REMARK    3  A    between atoms: C_2  and  C_4
REMARK    4  A    between atoms: C_4  and  C_5
REMARK    5  A    between atoms: C_7  and  C_8
REMARK    6  A    between atoms: C_21  and  C_23
REMARK                            x       y       z     vdW  Elec       q    Type
REMARK                         _______ _______ _______ _____ _____    ______ ____
ROOT
ATOM      1  C   UNL     1      -1.721  11.952  21.266  0.00  0.00    +0.000 C 
ATOM      2  C   UNL     1      -0.843  12.233  22.499  0.00  0.00    +0.000 C 
ATOM      3  C   UNL     1      -1.317  13.577  23.080  0.00  0.00    +0.000 C 
ATOM      4  C   UNL     1      -2.813  13.614  22.662  0.00  0.00    +0.000 C 
ATOM      5  C   UNL     1      -3.572  12.812  23.790  0.00  0.00    +0.000 C 
ATOM      6  O   UNL     1      -3.443  11.635  24.089  0.00  0.00    +0.000 OA
ATOM      7  N   UNL     1      -4.425  13.706  24.426  0.00  0.00    +0.000 N 
ATOM      8  C   UNL     1      -4.446  14.932  23.775  0.00  0.00    +0.000 A 
ATOM      9  C   UNL     1      -5.349  15.953  24.002  0.00  0.00    +0.000 A 
ATOM     10  C   UNL     1      -5.222  17.105  23.230  0.00  0.00    +0.000 A 
ATOM     11  C   UNL     1      -4.195  17.213  22.278  0.00  0.00    +0.000 A 
ATOM     12  C   UNL     1      -3.335  16.135  22.017  0.00  0.00    +0.000 A 
ATOM     13  C   UNL     1      -3.487  14.970  22.755  0.00  0.00    +0.000 A 
ATOM     14  N   UNL     1      -2.848  12.905  21.357  0.00  0.00    +0.000 N 
ATOM     15  C   UNL     1      -3.962  12.697  20.506  0.00  0.00    +0.000 C 
ATOM     16  O   UNL     1      -3.838  12.125  19.416  0.00  0.00    +0.000 OA
ATOM     17  H   UNL     1      -5.100  13.385  25.100  0.00  0.00    +0.000 HD
ENDROOT
BRANCH  15  18
ATOM     18  C   UNL     1      -5.359  13.127  20.853  0.00  0.00    +0.000 A 
ATOM     19  C   UNL     1      -5.932  14.228  20.222  0.00  0.00    +0.000 A 
ATOM     20  C   UNL     1      -7.223  14.622  20.588  0.00  0.00    +0.000 A 
ATOM     21  C   UNL     1      -7.914  13.892  21.548  0.00  0.00    +0.000 A 
ATOM     22  C   UNL     1      -7.310  12.753  22.045  0.00  0.00    +0.000 A 
ATOM     23  N   UNL     1      -6.066  12.348  21.702  0.00  0.00    +0.000 NA
ENDBRANCH  15  18
BRANCH   3  24
ATOM     24  C   UNL     1      -0.462  14.754  22.603  0.00  0.00    +0.000 C 
ATOM     25 CL   UNL     1       1.038  14.198  21.798  0.00  0.00    +0.000 Cl
ENDBRANCH   3  24
BRANCH   1  26
ATOM     26  C   UNL     1      -0.894  11.940  19.953  0.00  0.00    +0.000 C 
BRANCH  26  28
ATOM     27  C   UNL     1      -1.184  10.303  17.968  0.00  0.00    +0.000 C 
ATOM     28  C   UNL     1      -0.618  10.519  19.376  0.00  0.00    +0.000 C 
ATOM     29  C   UNL     1       0.882  10.215  19.360  0.00  0.00    +0.000 C 
ENDBRANCH  26  28
ENDBRANCH   1  26
TORSDOF 4
ENDMDL
MODEL 4
REMARK VINA RESULT:      -6.0      2.138      3.942
REMARK  Name = 
REMARK  6 active torsions:
REMARK  status: ('A' for Active; 'I' for Inactive)
REMARK    1  A    between atoms: C_1  and  C_2
REMARK    2  A    between atoms: C_2  and  C_3
REMARK    3  A    between atoms: C_2  and  C_4
REMARK    4  A    between atoms: C_4  and  C_5
REMARK    5  A    between atoms: C_7  and  C_8
REMARK    6  A    between atoms: C_21  and  C_23
REMARK                            x       y       z     vdW  Elec       q    Type
REMARK                         _______ _______ _______ _____ _____    ______ ____
ROOT
ATOM      1  C   UNL     1      -1.708  11.580  19.150  0.00  0.00    +0.000 C 
ATOM      2  C   UNL     1      -0.201  11.529  19.459  0.00  0.00    +0.000 C 
ATOM      3  C   UNL     1       0.130  12.807  20.251  0.00  0.00    +0.000 C 
ATOM      4  C   UNL     1      -1.214  13.114  20.968  0.00  0.00    +0.000 C 
ATOM      5  C   UNL     1      -1.182  12.242  22.284  0.00  0.00    +0.000 C 
ATOM      6  O   UNL     1      -1.142  11.024  22.376  0.00  0.00    +0.000 OA
ATOM      7  N   UNL     1      -1.183  13.122  23.359  0.00  0.00    +0.000 N 
ATOM      8  C   UNL     1      -1.369  14.431  22.939  0.00  0.00    +0.000 A 
ATOM      9  C   UNL     1      -1.650  15.510  23.754  0.00  0.00    +0.000 A 
ATOM     10  C   UNL     1      -1.826  16.749  23.142  0.00  0.00    +0.000 A 
ATOM     11  C   UNL     1      -1.697  16.877  21.749  0.00  0.00    +0.000 A 
ATOM     12  C   UNL     1      -1.480  15.754  20.936  0.00  0.00    +0.000 A 
ATOM     13  C   UNL     1      -1.348  14.512  21.540  0.00  0.00    +0.000 A 
ATOM     14  N   UNL     1      -2.254  12.646  20.017  0.00  0.00    +0.000 N 
ATOM     15  C   UNL     1      -3.663  12.735  20.150  0.00  0.00    +0.000 C 
ATOM     16  O   UNL     1      -4.417  12.343  19.250  0.00  0.00    +0.000 OA
ATOM     17  H   UNL     1      -1.290  12.785  24.302  0.00  0.00    +0.000 HD
ENDROOT
BRANCH  15  18
ATOM     18  C   UNL     1      -4.344  13.282  21.371  0.00  0.00    +0.000 A 
ATOM     19  C   UNL     1      -4.946  14.538  21.336  0.00  0.00    +0.000 A 
ATOM     20  C   UNL     1      -5.548  15.033  22.497  0.00  0.00    +0.000 A 
ATOM     21  C   UNL     1      -5.556  14.254  23.648  0.00  0.00    +0.000 A 
ATOM     22  C   UNL     1      -5.029  12.980  23.564  0.00  0.00    +0.000 A 
ATOM     23  N   UNL     1      -4.449  12.476  22.450  0.00  0.00    +0.000 NA
ENDBRANCH  15  18
BRANCH   3  24
ATOM     24  C   UNL     1       0.677  13.923  19.357  0.00  0.00    +0.000 C 
ATOM     25 CL   UNL     1       1.834  13.291  18.145  0.00  0.00    +0.000 Cl
ENDBRANCH   3  24
BRANCH   1  26
ATOM     26  C   UNL     1      -1.987  11.679  17.626  0.00  0.00    +0.000 C 
BRANCH  26  28
ATOM     27  C   UNL     1      -3.344   9.474  17.669  0.00  0.00    +0.000 C 
ATOM     28  C   UNL     1      -2.293  10.316  16.936  0.00  0.00    +0.000 C 
ATOM     29  C   UNL     1      -2.748  10.524  15.489  0.00  0.00    +0.000 C 
ENDBRANCH  26  28
ENDBRANCH   1  26
TORSDOF 4
ENDMDL
MODEL 5
REMARK VINA RESULT:      -6.0      2.829      4.653
REMARK  Name = 
REMARK  6 active torsions:
REMARK  status: ('A' for Active; 'I' for Inactive)
REMARK    1  A    between atoms: C_1  and  C_2
REMARK    2  A    between atoms: C_2  and  C_3
REMARK    3  A    between atoms: C_2  and  C_4
REMARK    4  A    between atoms: C_4  and  C_5
REMARK    5  A    between atoms: C_7  and  C_8
REMARK    6  A    between atoms: C_21  and  C_23
REMARK                            x       y       z     vdW  Elec       q    Type
REMARK                         _______ _______ _______ _____ _____    ______ ____
ROOT
ATOM      1  C   UNL     1      -1.617  12.098  21.521  0.00  0.00    +0.000 C 
ATOM      2  C   UNL     1      -0.908  12.412  22.852  0.00  0.00    +0.000 C 
ATOM      3  C   UNL     1      -1.536  13.712  23.389  0.00  0.00    +0.000 C 
ATOM      4  C   UNL     1      -2.972  13.659  22.799  0.00  0.00    +0.000 C 
ATOM      5  C   UNL     1      -3.801  12.788  23.822  0.00  0.00    +0.000 C 
ATOM      6  O   UNL     1      -3.629  11.616  24.120  0.00  0.00    +0.000 OA
ATOM      7  N   UNL     1      -4.780  13.612  24.364  0.00  0.00    +0.000 N 
ATOM      8  C   UNL     1      -4.807  14.846  23.729  0.00  0.00    +0.000 A 
ATOM      9  C   UNL     1      -5.796  15.801  23.860  0.00  0.00    +0.000 A 
ATOM     10  C   UNL     1      -5.659  16.974  23.122  0.00  0.00    +0.000 A 
ATOM     11  C   UNL     1      -4.538  17.166  22.297  0.00  0.00    +0.000 A 
ATOM     12  C   UNL     1      -3.583  16.153  22.126  0.00  0.00    +0.000 A 
ATOM     13  C   UNL     1      -3.741  14.966  22.828  0.00  0.00    +0.000 A 
ATOM     14  N   UNL     1      -2.808  12.974  21.492  0.00  0.00    +0.000 N 
ATOM     15  C   UNL     1      -3.800  12.710  20.514  0.00  0.00    +0.000 C 
ATOM     16  O   UNL     1      -3.512  12.168  19.439  0.00  0.00    +0.000 OA
ATOM     17  H   UNL     1      -5.506  13.235  24.951  0.00  0.00    +0.000 HD
ENDROOT
BRANCH  15  18
ATOM     18  C   UNL     1      -5.253  13.041  20.700  0.00  0.00    +0.000 A 
ATOM     19  C   UNL     1      -5.822  14.113  20.017  0.00  0.00    +0.000 A 
ATOM     20  C   UNL     1      -7.171  14.415  20.234  0.00  0.00    +0.000 A 
ATOM     21  C   UNL     1      -7.916  13.626  21.101  0.00  0.00    +0.000 A 
ATOM     22  C   UNL     1      -7.299  12.521  21.654  0.00  0.00    +0.000 A 
ATOM     23  N   UNL     1      -5.999  12.203  21.454  0.00  0.00    +0.000 NA
ENDBRANCH  15  18
BRANCH   3  24
ATOM     24  C   UNL     1      -0.712  14.950  23.028  0.00  0.00    +0.000 C 
ATOM     25 CL   UNL     1      -0.641  16.117  24.385  0.00  0.00    +0.000 Cl
ENDBRANCH   3  24
BRANCH   1  26
ATOM     26  C   UNL     1      -0.644  12.165  20.314  0.00  0.00    +0.000 C 
BRANCH  26  28
ATOM     27  C   UNL     1      -0.378   9.642  20.832  0.00  0.00    +0.000 C 
ATOM     28  C   UNL     1      -0.101  10.782  19.846  0.00  0.00    +0.000 C 
ATOM     29  C   UNL     1      -0.673  10.402  18.477  0.00  0.00    +0.000 C 
ENDBRANCH  26  28
ENDBRANCH   1  26
TORSDOF 4
ENDMDL
MODEL 6
REMARK VINA RESULT:      -5.9     10.054     12.606
REMARK  Name = 
REMARK  6 active torsions:
REMARK  status: ('A' for Active; 'I' for Inactive)
REMARK    1  A    between atoms: C_1  and  C_2
REMARK    2  A    between atoms: C_2  and  C_3
REMARK    3  A    between atoms: C_2  and  C_4
REMARK    4  A    between atoms: C_4  and  C_5
REMARK    5  A    between atoms: C_7  and  C_8
REMARK    6  A    between atoms: C_21  and  C_23
REMARK                            x       y       z     vdW  Elec       q    Type
REMARK                         _______ _______ _______ _____ _____    ______ ____
ROOT
ATOM      1  C   UNL     1       6.788  14.344  21.531  0.00  0.00    +0.000 C 
ATOM      2  C   UNL     1       6.246  15.682  20.993  0.00  0.00    +0.000 C 
ATOM      3  C   UNL     1       7.445  16.425  20.374  0.00  0.00    +0.000 C 
ATOM      4  C   UNL     1       8.368  15.258  19.927  0.00  0.00    +0.000 C 
ATOM      5  C   UNL     1       7.836  14.843  18.500  0.00  0.00    +0.000 C 
ATOM      6  O   UNL     1       6.738  14.393  18.210  0.00  0.00    +0.000 OA
ATOM      7  N   UNL     1       8.855  15.103  17.591  0.00  0.00    +0.000 N 
ATOM      8  C   UNL     1      10.023  15.480  18.238  0.00  0.00    +0.000 A 
ATOM      9  C   UNL     1      11.272  15.583  17.657  0.00  0.00    +0.000 A 
ATOM     10  C   UNL     1      12.333  15.957  18.478  0.00  0.00    +0.000 A 
ATOM     11  C   UNL     1      12.116  16.234  19.838  0.00  0.00    +0.000 A 
ATOM     12  C   UNL     1      10.851  16.054  20.419  0.00  0.00    +0.000 A 
ATOM     13  C   UNL     1       9.801  15.640  19.612  0.00  0.00    +0.000 A 
ATOM     14  N   UNL     1       8.134  14.196  20.938  0.00  0.00    +0.000 N 
ATOM     15  C   UNL     1       8.764  12.930  21.036  0.00  0.00    +0.000 C 
ATOM     16  O   UNL     1       8.505  12.155  21.965  0.00  0.00    +0.000 OA
ATOM     17  H   UNL     1       8.783  14.799  16.634  0.00  0.00    +0.000 HD
ENDROOT
BRANCH  15  18
ATOM     18  C   UNL     1       9.764  12.425  20.035  0.00  0.00    +0.000 A 
ATOM     19  C   UNL     1      11.116  12.361  20.364  0.00  0.00    +0.000 A 
ATOM     20  C   UNL     1      12.027  11.914  19.401  0.00  0.00    +0.000 A 
ATOM     21  C   UNL     1      11.562  11.519  18.152  0.00  0.00    +0.000 A 
ATOM     22  C   UNL     1      10.196  11.516  17.948  0.00  0.00    +0.000 A 
ATOM     23  N   UNL     1       9.295  11.936  18.866  0.00  0.00    +0.000 NA
ENDBRANCH  15  18
BRANCH   3  24
ATOM     24  C   UNL     1       8.068  17.435  21.341  0.00  0.00    +0.000 C 
ATOM     25 CL   UNL     1       6.830  18.502  22.073  0.00  0.00    +0.000 Cl
ENDBRANCH   3  24
BRANCH   1  26
ATOM     26  C   UNL     1       6.668  14.247  23.076  0.00  0.00    +0.000 C 
BRANCH  26  28
ATOM     27  C   UNL     1       6.860  16.124  24.849  0.00  0.00    +0.000 C 
ATOM     28  C   UNL     1       7.601  15.219  23.859  0.00  0.00    +0.000 C 
ATOM     29  C   UNL     1       8.688  14.447  24.612  0.00  0.00    +0.000 C 
ENDBRANCH  26  28
ENDBRANCH   1  26
TORSDOF 4
ENDMDL
MODEL 7
REMARK VINA RESULT:      -5.9      2.170      2.951
REMARK  Name = 
REMARK  6 active torsions:
REMARK  status: ('A' for Active; 'I' for Inactive)
REMARK    1  A    between atoms: C_1  and  C_2
REMARK    2  A    between atoms: C_2  and  C_3
REMARK    3  A    between atoms: C_2  and  C_4
REMARK    4  A    between atoms: C_4  and  C_5
REMARK    5  A    between atoms: C_7  and  C_8
REMARK    6  A    between atoms: C_21  and  C_23
REMARK                            x       y       z     vdW  Elec       q    Type
REMARK                         _______ _______ _______ _____ _____    ______ ____
ROOT
ATOM      1  C   UNL     1      -1.899  12.319  22.281  0.00  0.00    +0.000 C 
ATOM      2  C   UNL     1      -1.291  12.711  20.922  0.00  0.00    +0.000 C 
ATOM      3  C   UNL     1      -2.469  12.875  19.943  0.00  0.00    +0.000 C 
ATOM      4  C   UNL     1      -3.630  13.299  20.885  0.00  0.00    +0.000 C 
ATOM      5  C   UNL     1      -3.483  14.863  21.034  0.00  0.00    +0.000 C 
ATOM      6  O   UNL     1      -2.551  15.486  21.520  0.00  0.00    +0.000 OA
ATOM      7  N   UNL     1      -4.621  15.437  20.481  0.00  0.00    +0.000 N 
ATOM      8  C   UNL     1      -5.555  14.470  20.135  0.00  0.00    +0.000 A 
ATOM      9  C   UNL     1      -6.870  14.705  19.782  0.00  0.00    +0.000 A 
ATOM     10  C   UNL     1      -7.663  13.599  19.488  0.00  0.00    +0.000 A 
ATOM     11  C   UNL     1      -7.122  12.304  19.535  0.00  0.00    +0.000 A 
ATOM     12  C   UNL     1      -5.804  12.086  19.965  0.00  0.00    +0.000 A 
ATOM     13  C   UNL     1      -5.024  13.184  20.299  0.00  0.00    +0.000 A 
ATOM     14  N   UNL     1      -3.347  12.590  22.160  0.00  0.00    +0.000 N 
ATOM     15  C   UNL     1      -4.124  12.583  23.345  0.00  0.00    +0.000 C 
ATOM     16  O   UNL     1      -3.791  11.904  24.325  0.00  0.00    +0.000 OA
ATOM     17  H   UNL     1      -4.801  16.423  20.576  0.00  0.00    +0.000 HD
ENDROOT
BRANCH  15  18
ATOM     18  C   UNL     1      -5.378  13.392  23.516  0.00  0.00    +0.000 A 
ATOM     19  C   UNL     1      -6.620  12.762  23.552  0.00  0.00    +0.000 A 
ATOM     20  C   UNL     1      -7.772  13.544  23.683  0.00  0.00    +0.000 A 
ATOM     21  C   UNL     1      -7.651  14.923  23.802  0.00  0.00    +0.000 A 
ATOM     22  C   UNL     1      -6.377  15.453  23.863  0.00  0.00    +0.000 A 
ATOM     23  N   UNL     1      -5.248  14.717  23.746  0.00  0.00    +0.000 NA
ENDBRANCH  15  18
BRANCH   3  24
ATOM     24  C   UNL     1      -2.714  11.616  19.108  0.00  0.00    +0.000 C 
ATOM     25 CL   UNL     1      -1.672  11.574  17.653  0.00  0.00    +0.000 Cl
ENDBRANCH   3  24
BRANCH   1  26
ATOM     26  C   UNL     1      -1.468  10.895  22.722  0.00  0.00    +0.000 C 
BRANCH  26  28
ATOM     27  C   UNL     1       0.722   9.550  23.042  0.00  0.00    +0.000 C 
ATOM     28  C   UNL     1      -0.130  10.401  22.093  0.00  0.00    +0.000 C 
ATOM     29  C   UNL     1      -0.388   9.605  20.810  0.00  0.00    +0.000 C 
ENDBRANCH  26  28
ENDBRANCH   1  26
TORSDOF 4
ENDMDL
MODEL 8
REMARK VINA RESULT:      -5.8      2.525      4.297
REMARK  Name = 
REMARK  6 active torsions:
REMARK  status: ('A' for Active; 'I' for Inactive)
REMARK    1  A    between atoms: C_1  and  C_2
REMARK    2  A    between atoms: C_2  and  C_3
REMARK    3  A    between atoms: C_2  and  C_4
REMARK    4  A    between atoms: C_4  and  C_5
REMARK    5  A    between atoms: C_7  and  C_8
REMARK    6  A    between atoms: C_21  and  C_23
REMARK                            x       y       z     vdW  Elec       q    Type
REMARK                         _______ _______ _______ _____ _____    ______ ____
ROOT
ATOM      1  C   UNL     1      -2.815  12.016  20.055  0.00  0.00    +0.000 C 
ATOM      2  C   UNL     1      -1.414  12.427  20.543  0.00  0.00    +0.000 C 
ATOM      3  C   UNL     1      -1.576  13.781  21.258  0.00  0.00    +0.000 C 
ATOM      4  C   UNL     1      -3.037  13.709  21.784  0.00  0.00    +0.000 C 
ATOM      5  C   UNL     1      -2.936  12.947  23.163  0.00  0.00    +0.000 C 
ATOM      6  O   UNL     1      -2.561  11.801  23.361  0.00  0.00    +0.000 OA
ATOM      7  N   UNL     1      -3.338  13.835  24.153  0.00  0.00    +0.000 N 
ATOM      8  C   UNL     1      -3.832  15.010  23.605  0.00  0.00    +0.000 A 
ATOM      9  C   UNL     1      -4.521  15.994  24.288  0.00  0.00    +0.000 A 
ATOM     10  C   UNL     1      -4.959  17.096  23.558  0.00  0.00    +0.000 A 
ATOM     11  C   UNL     1      -4.683  17.193  22.184  0.00  0.00    +0.000 A 
ATOM     12  C   UNL     1      -4.044  16.148  21.499  0.00  0.00    +0.000 A 
ATOM     13  C   UNL     1      -3.644  15.029  22.217  0.00  0.00    +0.000 A 
ATOM     14  N   UNL     1      -3.758  12.911  20.760  0.00  0.00    +0.000 N 
ATOM     15  C   UNL     1      -5.137  12.586  20.718  0.00  0.00    +0.000 C 
ATOM     16  O   UNL     1      -5.616  11.948  19.772  0.00  0.00    +0.000 OA
ATOM     17  H   UNL     1      -3.471  13.525  25.102  0.00  0.00    +0.000 HD
ENDROOT
BRANCH  15  18
ATOM     18  C   UNL     1      -6.108  12.962  21.800  0.00  0.00    +0.000 A 
ATOM     19  C   UNL     1      -7.045  13.969  21.583  0.00  0.00    +0.000 A 
ATOM     20  C   UNL     1      -7.917  14.318  22.620  0.00  0.00    +0.000 A 
ATOM     21  C   UNL     1      -7.847  13.636  23.829  0.00  0.00    +0.000 A 
ATOM     22  C   UNL     1      -6.960  12.582  23.921  0.00  0.00    +0.000 A 
ATOM     23  N   UNL     1      -6.112  12.221  22.930  0.00  0.00    +0.000 NA
ENDBRANCH  15  18
BRANCH   3  24
ATOM     24  C   UNL     1      -1.255  14.967  20.344  0.00  0.00    +0.000 C 
ATOM     25 CL   UNL     1      -0.292  14.463  18.921  0.00  0.00    +0.000 Cl
ENDBRANCH   3  24
BRANCH   1  26
ATOM     26  C   UNL     1      -2.898  11.958  18.507  0.00  0.00    +0.000 C 
BRANCH  26  28
ATOM     27  C   UNL     1      -3.445  10.345  16.557  0.00  0.00    +0.000 C 
ATOM     28  C   UNL     1      -2.738  10.530  17.904  0.00  0.00    +0.000 C 
ATOM     29  C   UNL     1      -1.260  10.166  17.742  0.00  0.00    +0.000 C 
ENDBRANCH  26  28
ENDBRANCH   1  26
TORSDOF 4
ENDMDL
MODEL 9
REMARK VINA RESULT:      -5.8      2.975      4.941
REMARK  Name = 
REMARK  6 active torsions:
REMARK  status: ('A' for Active; 'I' for Inactive)
REMARK    1  A    between atoms: C_1  and  C_2
REMARK    2  A    between atoms: C_2  and  C_3
REMARK    3  A    between atoms: C_2  and  C_4
REMARK    4  A    between atoms: C_4  and  C_5
REMARK    5  A    between atoms: C_7  and  C_8
REMARK    6  A    between atoms: C_21  and  C_23
REMARK                            x       y       z     vdW  Elec       q    Type
REMARK                         _______ _______ _______ _____ _____    ______ ____
ROOT
ATOM      1  C   UNL     1      -1.645  12.090  21.608  0.00  0.00    +0.000 C 
ATOM      2  C   UNL     1      -0.968  12.417  22.952  0.00  0.00    +0.000 C 
ATOM      3  C   UNL     1      -1.596  13.730  23.454  0.00  0.00    +0.000 C 
ATOM      4  C   UNL     1      -3.017  13.682  22.828  0.00  0.00    +0.000 C 
ATOM      5  C   UNL     1      -3.880  12.834  23.842  0.00  0.00    +0.000 C 
ATOM      6  O   UNL     1      -3.728  11.665  24.162  0.00  0.00    +0.000 OA
ATOM      7  N   UNL     1      -4.865  13.676  24.346  0.00  0.00    +0.000 N 
ATOM      8  C   UNL     1      -4.864  14.900  23.693  0.00  0.00    +0.000 A 
ATOM      9  C   UNL     1      -5.847  15.866  23.784  0.00  0.00    +0.000 A 
ATOM     10  C   UNL     1      -5.679  17.027  23.032  0.00  0.00    +0.000 A 
ATOM     11  C   UNL     1      -4.536  17.196  22.234  0.00  0.00    +0.000 A 
ATOM     12  C   UNL     1      -3.587  16.171  22.103  0.00  0.00    +0.000 A 
ATOM     13  C   UNL     1      -3.774  14.996  22.818  0.00  0.00    +0.000 A 
ATOM     14  N   UNL     1      -2.826  12.976  21.535  0.00  0.00    +0.000 N 
ATOM     15  C   UNL     1      -3.795  12.707  20.536  0.00  0.00    +0.000 C 
ATOM     16  O   UNL     1      -3.485  12.146  19.477  0.00  0.00    +0.000 OA
ATOM     17  H   UNL     1      -5.609  13.314  24.919  0.00  0.00    +0.000 HD
ENDROOT
BRANCH  15  18
ATOM     18  C   UNL     1      -5.249  13.054  20.680  0.00  0.00    +0.000 A 
ATOM     19  C   UNL     1      -5.789  14.125  19.972  0.00  0.00    +0.000 A 
ATOM     20  C   UNL     1      -7.139  14.443  20.150  0.00  0.00    +0.000 A 
ATOM     21  C   UNL     1      -7.916  13.669  21.003  0.00  0.00    +0.000 A 
ATOM     22  C   UNL     1      -7.326  12.563  21.583  0.00  0.00    +0.000 A 
ATOM     23  N   UNL     1      -6.024  12.231  21.420  0.00  0.00    +0.000 NA
ENDBRANCH  15  18
BRANCH   3  24
ATOM     24  C   UNL     1      -0.751  14.955  23.096  0.00  0.00    +0.000 C 
ATOM     25 CL   UNL     1      -0.689  16.133  24.443  0.00  0.00    +0.000 Cl
ENDBRANCH   3  24
BRANCH   1  26
ATOM     26  C   UNL     1      -0.641  12.129  20.426  0.00  0.00    +0.000 C 
BRANCH  26  28
ATOM     27  C   UNL     1       1.330  13.804  20.304  0.00  0.00    +0.000 C 
ATOM     28  C   UNL     1      -0.160  13.558  20.035  0.00  0.00    +0.000 C 
ATOM     29  C   UNL     1      -0.451  13.851  18.560  0.00  0.00    +0.000 C 
ENDBRANCH  26  28
ENDBRANCH   1  26
TORSDOF 4
ENDMDL
