MODEL 1
REMARK VINA RESULT:      -8.2      0.000      0.000
REMARK  Name = 
REMARK  7 active torsions:
REMARK  status: ('A' for Active; 'I' for Inactive)
REMARK    1  A    between atoms: C_1  and  O_2
REMARK    2  A    between atoms: O_2  and  C_3
REMARK    3  A    between atoms: C_6  and  C_7
REMARK    4  A    between atoms: C_9  and  C_10
REMARK    5  A    between atoms: N_12  and  O_13
REMARK    6  A    between atoms: C_17  and  O_18
REMARK    7  A    between atoms: O_18  and  C_19
REMARK                            x       y       z     vdW  Elec       q    Type
REMARK                         _______ _______ _______ _____ _____    ______ ____
ROOT
ATOM      1  C   UNL     1       3.294   6.309  18.937  0.00  0.00    +0.000 A 
ATOM      2  C   UNL     1       3.560   7.204  17.890  0.00  0.00    +0.000 A 
ATOM      3  C   UNL     1       4.462   6.880  16.880  0.00  0.00    +0.000 A 
ATOM      4  C   UNL     1       5.150   5.664  16.911  0.00  0.00    +0.000 A 
ATOM      5  C   UNL     1       5.005   4.856  18.044  0.00  0.00    +0.000 A 
ATOM      6  C   UNL     1       4.088   5.165  19.068  0.00  0.00    +0.000 A 
ENDROOT
BRANCH   4   7
ATOM      7  C   UNL     1       5.925   5.231  15.746  0.00  0.00    +0.000 A 
ATOM      8  C   UNL     1       5.556   4.341  14.704  0.00  0.00    +0.000 A 
ATOM      9  C   UNL     1       6.592   4.403  13.796  0.00  0.00    +0.000 A 
ATOM     10  O   UNL     1       7.541   5.242  14.280  0.00  0.00    +0.000 OA
ATOM     11  N   UNL     1       7.136   5.756  15.487  0.00  0.00    +0.000 NA
BRANCH   9  12
ATOM     12  C   UNL     1       6.788   3.786  12.515  0.00  0.00    +0.000 C 
ATOM     13  O   UNL     1       7.358   4.315  11.558  0.00  0.00    +0.000 OA
ATOM     14  N   UNL     1       6.288   2.505  12.415  0.00  0.00    +0.000 N 
ATOM     15  H   UNL     1       5.898   1.988  13.197  0.00  0.00    +0.000 HD
BRANCH  14  16
ATOM     16  O   UNL     1       6.523   1.798  11.216  0.00  0.00    +0.000 OA
ATOM     17  H   UNL     1       6.378   0.865  11.487  0.00  0.00    +0.000 HD
ENDBRANCH  14  16
ENDBRANCH   9  12
ENDBRANCH   4   7
BRANCH   1  19
ATOM     18  C   UNL     1       1.849   7.924  19.838  0.00  0.00    +0.000 C 
ATOM     19  O   UNL     1       2.269   6.554  19.814  0.00  0.00    +0.000 OA
ENDBRANCH   1  19
BRANCH   6  20
ATOM     20  O   UNL     1       4.135   4.248  20.076  0.00  0.00    +0.000 OA
BRANCH  20  21
ATOM     21  C   UNL     1       3.186   3.198  20.222  0.00  0.00    +0.000 C 
ATOM     22  C   UNL     1       2.084   3.579  21.203  0.00  0.00    +0.000 C 
ATOM     23  C   UNL     1       0.810   2.937  20.677  0.00  0.00    +0.000 C 
ATOM     24  C   UNL     1       0.998   2.763  19.179  0.00  0.00    +0.000 C 
ATOM     25  C   UNL     1       2.454   3.082  18.876  0.00  0.00    +0.000 C 
ENDBRANCH  20  21
ENDBRANCH   6  20
TORSDOF 6
ENDMDL
MODEL 2
REMARK VINA RESULT:      -8.0      0.779      1.114
REMARK  Name = 
REMARK  7 active torsions:
REMARK  status: ('A' for Active; 'I' for Inactive)
REMARK    1  A    between atoms: C_1  and  O_2
REMARK    2  A    between atoms: O_2  and  C_3
REMARK    3  A    between atoms: C_6  and  C_7
REMARK    4  A    between atoms: C_9  and  C_10
REMARK    5  A    between atoms: N_12  and  O_13
REMARK    6  A    between atoms: C_17  and  O_18
REMARK    7  A    between atoms: O_18  and  C_19
REMARK                            x       y       z     vdW  Elec       q    Type
REMARK                         _______ _______ _______ _____ _____    ______ ____
ROOT
ATOM      1  C   UNL     1       3.061   7.168  18.668  0.00  0.00    +0.000 A 
ATOM      2  C   UNL     1       3.547   7.949  17.608  0.00  0.00    +0.000 A 
ATOM      3  C   UNL     1       4.476   7.437  16.706  0.00  0.00    +0.000 A 
ATOM      4  C   UNL     1       4.972   6.140  16.863  0.00  0.00    +0.000 A 
ATOM      5  C   UNL     1       4.611   5.433  18.016  0.00  0.00    +0.000 A 
ATOM      6  C   UNL     1       3.664   5.933  18.931  0.00  0.00    +0.000 A 
ENDROOT
BRANCH   4   7
ATOM      7  C   UNL     1       5.773   5.530  15.800  0.00  0.00    +0.000 A 
ATOM      8  C   UNL     1       5.363   4.663  14.753  0.00  0.00    +0.000 A 
ATOM      9  C   UNL     1       6.479   4.509  13.957  0.00  0.00    +0.000 A 
ATOM     10  O   UNL     1       7.505   5.202  14.513  0.00  0.00    +0.000 OA
ATOM     11  N   UNL     1       7.075   5.834  15.654  0.00  0.00    +0.000 NA
BRANCH   9  12
ATOM     12  C   UNL     1       6.694   3.806  12.724  0.00  0.00    +0.000 C 
ATOM     13  O   UNL     1       7.429   4.192  11.814  0.00  0.00    +0.000 OA
ATOM     14  N   UNL     1       6.005   2.617  12.618  0.00  0.00    +0.000 N 
ATOM     15  H   UNL     1       5.464   2.206  13.372  0.00  0.00    +0.000 HD
BRANCH  14  16
ATOM     16  O   UNL     1       6.235   1.824  11.473  0.00  0.00    +0.000 OA
ATOM     17  H   UNL     1       6.107   0.912  11.816  0.00  0.00    +0.000 HD
ENDBRANCH  14  16
ENDBRANCH   9  12
ENDBRANCH   4   7
BRANCH   1  19
ATOM     18  C   UNL     1       1.517   8.896  19.034  0.00  0.00    +0.000 C 
ATOM     19  O   UNL     1       2.011   7.611  19.430  0.00  0.00    +0.000 OA
ENDBRANCH   1  19
BRANCH   6  20
ATOM     20  O   UNL     1       3.487   5.084  19.983  0.00  0.00    +0.000 OA
BRANCH  20  21
ATOM     21  C   UNL     1       2.207   4.684  20.457  0.00  0.00    +0.000 C 
ATOM     22  C   UNL     1       1.442   3.903  19.395  0.00  0.00    +0.000 C 
ATOM     23  C   UNL     1       0.636   2.851  20.141  0.00  0.00    +0.000 C 
ATOM     24  C   UNL     1       1.369   2.591  21.448  0.00  0.00    +0.000 C 
ATOM     25  C   UNL     1       2.456   3.648  21.564  0.00  0.00    +0.000 C 
ENDBRANCH  20  21
ENDBRANCH   6  20
TORSDOF 6
ENDMDL
MODEL 3
REMARK VINA RESULT:      -8.0      3.358      7.309
REMARK  Name = 
REMARK  7 active torsions:
REMARK  status: ('A' for Active; 'I' for Inactive)
REMARK    1  A    between atoms: C_1  and  O_2
REMARK    2  A    between atoms: O_2  and  C_3
REMARK    3  A    between atoms: C_6  and  C_7
REMARK    4  A    between atoms: C_9  and  C_10
REMARK    5  A    between atoms: N_12  and  O_13
REMARK    6  A    between atoms: C_17  and  O_18
REMARK    7  A    between atoms: O_18  and  C_19
REMARK                            x       y       z     vdW  Elec       q    Type
REMARK                         _______ _______ _______ _____ _____    ______ ____
ROOT
ATOM      1  C   UNL     1       4.546   4.542  16.787  0.00  0.00    +0.000 A 
ATOM      2  C   UNL     1       4.815   5.916  16.690  0.00  0.00    +0.000 A 
ATOM      3  C   UNL     1       4.027   6.850  17.357  0.00  0.00    +0.000 A 
ATOM      4  C   UNL     1       2.925   6.436  18.110  0.00  0.00    +0.000 A 
ATOM      5  C   UNL     1       2.566   5.084  18.062  0.00  0.00    +0.000 A 
ATOM      6  C   UNL     1       3.360   4.126  17.401  0.00  0.00    +0.000 A 
ENDROOT
BRANCH   4   7
ATOM      7  C   UNL     1       2.235   7.389  18.983  0.00  0.00    +0.000 A 
ATOM      8  C   UNL     1       1.914   7.273  20.361  0.00  0.00    +0.000 A 
ATOM      9  C   UNL     1       1.403   8.505  20.714  0.00  0.00    +0.000 A 
ATOM     10  O   UNL     1       1.377   9.294  19.611  0.00  0.00    +0.000 OA
ATOM     11  N   UNL     1       1.888   8.609  18.536  0.00  0.00    +0.000 NA
BRANCH   9  12
ATOM     12  C   UNL     1       0.956   9.038  21.969  0.00  0.00    +0.000 C 
ATOM     13  O   UNL     1       1.683   9.581  22.803  0.00  0.00    +0.000 OA
ATOM     14  N   UNL     1      -0.399   8.909  22.194  0.00  0.00    +0.000 N 
ATOM     15  H   UNL     1      -1.056   8.559  21.504  0.00  0.00    +0.000 HD
BRANCH  14  16
ATOM     16  O   UNL     1      -0.930   9.490  23.366  0.00  0.00    +0.000 OA
ATOM     17  H   UNL     1      -1.388  10.287  23.020  0.00  0.00    +0.000 HD
ENDBRANCH  14  16
ENDBRANCH   9  12
ENDBRANCH   4   7
BRANCH   1  19
ATOM     18  C   UNL     1       6.110   4.066  15.103  0.00  0.00    +0.000 C 
ATOM     19  O   UNL     1       5.435   3.625  16.288  0.00  0.00    +0.000 OA
ENDBRANCH   1  19
BRANCH   6  20
ATOM     20  O   UNL     1       2.804   2.883  17.469  0.00  0.00    +0.000 OA
BRANCH  20  21
ATOM     21  C   UNL     1       2.581   2.193  18.693  0.00  0.00    +0.000 C 
ATOM     22  C   UNL     1       3.543   2.663  19.777  0.00  0.00    +0.000 C 
ATOM     23  C   UNL     1       2.765   2.613  21.083  0.00  0.00    +0.000 C 
ATOM     24  C   UNL     1       1.296   2.751  20.718  0.00  0.00    +0.000 C 
ATOM     25  C   UNL     1       1.204   2.645  19.204  0.00  0.00    +0.000 C 
ENDBRANCH  20  21
ENDBRANCH   6  20
TORSDOF 6
ENDMDL
MODEL 4
REMARK VINA RESULT:      -7.9      3.647      7.012
REMARK  Name = 
REMARK  7 active torsions:
REMARK  status: ('A' for Active; 'I' for Inactive)
REMARK    1  A    between atoms: C_1  and  O_2
REMARK    2  A    between atoms: O_2  and  C_3
REMARK    3  A    between atoms: C_6  and  C_7
REMARK    4  A    between atoms: C_9  and  C_10
REMARK    5  A    between atoms: N_12  and  O_13
REMARK    6  A    between atoms: C_17  and  O_18
REMARK    7  A    between atoms: O_18  and  C_19
REMARK                            x       y       z     vdW  Elec       q    Type
REMARK                         _______ _______ _______ _____ _____    ______ ____
ROOT
ATOM      1  C   UNL     1       4.545   4.906  17.107  0.00  0.00    +0.000 A 
ATOM      2  C   UNL     1       4.920   6.232  16.841  0.00  0.00    +0.000 A 
ATOM      3  C   UNL     1       4.110   7.298  17.227  0.00  0.00    +0.000 A 
ATOM      4  C   UNL     1       2.885   7.062  17.857  0.00  0.00    +0.000 A 
ATOM      5  C   UNL     1       2.445   5.738  17.963  0.00  0.00    +0.000 A 
ATOM      6  C   UNL     1       3.258   4.650  17.588  0.00  0.00    +0.000 A 
ENDROOT
BRANCH   4   7
ATOM      7  C   UNL     1       2.143   8.175  18.454  0.00  0.00    +0.000 A 
ATOM      8  C   UNL     1       1.592   9.323  17.828  0.00  0.00    +0.000 A 
ATOM      9  C   UNL     1       0.878   9.963  18.820  0.00  0.00    +0.000 A 
ATOM     10  O   UNL     1       1.028   9.270  19.976  0.00  0.00    +0.000 OA
ATOM     11  N   UNL     1       1.811   8.163  19.757  0.00  0.00    +0.000 NA
BRANCH   9  12
ATOM     12  C   UNL     1       0.054  11.139  18.809  0.00  0.00    +0.000 C 
ATOM     13  O   UNL     1       0.021  11.984  19.705  0.00  0.00    +0.000 OA
ATOM     14  N   UNL     1      -0.727  11.278  17.681  0.00  0.00    +0.000 N 
ATOM     15  H   UNL     1      -0.668  10.665  16.873  0.00  0.00    +0.000 HD
BRANCH  14  16
ATOM     16  O   UNL     1      -1.497  12.454  17.554  0.00  0.00    +0.000 OA
ATOM     17  H   UNL     1      -2.273  12.263  18.125  0.00  0.00    +0.000 HD
ENDBRANCH  14  16
ENDBRANCH   9  12
ENDBRANCH   4   7
BRANCH   1  19
ATOM     18  C   UNL     1       6.448   4.189  15.936  0.00  0.00    +0.000 C 
ATOM     19  O   UNL     1       5.432   3.882  16.899  0.00  0.00    +0.000 OA
ENDBRANCH   1  19
BRANCH   6  20
ATOM     20  O   UNL     1       2.613   3.461  17.761  0.00  0.00    +0.000 OA
BRANCH  20  21
ATOM     21  C   UNL     1       2.559   2.777  19.008  0.00  0.00    +0.000 C 
ATOM     22  C   UNL     1       3.332   3.526  20.086  0.00  0.00    +0.000 C 
ATOM     23  C   UNL     1       2.568   3.308  21.383  0.00  0.00    +0.000 C 
ATOM     24  C   UNL     1       1.125   3.028  20.994  0.00  0.00    +0.000 C 
ATOM     25  C   UNL     1       1.100   2.852  19.483  0.00  0.00    +0.000 C 
ENDBRANCH  20  21
ENDBRANCH   6  20
TORSDOF 6
ENDMDL
MODEL 5
REMARK VINA RESULT:      -7.9      1.022      1.349
REMARK  Name = 
REMARK  7 active torsions:
REMARK  status: ('A' for Active; 'I' for Inactive)
REMARK    1  A    between atoms: C_1  and  O_2
REMARK    2  A    between atoms: O_2  and  C_3
REMARK    3  A    between atoms: C_6  and  C_7
REMARK    4  A    between atoms: C_9  and  C_10
REMARK    5  A    between atoms: N_12  and  O_13
REMARK    6  A    between atoms: C_17  and  O_18
REMARK    7  A    between atoms: O_18  and  C_19
REMARK                            x       y       z     vdW  Elec       q    Type
REMARK                         _______ _______ _______ _____ _____    ______ ____
ROOT
ATOM      1  C   UNL     1       2.845   5.773  18.569  0.00  0.00    +0.000 A 
ATOM      2  C   UNL     1       3.963   6.597  18.369  0.00  0.00    +0.000 A 
ATOM      3  C   UNL     1       4.936   6.270  17.428  0.00  0.00    +0.000 A 
ATOM      4  C   UNL     1       4.833   5.091  16.686  0.00  0.00    +0.000 A 
ATOM      5  C   UNL     1       3.807   4.196  17.013  0.00  0.00    +0.000 A 
ATOM      6  C   UNL     1       2.810   4.518  17.954  0.00  0.00    +0.000 A 
ENDROOT
BRANCH   4   7
ATOM      7  C   UNL     1       5.730   4.859  15.552  0.00  0.00    +0.000 A 
ATOM      8  C   UNL     1       5.551   4.013  14.426  0.00  0.00    +0.000 A 
ATOM      9  C   UNL     1       6.623   4.284  13.601  0.00  0.00    +0.000 A 
ATOM     10  O   UNL     1       7.417   5.200  14.210  0.00  0.00    +0.000 OA
ATOM     11  N   UNL     1       6.871   5.558  15.418  0.00  0.00    +0.000 NA
BRANCH   9  12
ATOM     12  C   UNL     1       6.981   3.802  12.297  0.00  0.00    +0.000 C 
ATOM     13  O   UNL     1       7.524   4.478  11.421  0.00  0.00    +0.000 OA
ATOM     14  N   UNL     1       6.675   2.476  12.074  0.00  0.00    +0.000 N 
ATOM     15  H   UNL     1       6.317   1.850  12.789  0.00  0.00    +0.000 HD
BRANCH  14  16
ATOM     16  O   UNL     1       7.078   1.904  10.848  0.00  0.00    +0.000 OA
ATOM     17  H   UNL     1       7.740   1.236  11.132  0.00  0.00    +0.000 HD
ENDBRANCH  14  16
ENDBRANCH   9  12
ENDBRANCH   4   7
BRANCH   1  19
ATOM     18  C   UNL     1       2.073   7.420  20.052  0.00  0.00    +0.000 C 
ATOM     19  O   UNL     1       1.804   6.198  19.353  0.00  0.00    +0.000 OA
ENDBRANCH   1  19
BRANCH   6  20
ATOM     20  O   UNL     1       1.931   3.490  18.122  0.00  0.00    +0.000 OA
BRANCH  20  21
ATOM     21  C   UNL     1       1.975   2.597  19.229  0.00  0.00    +0.000 C 
ATOM     22  C   UNL     1       3.234   2.808  20.061  0.00  0.00    +0.000 C 
ATOM     23  C   UNL     1       2.833   2.556  21.506  0.00  0.00    +0.000 C 
ATOM     24  C   UNL     1       1.341   2.834  21.597  0.00  0.00    +0.000 C 
ATOM     25  C   UNL     1       0.838   3.016  20.173  0.00  0.00    +0.000 C 
ENDBRANCH  20  21
ENDBRANCH   6  20
TORSDOF 6
ENDMDL
MODEL 6
REMARK VINA RESULT:      -7.9      4.064      7.389
REMARK  Name = 
REMARK  7 active torsions:
REMARK  status: ('A' for Active; 'I' for Inactive)
REMARK    1  A    between atoms: C_1  and  O_2
REMARK    2  A    between atoms: O_2  and  C_3
REMARK    3  A    between atoms: C_6  and  C_7
REMARK    4  A    between atoms: C_9  and  C_10
REMARK    5  A    between atoms: N_12  and  O_13
REMARK    6  A    between atoms: C_17  and  O_18
REMARK    7  A    between atoms: O_18  and  C_19
REMARK                            x       y       z     vdW  Elec       q    Type
REMARK                         _______ _______ _______ _____ _____    ______ ____
ROOT
ATOM      1  C   UNL     1       3.391   3.328  19.676  0.00  0.00    +0.000 A 
ATOM      2  C   UNL     1       2.265   3.666  20.442  0.00  0.00    +0.000 A 
ATOM      3  C   UNL     1       1.855   4.991  20.568  0.00  0.00    +0.000 A 
ATOM      4  C   UNL     1       2.583   6.017  19.960  0.00  0.00    +0.000 A 
ATOM      5  C   UNL     1       3.795   5.686  19.343  0.00  0.00    +0.000 A 
ATOM      6  C   UNL     1       4.217   4.350  19.198  0.00  0.00    +0.000 A 
ENDROOT
BRANCH   4   7
ATOM      7  C   UNL     1       2.033   7.374  19.908  0.00  0.00    +0.000 A 
ATOM      8  C   UNL     1       2.008   8.290  18.824  0.00  0.00    +0.000 A 
ATOM      9  C   UNL     1       1.249   9.351  19.270  0.00  0.00    +0.000 A 
ATOM     10  O   UNL     1       0.879   9.109  20.552  0.00  0.00    +0.000 OA
ATOM     11  N   UNL     1       1.363   7.888  20.954  0.00  0.00    +0.000 NA
BRANCH   9  12
ATOM     12  C   UNL     1       0.809  10.558  18.629  0.00  0.00    +0.000 C 
ATOM     13  O   UNL     1      -0.368  10.850  18.409  0.00  0.00    +0.000 OA
ATOM     14  N   UNL     1       1.827  11.414  18.265  0.00  0.00    +0.000 N 
ATOM     15  H   UNL     1       2.802  11.269  18.507  0.00  0.00    +0.000 HD
BRANCH  14  16
ATOM     16  O   UNL     1       1.470  12.663  17.711  0.00  0.00    +0.000 OA
ATOM     17  H   UNL     1       1.902  13.299  18.322  0.00  0.00    +0.000 HD
ENDBRANCH  14  16
ENDBRANCH   9  12
ENDBRANCH   4   7
BRANCH   1  19
ATOM     18  C   UNL     1       3.212   1.586  18.113  0.00  0.00    +0.000 C 
ATOM     19  O   UNL     1       3.672   2.014  19.402  0.00  0.00    +0.000 OA
ENDBRANCH   1  19
BRANCH   6  20
ATOM     20  O   UNL     1       5.433   4.272  18.586  0.00  0.00    +0.000 OA
BRANCH  20  21
ATOM     21  C   UNL     1       5.740   4.948  17.372  0.00  0.00    +0.000 C 
ATOM     22  C   UNL     1       7.178   4.685  16.941  0.00  0.00    +0.000 C 
ATOM     23  C   UNL     1       7.161   4.636  15.420  0.00  0.00    +0.000 C 
ATOM     24  C   UNL     1       5.752   4.233  15.015  0.00  0.00    +0.000 C 
ATOM     25  C   UNL     1       4.900   4.277  16.274  0.00  0.00    +0.000 C 
ENDBRANCH  20  21
ENDBRANCH   6  20
TORSDOF 6
ENDMDL
MODEL 7
REMARK VINA RESULT:      -7.9      0.972      1.171
REMARK  Name = 
REMARK  7 active torsions:
REMARK  status: ('A' for Active; 'I' for Inactive)
REMARK    1  A    between atoms: C_1  and  O_2
REMARK    2  A    between atoms: O_2  and  C_3
REMARK    3  A    between atoms: C_6  and  C_7
REMARK    4  A    between atoms: C_9  and  C_10
REMARK    5  A    between atoms: N_12  and  O_13
REMARK    6  A    between atoms: C_17  and  O_18
REMARK    7  A    between atoms: O_18  and  C_19
REMARK                            x       y       z     vdW  Elec       q    Type
REMARK                         _______ _______ _______ _____ _____    ______ ____
ROOT
ATOM      1  C   UNL     1       2.451   6.871  19.288  0.00  0.00    +0.000 A 
ATOM      2  C   UNL     1       2.851   7.721  18.245  0.00  0.00    +0.000 A 
ATOM      3  C   UNL     1       3.892   7.367  17.390  0.00  0.00    +0.000 A 
ATOM      4  C   UNL     1       4.584   6.169  17.578  0.00  0.00    +0.000 A 
ATOM      5  C   UNL     1       4.291   5.413  18.719  0.00  0.00    +0.000 A 
ATOM      6  C   UNL     1       3.234   5.752  19.587  0.00  0.00    +0.000 A 
ENDROOT
BRANCH   4   7
ATOM      7  C   UNL     1       5.522   5.697  16.558  0.00  0.00    +0.000 A 
ATOM      8  C   UNL     1       5.259   4.980  15.361  0.00  0.00    +0.000 A 
ATOM      9  C   UNL     1       6.471   4.923  14.704  0.00  0.00    +0.000 A 
ATOM     10  O   UNL     1       7.409   5.528  15.475  0.00  0.00    +0.000 OA
ATOM     11  N   UNL     1       6.830   6.007  16.624  0.00  0.00    +0.000 NA
BRANCH   9  12
ATOM     12  C   UNL     1       6.850   4.387  13.428  0.00  0.00    +0.000 C 
ATOM     13  O   UNL     1       7.643   4.920  12.649  0.00  0.00    +0.000 OA
ATOM     14  N   UNL     1       6.256   3.183  13.114  0.00  0.00    +0.000 N 
ATOM     15  H   UNL     1       5.674   2.655  13.757  0.00  0.00    +0.000 HD
BRANCH  14  16
ATOM     16  O   UNL     1       6.648   2.548  11.916  0.00  0.00    +0.000 OA
ATOM     17  H   UNL     1       7.623   2.482  12.018  0.00  0.00    +0.000 HD
ENDBRANCH  14  16
ENDBRANCH   9  12
ENDBRANCH   4   7
BRANCH   1  19
ATOM     18  C   UNL     1       1.454   8.209  20.938  0.00  0.00    +0.000 C 
ATOM     19  O   UNL     1       1.309   7.137  19.998  0.00  0.00    +0.000 OA
ENDBRANCH   1  19
BRANCH   6  20
ATOM     20  O   UNL     1       3.150   4.885  20.636  0.00  0.00    +0.000 OA
BRANCH  20  21
ATOM     21  C   UNL     1       2.421   3.664  20.584  0.00  0.00    +0.000 C 
ATOM     22  C   UNL     1       1.075   3.851  19.894  0.00  0.00    +0.000 C 
ATOM     23  C   UNL     1       0.809   2.562  19.131  0.00  0.00    +0.000 C 
ATOM     24  C   UNL     1       2.165   1.940  18.845  0.00  0.00    +0.000 C 
ATOM     25  C   UNL     1       3.193   2.735  19.635  0.00  0.00    +0.000 C 
ENDBRANCH  20  21
ENDBRANCH   6  20
TORSDOF 6
ENDMDL
MODEL 8
REMARK VINA RESULT:      -7.8      1.751      3.829
REMARK  Name = 
REMARK  7 active torsions:
REMARK  status: ('A' for Active; 'I' for Inactive)
REMARK    1  A    between atoms: C_1  and  O_2
REMARK    2  A    between atoms: O_2  and  C_3
REMARK    3  A    between atoms: C_6  and  C_7
REMARK    4  A    between atoms: C_9  and  C_10
REMARK    5  A    between atoms: N_12  and  O_13
REMARK    6  A    between atoms: C_17  and  O_18
REMARK    7  A    between atoms: O_18  and  C_19
REMARK                            x       y       z     vdW  Elec       q    Type
REMARK                         _______ _______ _______ _____ _____    ______ ____
ROOT
ATOM      1  C   UNL     1       1.573   3.896  19.339  0.00  0.00    +0.000 A 
ATOM      2  C   UNL     1       1.782   2.956  18.318  0.00  0.00    +0.000 A 
ATOM      3  C   UNL     1       2.823   3.106  17.406  0.00  0.00    +0.000 A 
ATOM      4  C   UNL     1       3.662   4.221  17.469  0.00  0.00    +0.000 A 
ATOM      5  C   UNL     1       3.342   5.234  18.380  0.00  0.00    +0.000 A 
ATOM      6  C   UNL     1       2.299   5.092  19.317  0.00  0.00    +0.000 A 
ENDROOT
BRANCH   4   7
ATOM      7  C   UNL     1       4.880   4.268  16.657  0.00  0.00    +0.000 A 
ATOM      8  C   UNL     1       5.015   4.388  15.249  0.00  0.00    +0.000 A 
ATOM      9  C   UNL     1       6.369   4.531  15.030  0.00  0.00    +0.000 A 
ATOM     10  O   UNL     1       7.010   4.457  16.223  0.00  0.00    +0.000 OA
ATOM     11  N   UNL     1       6.095   4.292  17.233  0.00  0.00    +0.000 NA
BRANCH   9  12
ATOM     12  C   UNL     1       7.134   4.751  13.835  0.00  0.00    +0.000 C 
ATOM     13  O   UNL     1       6.899   4.228  12.744  0.00  0.00    +0.000 OA
ATOM     14  N   UNL     1       8.188   5.627  13.984  0.00  0.00    +0.000 N 
ATOM     15  H   UNL     1       8.367   6.157  14.831  0.00  0.00    +0.000 HD
BRANCH  14  16
ATOM     16  O   UNL     1       8.932   5.964  12.833  0.00  0.00    +0.000 OA
ATOM     17  H   UNL     1       8.298   5.776  12.106  0.00  0.00    +0.000 HD
ENDBRANCH  14  16
ENDBRANCH   9  12
ENDBRANCH   4   7
BRANCH   1  19
ATOM     18  C   UNL     1       1.209   2.843  21.404  0.00  0.00    +0.000 C 
ATOM     19  O   UNL     1       0.673   3.642  20.341  0.00  0.00    +0.000 OA
ENDBRANCH   1  19
BRANCH   6  20
ATOM     20  O   UNL     1       2.160   6.209  20.085  0.00  0.00    +0.000 OA
BRANCH  20  21
ATOM     21  C   UNL     1       2.406   7.525  19.602  0.00  0.00    +0.000 C 
ATOM     22  C   UNL     1       1.967   7.673  18.150  0.00  0.00    +0.000 C 
ATOM     23  C   UNL     1       1.442   9.094  18.010  0.00  0.00    +0.000 C 
ATOM     24  C   UNL     1       0.984   9.525  19.394  0.00  0.00    +0.000 C 
ATOM     25  C   UNL     1       1.454   8.456  20.369  0.00  0.00    +0.000 C 
ENDBRANCH  20  21
ENDBRANCH   6  20
TORSDOF 6
ENDMDL
MODEL 9
REMARK VINA RESULT:      -7.8      1.562      2.236
REMARK  Name = 
REMARK  7 active torsions:
REMARK  status: ('A' for Active; 'I' for Inactive)
REMARK    1  A    between atoms: C_1  and  O_2
REMARK    2  A    between atoms: O_2  and  C_3
REMARK    3  A    between atoms: C_6  and  C_7
REMARK    4  A    between atoms: C_9  and  C_10
REMARK    5  A    between atoms: N_12  and  O_13
REMARK    6  A    between atoms: C_17  and  O_18
REMARK    7  A    between atoms: O_18  and  C_19
REMARK                            x       y       z     vdW  Elec       q    Type
REMARK                         _______ _______ _______ _____ _____    ______ ____
ROOT
ATOM      1  C   UNL     1       2.069   7.093  19.839  0.00  0.00    +0.000 A 
ATOM      2  C   UNL     1       2.525   7.842  18.744  0.00  0.00    +0.000 A 
ATOM      3  C   UNL     1       3.400   7.291  17.811  0.00  0.00    +0.000 A 
ATOM      4  C   UNL     1       3.871   5.985  17.970  0.00  0.00    +0.000 A 
ATOM      5  C   UNL     1       3.546   5.308  19.151  0.00  0.00    +0.000 A 
ATOM      6  C   UNL     1       2.653   5.849  20.098  0.00  0.00    +0.000 A 
ENDROOT
BRANCH   4   7
ATOM      7  C   UNL     1       4.609   5.335  16.884  0.00  0.00    +0.000 A 
ATOM      8  C   UNL     1       5.322   5.924  15.808  0.00  0.00    +0.000 A 
ATOM      9  C   UNL     1       5.945   4.870  15.172  0.00  0.00    +0.000 A 
ATOM     10  O   UNL     1       5.593   3.719  15.798  0.00  0.00    +0.000 OA
ATOM     11  N   UNL     1       4.765   4.000  16.857  0.00  0.00    +0.000 NA
BRANCH   9  12
ATOM     12  C   UNL     1       6.849   4.815  14.058  0.00  0.00    +0.000 C 
ATOM     13  O   UNL     1       6.677   4.134  13.045  0.00  0.00    +0.000 OA
ATOM     14  N   UNL     1       7.967   5.611  14.190  0.00  0.00    +0.000 N 
ATOM     15  H   UNL     1       8.111   6.262  14.956  0.00  0.00    +0.000 HD
BRANCH  14  16
ATOM     16  O   UNL     1       8.858   5.681  13.098  0.00  0.00    +0.000 OA
ATOM     17  H   UNL     1       8.268   5.516  12.330  0.00  0.00    +0.000 HD
ENDBRANCH  14  16
ENDBRANCH   9  12
ENDBRANCH   4   7
BRANCH   1  19
ATOM     18  C   UNL     1       0.986   9.006  20.659  0.00  0.00    +0.000 C 
ATOM     19  O   UNL     1       1.065   7.575  20.638  0.00  0.00    +0.000 OA
ENDBRANCH   1  19
BRANCH   6  20
ATOM     20  O   UNL     1       2.503   5.023  21.173  0.00  0.00    +0.000 OA
BRANCH  20  21
ATOM     21  C   UNL     1       1.836   3.768  21.107  0.00  0.00    +0.000 C 
ATOM     22  C   UNL     1       0.722   3.787  20.067  0.00  0.00    +0.000 C 
ATOM     23  C   UNL     1       0.692   2.394  19.456  0.00  0.00    +0.000 C 
ATOM     24  C   UNL     1       2.087   1.814  19.630  0.00  0.00    +0.000 C 
ATOM     25  C   UNL     1       2.850   2.764  20.540  0.00  0.00    +0.000 C 
ENDBRANCH  20  21
ENDBRANCH   6  20
TORSDOF 6
ENDMDL
