MODEL 1
REMARK VINA RESULT:      -7.0      0.000      0.000
REMARK  Name = 
REMARK  6 active torsions:
REMARK  status: ('A' for Active; 'I' for Inactive)
REMARK    1  A    between atoms: C_1  and  C_2
REMARK    2  A    between atoms: N_7  and  C_8
REMARK    3  A    between atoms: C_14  and  C_15
REMARK    4  A    between atoms: C_15  and  N_16
REMARK    5  A    between atoms: C_22  and  C_23
REMARK    6  A    between atoms: C_27  and  C_28
REMARK                            x       y       z     vdW  Elec       q    Type
REMARK                         _______ _______ _______ _____ _____    ______ ____
ROOT
ATOM      1  C   UNL     1      -0.639  12.278  21.237  0.00  0.00    +0.000 A 
ATOM      2  N   UNL     1       0.075  13.375  20.930  0.00  0.00    +0.000 NA
ATOM      3  C   UNL     1       1.282  13.266  20.402  0.00  0.00    +0.000 A 
ATOM      4  N   UNL     1       2.001  14.411  20.171  0.00  0.00    +0.000 N 
ATOM      5  C   UNL     1       1.310  15.673  19.928  0.00  0.00    +0.000 C 
ATOM      6  C   UNL     1       1.612  16.164  18.509  0.00  0.00    +0.000 C 
ATOM      7  C   UNL     1       3.123  16.205  18.207  0.00  0.00    +0.000 C 
ATOM      8  C   UNL     1       3.728  14.822  18.503  0.00  0.00    +0.000 C 
ATOM      9  C   UNL     1       3.424  14.328  19.915  0.00  0.00    +0.000 C 
ATOM     10  N   UNL     1       1.830  12.076  20.132  0.00  0.00    +0.000 NA
ATOM     11  C   UNL     1       1.145  10.973  20.370  0.00  0.00    +0.000 A 
ATOM     12  N   UNL     1       1.728   9.807  20.090  0.00  0.00    +0.000 NA
ATOM     13  C   UNL     1       1.089   8.636  20.333  0.00  0.00    +0.000 A 
ATOM     14  C   UNL     1      -0.189   8.596  20.852  0.00  0.00    +0.000 A 
ATOM     15  C   UNL     1      -0.782   9.783  21.134  0.00  0.00    +0.000 A 
ATOM     16  C   UNL     1      -0.136  11.017  20.921  0.00  0.00    +0.000 A 
ENDROOT
BRANCH   1  23
ATOM     17  C   UNL     1      -3.038  12.573  19.563  0.00  0.00    +0.000 C 
ATOM     18  C   UNL     1      -3.047  12.957  21.044  0.00  0.00    +0.000 C 
ATOM     19  C   UNL     1      -4.310  12.351  21.702  0.00  0.00    +0.000 C 
ATOM     20  O   UNL     1      -4.391  12.645  23.111  0.00  0.00    +0.000 OA
ATOM     21  C   UNL     1      -3.261  12.087  23.786  0.00  0.00    +0.000 C 
ATOM     22  C   UNL     1      -1.980  12.693  23.263  0.00  0.00    +0.000 C 
ATOM     23  N   UNL     1      -1.863  12.506  21.815  0.00  0.00    +0.000 N 
ENDBRANCH   1  23
BRANCH  13  24
ATOM     24  C   UNL     1       1.785   7.394  19.998  0.00  0.00    +0.000 A 
ATOM     25  C   UNL     1       2.734   7.345  18.973  0.00  0.00    +0.000 A 
ATOM     26  C   UNL     1       3.371   6.148  18.645  0.00  0.00    +0.000 A 
ATOM     27  C   UNL     1       3.069   4.969  19.343  0.00  0.00    +0.000 A 
ATOM     28  C   UNL     1       2.124   4.985  20.363  0.00  0.00    +0.000 A 
ATOM     29  C   UNL     1       1.487   6.199  20.683  0.00  0.00    +0.000 A 
BRANCH  28  30
ATOM     30  C   UNL     1       1.719   3.793  21.163  0.00  0.00    +0.000 C 
ATOM     31  N   UNL     1       0.721   2.999  20.674  0.00  0.00    +0.000 N 
ATOM     32  O   UNL     1       2.241   3.525  22.243  0.00  0.00    +0.000 OA
ATOM     33  H   UNL     1       0.188   3.183  19.840  0.00  0.00    +0.000 HD
ATOM     34  H   UNL     1       0.437   2.223  21.257  0.00  0.00    +0.000 HD
ENDBRANCH  28  30
ENDBRANCH  13  24
BRANCH   7  35
ATOM     35  C   UNL     1       3.876  17.313  18.970  0.00  0.00    +0.000 C 
BRANCH  35  36
ATOM     36  N   UNL     1       5.323  17.193  18.823  0.00  0.00    +0.000 NA
ATOM     37  H   UNL     1       5.583  16.208  18.773  0.00  0.00    +0.000 HD
ATOM     38  H   UNL     1       5.778  17.560  19.659  0.00  0.00    +0.000 HD
ENDBRANCH  35  36
ENDBRANCH   7  35
TORSDOF 5
ENDMDL
MODEL 2
REMARK VINA RESULT:      -6.8      2.556      5.361
REMARK  Name = 
REMARK  6 active torsions:
REMARK  status: ('A' for Active; 'I' for Inactive)
REMARK    1  A    between atoms: C_1  and  C_2
REMARK    2  A    between atoms: N_7  and  C_8
REMARK    3  A    between atoms: C_14  and  C_15
REMARK    4  A    between atoms: C_15  and  N_16
REMARK    5  A    between atoms: C_22  and  C_23
REMARK    6  A    between atoms: C_27  and  C_28
REMARK                            x       y       z     vdW  Elec       q    Type
REMARK                         _______ _______ _______ _____ _____    ______ ____
ROOT
ATOM      1  C   UNL     1      -1.078  12.563  21.091  0.00  0.00    +0.000 A 
ATOM      2  N   UNL     1      -2.267  12.748  20.492  0.00  0.00    +0.000 NA
ATOM      3  C   UNL     1      -2.652  11.959  19.503  0.00  0.00    +0.000 A 
ATOM      4  N   UNL     1      -3.841  12.229  18.875  0.00  0.00    +0.000 N 
ATOM      5  C   UNL     1      -4.909  12.919  19.593  0.00  0.00    +0.000 C 
ATOM      6  C   UNL     1      -6.122  11.994  19.731  0.00  0.00    +0.000 C 
ATOM      7  C   UNL     1      -6.559  11.389  18.382  0.00  0.00    +0.000 C 
ATOM      8  C   UNL     1      -5.349  10.697  17.731  0.00  0.00    +0.000 C 
ATOM      9  C   UNL     1      -4.137  11.615  17.597  0.00  0.00    +0.000 C 
ATOM     10  N   UNL     1      -1.895  10.942  19.076  0.00  0.00    +0.000 NA
ATOM     11  C   UNL     1      -0.743  10.692  19.668  0.00  0.00    +0.000 A 
ATOM     12  N   UNL     1      -0.017   9.671  19.211  0.00  0.00    +0.000 NA
ATOM     13  C   UNL     1       1.187   9.375  19.758  0.00  0.00    +0.000 A 
ATOM     14  C   UNL     1       1.702  10.093  20.820  0.00  0.00    +0.000 A 
ATOM     15  C   UNL     1       0.962  11.129  21.286  0.00  0.00    +0.000 A 
ATOM     16  C   UNL     1      -0.280  11.482  20.721  0.00  0.00    +0.000 A 
ENDROOT
BRANCH   1  23
ATOM     17  C   UNL     1       0.682  14.847  20.514  0.00  0.00    +0.000 C 
ATOM     18  C   UNL     1       0.336  14.451  21.950  0.00  0.00    +0.000 C 
ATOM     19  C   UNL     1      -0.071  15.727  22.728  0.00  0.00    +0.000 C 
ATOM     20  O   UNL     1      -0.438  15.444  24.093  0.00  0.00    +0.000 OA
ATOM     21  C   UNL     1      -1.566  14.566  24.118  0.00  0.00    +0.000 C 
ATOM     22  C   UNL     1      -1.226  13.252  23.453  0.00  0.00    +0.000 C 
ATOM     23  N   UNL     1      -0.763  13.462  22.079  0.00  0.00    +0.000 N 
ENDBRANCH   1  23
BRANCH  13  24
ATOM     24  C   UNL     1       1.928   8.239  19.211  0.00  0.00    +0.000 A 
ATOM     25  C   UNL     1       2.606   8.331  17.993  0.00  0.00    +0.000 A 
ATOM     26  C   UNL     1       3.286   7.232  17.469  0.00  0.00    +0.000 A 
ATOM     27  C   UNL     1       3.303   6.013  18.161  0.00  0.00    +0.000 A 
ATOM     28  C   UNL     1       2.634   5.889  19.373  0.00  0.00    +0.000 A 
ATOM     29  C   UNL     1       1.948   7.004  19.890  0.00  0.00    +0.000 A 
BRANCH  28  30
ATOM     30  C   UNL     1       2.578   4.640  20.188  0.00  0.00    +0.000 C 
ATOM     31  N   UNL     1       3.266   3.549  19.742  0.00  0.00    +0.000 N 
ATOM     32  O   UNL     1       1.922   4.569  21.225  0.00  0.00    +0.000 OA
ATOM     33  H   UNL     1       3.765   3.494  18.869  0.00  0.00    +0.000 HD
ATOM     34  H   UNL     1       3.176   2.705  20.291  0.00  0.00    +0.000 HD
ENDBRANCH  28  30
ENDBRANCH  13  24
BRANCH   7  35
ATOM     35  C   UNL     1      -7.192  12.415  17.420  0.00  0.00    +0.000 C 
BRANCH  35  36
ATOM     36  N   UNL     1      -7.917  13.462  18.134  0.00  0.00    +0.000 NA
ATOM     37  H   UNL     1      -8.378  14.078  17.465  0.00  0.00    +0.000 HD
ATOM     38  H   UNL     1      -7.252  14.046  18.641  0.00  0.00    +0.000 HD
ENDBRANCH  35  36
ENDBRANCH   7  35
TORSDOF 5
ENDMDL
MODEL 3
REMARK VINA RESULT:      -6.7      5.891     10.187
REMARK  Name = 
REMARK  6 active torsions:
REMARK  status: ('A' for Active; 'I' for Inactive)
REMARK    1  A    between atoms: C_1  and  C_2
REMARK    2  A    between atoms: N_7  and  C_8
REMARK    3  A    between atoms: C_14  and  C_15
REMARK    4  A    between atoms: C_15  and  N_16
REMARK    5  A    between atoms: C_22  and  C_23
REMARK    6  A    between atoms: C_27  and  C_28
REMARK                            x       y       z     vdW  Elec       q    Type
REMARK                         _______ _______ _______ _____ _____    ______ ____
ROOT
ATOM      1  C   UNL     1       7.664  14.442  19.453  0.00  0.00    +0.000 A 
ATOM      2  N   UNL     1       7.981  14.164  20.730  0.00  0.00    +0.000 NA
ATOM      3  C   UNL     1       7.078  14.283  21.688  0.00  0.00    +0.000 A 
ATOM      4  N   UNL     1       7.465  14.058  22.985  0.00  0.00    +0.000 N 
ATOM      5  C   UNL     1       8.583  13.165  23.270  0.00  0.00    +0.000 C 
ATOM      6  C   UNL     1       8.088  11.950  24.061  0.00  0.00    +0.000 C 
ATOM      7  C   UNL     1       7.268  12.350  25.303  0.00  0.00    +0.000 C 
ATOM      8  C   UNL     1       6.128  13.286  24.868  0.00  0.00    +0.000 C 
ATOM      9  C   UNL     1       6.619  14.495  24.075  0.00  0.00    +0.000 C 
ATOM     10  N   UNL     1       5.820  14.659  21.430  0.00  0.00    +0.000 NA
ATOM     11  C   UNL     1       5.451  14.893  20.185  0.00  0.00    +0.000 A 
ATOM     12  N   UNL     1       4.189  15.267  19.970  0.00  0.00    +0.000 NA
ATOM     13  C   UNL     1       3.752  15.546  18.718  0.00  0.00    +0.000 A 
ATOM     14  C   UNL     1       4.575  15.432  17.615  0.00  0.00    +0.000 A 
ATOM     15  C   UNL     1       5.857  15.049  17.835  0.00  0.00    +0.000 A 
ATOM     16  C   UNL     1       6.352  14.779  19.126  0.00  0.00    +0.000 A 
ENDROOT
BRANCH   1  23
ATOM     17  C   UNL     1       9.355  16.759  18.805  0.00  0.00    +0.000 C 
ATOM     18  C   UNL     1       9.381  15.490  17.951  0.00  0.00    +0.000 C 
ATOM     19  C   UNL     1      10.857  15.097  17.698  0.00  0.00    +0.000 C 
ATOM     20  O   UNL     1      10.978  13.892  16.916  0.00  0.00    +0.000 OA
ATOM     21  C   UNL     1      10.372  12.801  17.613  0.00  0.00    +0.000 C 
ATOM     22  C   UNL     1       8.899  13.063  17.825  0.00  0.00    +0.000 C 
ATOM     23  N   UNL     1       8.688  14.321  18.546  0.00  0.00    +0.000 N 
ENDBRANCH   1  23
BRANCH  13  24
ATOM     24  C   UNL     1       2.355  15.947  18.553  0.00  0.00    +0.000 A 
ATOM     25  C   UNL     1       2.010  17.138  17.909  0.00  0.00    +0.000 A 
ATOM     26  C   UNL     1       0.676  17.522  17.783  0.00  0.00    +0.000 A 
ATOM     27  C   UNL     1      -0.347  16.714  18.300  0.00  0.00    +0.000 A 
ATOM     28  C   UNL     1      -0.035  15.525  18.951  0.00  0.00    +0.000 A 
ATOM     29  C   UNL     1       1.315  15.150  19.075  0.00  0.00    +0.000 A 
BRANCH  28  30
ATOM     30  C   UNL     1      -1.038  14.595  19.547  0.00  0.00    +0.000 C 
ATOM     31  N   UNL     1      -1.224  13.381  18.950  0.00  0.00    +0.000 N 
ATOM     32  O   UNL     1      -1.703  14.899  20.534  0.00  0.00    +0.000 OA
ATOM     33  H   UNL     1      -0.781  13.079  18.097  0.00  0.00    +0.000 HD
ATOM     34  H   UNL     1      -1.939  12.788  19.348  0.00  0.00    +0.000 HD
ENDBRANCH  28  30
ENDBRANCH  13  24
BRANCH   7  35
ATOM     35  C   UNL     1       8.113  12.990  26.423  0.00  0.00    +0.000 C 
BRANCH  35  36
ATOM     36  N   UNL     1       7.833  12.399  27.727  0.00  0.00    +0.000 NA
ATOM     37  H   UNL     1       8.013  13.085  28.461  0.00  0.00    +0.000 HD
ATOM     38  H   UNL     1       8.483  11.632  27.896  0.00  0.00    +0.000 HD
ENDBRANCH  35  36
ENDBRANCH   7  35
TORSDOF 5
ENDMDL
MODEL 4
REMARK VINA RESULT:      -6.6      4.579      8.229
REMARK  Name = 
REMARK  6 active torsions:
REMARK  status: ('A' for Active; 'I' for Inactive)
REMARK    1  A    between atoms: C_1  and  C_2
REMARK    2  A    between atoms: N_7  and  C_8
REMARK    3  A    between atoms: C_14  and  C_15
REMARK    4  A    between atoms: C_15  and  N_16
REMARK    5  A    between atoms: C_22  and  C_23
REMARK    6  A    between atoms: C_27  and  C_28
REMARK                            x       y       z     vdW  Elec       q    Type
REMARK                         _______ _______ _______ _____ _____    ______ ____
ROOT
ATOM      1  C   UNL     1       2.526   5.252  19.314  0.00  0.00    +0.000 A 
ATOM      2  N   UNL     1       2.096   6.504  19.555  0.00  0.00    +0.000 NA
ATOM      3  C   UNL     1       2.486   7.507  18.788  0.00  0.00    +0.000 A 
ATOM      4  N   UNL     1       2.080   8.776  19.114  0.00  0.00    +0.000 N 
ATOM      5  C   UNL     1       0.836   8.981  19.850  0.00  0.00    +0.000 C 
ATOM      6  C   UNL     1      -0.157   9.759  18.982  0.00  0.00    +0.000 C 
ATOM      7  C   UNL     1       0.451  11.051  18.402  0.00  0.00    +0.000 C 
ATOM      8  C   UNL     1       1.750  10.699  17.656  0.00  0.00    +0.000 C 
ATOM      9  C   UNL     1       2.740   9.919  18.518  0.00  0.00    +0.000 C 
ATOM     10  N   UNL     1       3.294   7.322  17.738  0.00  0.00    +0.000 NA
ATOM     11  C   UNL     1       3.699   6.103  17.434  0.00  0.00    +0.000 A 
ATOM     12  N   UNL     1       4.507   5.961  16.381  0.00  0.00    +0.000 NA
ATOM     13  C   UNL     1       4.978   4.740  16.029  0.00  0.00    +0.000 A 
ATOM     14  C   UNL     1       4.629   3.596  16.718  0.00  0.00    +0.000 A 
ATOM     15  C   UNL     1       3.806   3.742  17.787  0.00  0.00    +0.000 A 
ATOM     16  C   UNL     1       3.321   4.999  18.198  0.00  0.00    +0.000 A 
ENDROOT
BRANCH   1  23
ATOM     17  C   UNL     1       0.489   3.298  18.491  0.00  0.00    +0.000 C 
ATOM     18  C   UNL     1       0.873   3.477  19.960  0.00  0.00    +0.000 C 
ATOM     19  C   UNL     1       1.105   2.079  20.583  0.00  0.00    +0.000 C 
ATOM     20  O   UNL     1       1.495   2.152  21.969  0.00  0.00    +0.000 OA
ATOM     21  C   UNL     1       2.727   2.868  22.086  0.00  0.00    +0.000 C 
ATOM     22  C   UNL     1       2.566   4.282  21.580  0.00  0.00    +0.000 C 
ATOM     23  N   UNL     1       2.090   4.294  20.194  0.00  0.00    +0.000 N 
ENDBRANCH   1  23
BRANCH  13  24
ATOM     24  C   UNL     1       5.855   4.656  14.862  0.00  0.00    +0.000 A 
ATOM     25  C   UNL     1       6.931   5.532  14.694  0.00  0.00    +0.000 A 
ATOM     26  C   UNL     1       7.744   5.458  13.563  0.00  0.00    +0.000 A 
ATOM     27  C   UNL     1       7.495   4.498  12.572  0.00  0.00    +0.000 A 
ATOM     28  C   UNL     1       6.429   3.616  12.708  0.00  0.00    +0.000 A 
ATOM     29  C   UNL     1       5.614   3.702  13.852  0.00  0.00    +0.000 A 
BRANCH  28  30
ATOM     30  C   UNL     1       6.066   2.563  11.714  0.00  0.00    +0.000 C 
ATOM     31  N   UNL     1       7.047   1.714  11.289  0.00  0.00    +0.000 N 
ATOM     32  O   UNL     1       4.927   2.456  11.265  0.00  0.00    +0.000 OA
ATOM     33  H   UNL     1       8.020   1.776  11.544  0.00  0.00    +0.000 HD
ATOM     34  H   UNL     1       6.784   1.039  10.585  0.00  0.00    +0.000 HD
ENDBRANCH  28  30
ENDBRANCH  13  24
BRANCH   7  35
ATOM     35  C   UNL     1       0.699  12.146  19.458  0.00  0.00    +0.000 C 
BRANCH  35  36
ATOM     36  N   UNL     1      -0.500  12.439  20.236  0.00  0.00    +0.000 NA
ATOM     37  H   UNL     1      -0.875  11.575  20.628  0.00  0.00    +0.000 HD
ATOM     38  H   UNL     1      -1.224  12.803  19.617  0.00  0.00    +0.000 HD
ENDBRANCH  35  36
ENDBRANCH   7  35
TORSDOF 5
ENDMDL
MODEL 5
REMARK VINA RESULT:      -6.5      1.521      1.901
REMARK  Name = 
REMARK  6 active torsions:
REMARK  status: ('A' for Active; 'I' for Inactive)
REMARK    1  A    between atoms: C_1  and  C_2
REMARK    2  A    between atoms: N_7  and  C_8
REMARK    3  A    between atoms: C_14  and  C_15
REMARK    4  A    between atoms: C_15  and  N_16
REMARK    5  A    between atoms: C_22  and  C_23
REMARK    6  A    between atoms: C_27  and  C_28
REMARK                            x       y       z     vdW  Elec       q    Type
REMARK                         _______ _______ _______ _____ _____    ______ ____
ROOT
ATOM      1  C   UNL     1      -0.724  12.412  21.363  0.00  0.00    +0.000 A 
ATOM      2  N   UNL     1       0.013  13.484  21.022  0.00  0.00    +0.000 NA
ATOM      3  C   UNL     1       1.216  13.333  20.494  0.00  0.00    +0.000 A 
ATOM      4  N   UNL     1       1.960  14.454  20.228  0.00  0.00    +0.000 N 
ATOM      5  C   UNL     1       1.297  15.724  19.951  0.00  0.00    +0.000 C 
ATOM      6  C   UNL     1       1.605  16.167  18.517  0.00  0.00    +0.000 C 
ATOM      7  C   UNL     1       3.115  16.165  18.210  0.00  0.00    +0.000 C 
ATOM      8  C   UNL     1       3.690  14.778  18.544  0.00  0.00    +0.000 C 
ATOM      9  C   UNL     1       3.380  14.332  19.971  0.00  0.00    +0.000 C 
ATOM     10  N   UNL     1       1.736  12.123  20.257  0.00  0.00    +0.000 NA
ATOM     11  C   UNL     1       1.028  11.043  20.528  0.00  0.00    +0.000 A 
ATOM     12  N   UNL     1       1.583   9.856  20.280  0.00  0.00    +0.000 NA
ATOM     13  C   UNL     1       0.919   8.708  20.558  0.00  0.00    +0.000 A 
ATOM     14  C   UNL     1      -0.358   8.712  21.082  0.00  0.00    +0.000 A 
ATOM     15  C   UNL     1      -0.923   9.919  21.332  0.00  0.00    +0.000 A 
ATOM     16  C   UNL     1      -0.250  11.132  21.081  0.00  0.00    +0.000 A 
ENDROOT
BRANCH   1  23
ATOM     17  C   UNL     1      -3.133  12.649  19.693  0.00  0.00    +0.000 C 
ATOM     18  C   UNL     1      -3.126  13.109  21.152  0.00  0.00    +0.000 C 
ATOM     19  C   UNL     1      -4.390  12.553  21.850  0.00  0.00    +0.000 C 
ATOM     20  O   UNL     1      -4.456  12.920  23.243  0.00  0.00    +0.000 OA
ATOM     21  C   UNL     1      -3.327  12.384  23.937  0.00  0.00    +0.000 C 
ATOM     22  C   UNL     1      -2.044  12.948  23.374  0.00  0.00    +0.000 C 
ATOM     23  N   UNL     1      -1.940  12.685  21.937  0.00  0.00    +0.000 N 
ENDBRANCH   1  23
BRANCH  13  24
ATOM     24  C   UNL     1       1.586   7.441  20.257  0.00  0.00    +0.000 A 
ATOM     25  C   UNL     1       1.407   6.315  21.064  0.00  0.00    +0.000 A 
ATOM     26  C   UNL     1       2.069   5.121  20.781  0.00  0.00    +0.000 A 
ATOM     27  C   UNL     1       2.927   5.030  19.675  0.00  0.00    +0.000 A 
ATOM     28  C   UNL     1       3.129   6.135  18.857  0.00  0.00    +0.000 A 
ATOM     29  C   UNL     1       2.457   7.335  19.154  0.00  0.00    +0.000 A 
BRANCH  28  30
ATOM     30  C   UNL     1       4.023   6.155  17.662  0.00  0.00    +0.000 C 
ATOM     31  N   UNL     1       4.537   4.969  17.223  0.00  0.00    +0.000 N 
ATOM     32  O   UNL     1       4.317   7.200  17.087  0.00  0.00    +0.000 OA
ATOM     33  H   UNL     1       4.412   4.078  17.676  0.00  0.00    +0.000 HD
ATOM     34  H   UNL     1       5.173   5.016  16.439  0.00  0.00    +0.000 HD
ENDBRANCH  28  30
ENDBRANCH  13  24
BRANCH   7  35
ATOM     35  C   UNL     1       3.896  17.277  18.939  0.00  0.00    +0.000 C 
BRANCH  35  36
ATOM     36  N   UNL     1       5.338  17.147  18.754  0.00  0.00    +0.000 NA
ATOM     37  H   UNL     1       5.824  17.521  19.569  0.00  0.00    +0.000 HD
ATOM     38  H   UNL     1       5.629  17.723  17.965  0.00  0.00    +0.000 HD
ENDBRANCH  35  36
ENDBRANCH   7  35
TORSDOF 5
ENDMDL
MODEL 6
REMARK VINA RESULT:      -6.4      1.048      1.127
REMARK  Name = 
REMARK  6 active torsions:
REMARK  status: ('A' for Active; 'I' for Inactive)
REMARK    1  A    between atoms: C_1  and  C_2
REMARK    2  A    between atoms: N_7  and  C_8
REMARK    3  A    between atoms: C_14  and  C_15
REMARK    4  A    between atoms: C_15  and  N_16
REMARK    5  A    between atoms: C_22  and  C_23
REMARK    6  A    between atoms: C_27  and  C_28
REMARK                            x       y       z     vdW  Elec       q    Type
REMARK                         _______ _______ _______ _____ _____    ______ ____
ROOT
ATOM      1  C   UNL     1      -0.794  12.777  21.727  0.00  0.00    +0.000 A 
ATOM      2  N   UNL     1      -0.043  13.892  21.712  0.00  0.00    +0.000 NA
ATOM      3  C   UNL     1       1.199  13.860  21.261  0.00  0.00    +0.000 A 
ATOM      4  N   UNL     1       1.952  15.005  21.331  0.00  0.00    +0.000 N 
ATOM      5  C   UNL     1       1.301  16.311  21.312  0.00  0.00    +0.000 C 
ATOM      6  C   UNL     1       1.717  17.080  20.055  0.00  0.00    +0.000 C 
ATOM      7  C   UNL     1       3.248  17.137  19.878  0.00  0.00    +0.000 C 
ATOM      8  C   UNL     1       3.807  15.705  19.916  0.00  0.00    +0.000 C 
ATOM      9  C   UNL     1       3.389  14.934  21.166  0.00  0.00    +0.000 C 
ATOM     10  N   UNL     1       1.749  12.736  20.784  0.00  0.00    +0.000 NA
ATOM     11  C   UNL     1       1.031  11.630  20.733  0.00  0.00    +0.000 A 
ATOM     12  N   UNL     1       1.616  10.532  20.254  0.00  0.00    +0.000 NA
ATOM     13  C   UNL     1       0.943   9.356  20.197  0.00  0.00    +0.000 A 
ATOM     14  C   UNL     1      -0.372   9.248  20.602  0.00  0.00    +0.000 A 
ATOM     15  C   UNL     1      -0.966  10.366  21.087  0.00  0.00    +0.000 A 
ATOM     16  C   UNL     1      -0.288  11.597  21.187  0.00  0.00    +0.000 A 
ENDROOT
BRANCH   1  23
ATOM     17  C   UNL     1      -3.114  13.093  19.948  0.00  0.00    +0.000 C 
ATOM     18  C   UNL     1      -3.216  13.374  21.448  0.00  0.00    +0.000 C 
ATOM     19  C   UNL     1      -4.485  12.674  21.994  0.00  0.00    +0.000 C 
ATOM     20  O   UNL     1      -4.651  12.866  23.413  0.00  0.00    +0.000 OA
ATOM     21  C   UNL     1      -3.535  12.307  24.110  0.00  0.00    +0.000 C 
ATOM     22  C   UNL     1      -2.256  12.998  23.700  0.00  0.00    +0.000 C 
ATOM     23  N   UNL     1      -2.055  12.917  22.251  0.00  0.00    +0.000 N 
ENDBRANCH   1  23
BRANCH  13  24
ATOM     24  C   UNL     1       1.643   8.192  19.656  0.00  0.00    +0.000 A 
ATOM     25  C   UNL     1       2.381   8.271  18.472  0.00  0.00    +0.000 A 
ATOM     26  C   UNL     1       3.022   7.147  17.952  0.00  0.00    +0.000 A 
ATOM     27  C   UNL     1       2.938   5.913  18.614  0.00  0.00    +0.000 A 
ATOM     28  C   UNL     1       2.207   5.802  19.791  0.00  0.00    +0.000 A 
ATOM     29  C   UNL     1       1.563   6.943  20.304  0.00  0.00    +0.000 A 
BRANCH  28  30
ATOM     30  C   UNL     1       2.043   4.541  20.573  0.00  0.00    +0.000 C 
ATOM     31  N   UNL     1       1.432   3.482  19.965  0.00  0.00    +0.000 N 
ATOM     32  O   UNL     1       2.423   4.442  21.737  0.00  0.00    +0.000 OA
ATOM     33  H   UNL     1       1.023   3.497  19.045  0.00  0.00    +0.000 HD
ATOM     34  H   UNL     1       1.295   2.656  20.531  0.00  0.00    +0.000 HD
ENDBRANCH  28  30
ENDBRANCH  13  24
BRANCH   7  35
ATOM     35  C   UNL     1       3.957  18.035  20.911  0.00  0.00    +0.000 C 
BRANCH  35  36
ATOM     36  N   UNL     1       5.177  18.630  20.374  0.00  0.00    +0.000 NA
ATOM     37  H   UNL     1       5.043  19.634  20.248  0.00  0.00    +0.000 HD
ATOM     38  H   UNL     1       5.355  18.252  19.444  0.00  0.00    +0.000 HD
ENDBRANCH  35  36
ENDBRANCH   7  35
TORSDOF 5
ENDMDL
MODEL 7
REMARK VINA RESULT:      -6.4      6.168     10.480
REMARK  Name = 
REMARK  6 active torsions:
REMARK  status: ('A' for Active; 'I' for Inactive)
REMARK    1  A    between atoms: C_1  and  C_2
REMARK    2  A    between atoms: N_7  and  C_8
REMARK    3  A    between atoms: C_14  and  C_15
REMARK    4  A    between atoms: C_15  and  N_16
REMARK    5  A    between atoms: C_22  and  C_23
REMARK    6  A    between atoms: C_27  and  C_28
REMARK                            x       y       z     vdW  Elec       q    Type
REMARK                         _______ _______ _______ _____ _____    ______ ____
ROOT
ATOM      1  C   UNL     1       8.209  14.354  19.833  0.00  0.00    +0.000 A 
ATOM      2  N   UNL     1       8.349  13.999  21.122  0.00  0.00    +0.000 NA
ATOM      3  C   UNL     1       7.334  14.104  21.962  0.00  0.00    +0.000 A 
ATOM      4  N   UNL     1       7.543  13.799  23.283  0.00  0.00    +0.000 N 
ATOM      5  C   UNL     1       8.586  12.850  23.659  0.00  0.00    +0.000 C 
ATOM      6  C   UNL     1       7.954  11.616  24.311  0.00  0.00    +0.000 C 
ATOM      7  C   UNL     1       6.993  11.983  25.459  0.00  0.00    +0.000 C 
ATOM      8  C   UNL     1       5.950  12.984  24.936  0.00  0.00    +0.000 C 
ATOM      9  C   UNL     1       6.577  14.212  24.280  0.00  0.00    +0.000 C 
ATOM     10  N   UNL     1       6.132  14.540  21.568  0.00  0.00    +0.000 NA
ATOM     11  C   UNL     1       5.935  14.851  20.300  0.00  0.00    +0.000 A 
ATOM     12  N   UNL     1       4.724  15.285  19.948  0.00  0.00    +0.000 NA
ATOM     13  C   UNL     1       4.461  15.644  18.667  0.00  0.00    +0.000 A 
ATOM     14  C   UNL     1       5.416  15.555  17.674  0.00  0.00    +0.000 A 
ATOM     15  C   UNL     1       6.646  15.112  18.033  0.00  0.00    +0.000 A 
ATOM     16  C   UNL     1       6.961  14.757  19.360  0.00  0.00    +0.000 A 
ENDROOT
BRANCH   1  23
ATOM     17  C   UNL     1       8.958  11.756  18.678  0.00  0.00    +0.000 C 
ATOM     18  C   UNL     1       9.936  12.932  18.695  0.00  0.00    +0.000 C 
ATOM     19  C   UNL     1      10.569  13.067  17.289  0.00  0.00    +0.000 C 
ATOM     20  O   UNL     1      11.493  14.171  17.205  0.00  0.00    +0.000 OA
ATOM     21  C   UNL     1      10.806  15.395  17.471  0.00  0.00    +0.000 C 
ATOM     22  C   UNL     1      10.228  15.385  18.867  0.00  0.00    +0.000 C 
ATOM     23  N   UNL     1       9.336  14.239  19.058  0.00  0.00    +0.000 N 
ENDBRANCH   1  23
BRANCH  13  24
ATOM     24  C   UNL     1       3.110  16.105  18.349  0.00  0.00    +0.000 A 
ATOM     25  C   UNL     1       2.891  17.134  17.428  0.00  0.00    +0.000 A 
ATOM     26  C   UNL     1       1.600  17.583  17.153  0.00  0.00    +0.000 A 
ATOM     27  C   UNL     1       0.495  17.007  17.797  0.00  0.00    +0.000 A 
ATOM     28  C   UNL     1       0.682  15.986  18.722  0.00  0.00    +0.000 A 
ATOM     29  C   UNL     1       1.990  15.543  18.993  0.00  0.00    +0.000 A 
BRANCH  28  30
ATOM     30  C   UNL     1      -0.415  15.307  19.472  0.00  0.00    +0.000 C 
ATOM     31  N   UNL     1      -1.566  16.006  19.700  0.00  0.00    +0.000 N 
ATOM     32  O   UNL     1      -0.301  14.160  19.897  0.00  0.00    +0.000 OA
ATOM     33  H   UNL     1      -1.718  16.971  19.456  0.00  0.00    +0.000 HD
ATOM     34  H   UNL     1      -2.276  15.538  20.246  0.00  0.00    +0.000 HD
ENDBRANCH  28  30
ENDBRANCH  13  24
BRANCH   7  35
ATOM     35  C   UNL     1       7.707  12.533  26.711  0.00  0.00    +0.000 C 
BRANCH  35  36
ATOM     36  N   UNL     1       7.458  11.709  27.890  0.00  0.00    +0.000 NA
ATOM     37  H   UNL     1       6.561  11.233  27.793  0.00  0.00    +0.000 HD
ATOM     38  H   UNL     1       7.370  12.310  28.709  0.00  0.00    +0.000 HD
ENDBRANCH  35  36
ENDBRANCH   7  35
TORSDOF 5
ENDMDL
MODEL 8
REMARK VINA RESULT:      -6.4      5.610      9.932
REMARK  Name = 
REMARK  6 active torsions:
REMARK  status: ('A' for Active; 'I' for Inactive)
REMARK    1  A    between atoms: C_1  and  C_2
REMARK    2  A    between atoms: N_7  and  C_8
REMARK    3  A    between atoms: C_14  and  C_15
REMARK    4  A    between atoms: C_15  and  N_16
REMARK    5  A    between atoms: C_22  and  C_23
REMARK    6  A    between atoms: C_27  and  C_28
REMARK                            x       y       z     vdW  Elec       q    Type
REMARK                         _______ _______ _______ _____ _____    ______ ____
ROOT
ATOM      1  C   UNL     1       7.821  14.892  20.294  0.00  0.00    +0.000 A 
ATOM      2  N   UNL     1       8.087  14.689  21.596  0.00  0.00    +0.000 NA
ATOM      3  C   UNL     1       7.106  14.624  22.480  0.00  0.00    +0.000 A 
ATOM      4  N   UNL     1       7.428  14.487  23.807  0.00  0.00    +0.000 N 
ATOM      5  C   UNL     1       8.679  13.842  24.194  0.00  0.00    +0.000 C 
ATOM      6  C   UNL     1       8.380  12.554  24.967  0.00  0.00    +0.000 C 
ATOM      7  C   UNL     1       7.401  12.781  26.136  0.00  0.00    +0.000 C 
ATOM      8  C   UNL     1       6.133  13.464  25.597  0.00  0.00    +0.000 C 
ATOM      9  C   UNL     1       6.427  14.745  24.821  0.00  0.00    +0.000 C 
ATOM     10  N   UNL     1       5.822  14.733  22.120  0.00  0.00    +0.000 NA
ATOM     11  C   UNL     1       5.512  14.883  20.846  0.00  0.00    +0.000 A 
ATOM     12  N   UNL     1       4.221  14.991  20.529  0.00  0.00    +0.000 NA
ATOM     13  C   UNL     1       3.836  15.171  19.242  0.00  0.00    +0.000 A 
ATOM     14  C   UNL     1       4.749  15.224  18.208  0.00  0.00    +0.000 A 
ATOM     15  C   UNL     1       6.061  15.112  18.531  0.00  0.00    +0.000 A 
ATOM     16  C   UNL     1       6.498  14.953  19.861  0.00  0.00    +0.000 A 
ENDROOT
BRANCH   1  23
ATOM     17  C   UNL     1       9.072  12.456  19.225  0.00  0.00    +0.000 C 
ATOM     18  C   UNL     1       9.771  13.814  19.139  0.00  0.00    +0.000 C 
ATOM     19  C   UNL     1      10.304  14.003  17.698  0.00  0.00    +0.000 C 
ATOM     20  O   UNL     1      10.962  15.273  17.517  0.00  0.00    +0.000 OA
ATOM     21  C   UNL     1      10.036  16.334  17.759  0.00  0.00    +0.000 C 
ATOM     22  C   UNL     1       9.529  16.279  19.181  0.00  0.00    +0.000 C 
ATOM     23  N   UNL     1       8.915  14.980  19.470  0.00  0.00    +0.000 N 
ENDBRANCH   1  23
BRANCH  13  24
ATOM     24  C   UNL     1       2.404  15.277  18.964  0.00  0.00    +0.000 A 
ATOM     25  C   UNL     1       1.783  16.518  18.802  0.00  0.00    +0.000 A 
ATOM     26  C   UNL     1       0.412  16.607  18.564  0.00  0.00    +0.000 A 
ATOM     27  C   UNL     1      -0.370  15.446  18.481  0.00  0.00    +0.000 A 
ATOM     28  C   UNL     1       0.218  14.196  18.644  0.00  0.00    +0.000 A 
ATOM     29  C   UNL     1       1.602  14.120  18.886  0.00  0.00    +0.000 A 
BRANCH  28  30
ATOM     30  C   UNL     1      -0.516  12.898  18.585  0.00  0.00    +0.000 C 
ATOM     31  N   UNL     1      -1.269  12.635  17.477  0.00  0.00    +0.000 N 
ATOM     32  O   UNL     1      -0.474  12.084  19.504  0.00  0.00    +0.000 OA
ATOM     33  H   UNL     1      -1.423  13.273  16.713  0.00  0.00    +0.000 HD
ATOM     34  H   UNL     1      -1.790  11.768  17.481  0.00  0.00    +0.000 HD
ENDBRANCH  28  30
ENDBRANCH  13  24
BRANCH   7  35
ATOM     35  C   UNL     1       8.008  13.584  27.304  0.00  0.00    +0.000 C 
BRANCH  35  36
ATOM     36  N   UNL     1       8.090  12.794  28.528  0.00  0.00    +0.000 NA
ATOM     37  H   UNL     1       8.689  11.983  28.374  0.00  0.00    +0.000 HD
ATOM     38  H   UNL     1       7.167  12.423  28.752  0.00  0.00    +0.000 HD
ENDBRANCH  35  36
ENDBRANCH   7  35
TORSDOF 5
ENDMDL
MODEL 9
REMARK VINA RESULT:      -6.4      4.918      8.569
REMARK  Name = 
REMARK  6 active torsions:
REMARK  status: ('A' for Active; 'I' for Inactive)
REMARK    1  A    between atoms: C_1  and  C_2
REMARK    2  A    between atoms: N_7  and  C_8
REMARK    3  A    between atoms: C_14  and  C_15
REMARK    4  A    between atoms: C_15  and  N_16
REMARK    5  A    between atoms: C_22  and  C_23
REMARK    6  A    between atoms: C_27  and  C_28
REMARK                            x       y       z     vdW  Elec       q    Type
REMARK                         _______ _______ _______ _____ _____    ______ ____
ROOT
ATOM      1  C   UNL     1       5.925  15.020  20.623  0.00  0.00    +0.000 A 
ATOM      2  N   UNL     1       6.522  14.919  21.824  0.00  0.00    +0.000 NA
ATOM      3  C   UNL     1       5.862  14.442  22.865  0.00  0.00    +0.000 A 
ATOM      4  N   UNL     1       6.488  14.425  24.086  0.00  0.00    +0.000 N 
ATOM      5  C   UNL     1       7.944  14.343  24.161  0.00  0.00    +0.000 C 
ATOM      6  C   UNL     1       8.355  13.032  24.838  0.00  0.00    +0.000 C 
ATOM      7  C   UNL     1       7.642  12.816  26.187  0.00  0.00    +0.000 C 
ATOM      8  C   UNL     1       6.123  12.928  25.972  0.00  0.00    +0.000 C 
ATOM      9  C   UNL     1       5.711  14.231  25.292  0.00  0.00    +0.000 C 
ATOM     10  N   UNL     1       4.595  14.022  22.767  0.00  0.00    +0.000 NA
ATOM     11  C   UNL     1       3.986  14.054  21.597  0.00  0.00    +0.000 A 
ATOM     12  N   UNL     1       2.723  13.629  21.542  0.00  0.00    +0.000 NA
ATOM     13  C   UNL     1       2.032  13.659  20.376  0.00  0.00    +0.000 A 
ATOM     14  C   UNL     1       2.604  14.101  19.200  0.00  0.00    +0.000 A 
ATOM     15  C   UNL     1       3.889  14.531  19.257  0.00  0.00    +0.000 A 
ATOM     16  C   UNL     1       4.627  14.540  20.457  0.00  0.00    +0.000 A 
ENDROOT
BRANCH   1  23
ATOM     17  C   UNL     1       5.942  17.926  20.181  0.00  0.00    +0.000 C 
ATOM     18  C   UNL     1       6.525  16.960  19.149  0.00  0.00    +0.000 C 
ATOM     19  C   UNL     1       7.913  17.487  18.711  0.00  0.00    +0.000 C 
ATOM     20  O   UNL     1       8.551  16.622  17.750  0.00  0.00    +0.000 OA
ATOM     21  C   UNL     1       8.760  15.331  18.327  0.00  0.00    +0.000 C 
ATOM     22  C   UNL     1       7.440  14.701  18.705  0.00  0.00    +0.000 C 
ATOM     23  N   UNL     1       6.690  15.563  19.622  0.00  0.00    +0.000 N 
ENDBRANCH   1  23
BRANCH  13  24
ATOM     24  C   UNL     1       0.652  13.173  20.385  0.00  0.00    +0.000 A 
ATOM     25  C   UNL     1      -0.178  13.319  19.271  0.00  0.00    +0.000 A 
ATOM     26  C   UNL     1      -1.500  12.876  19.302  0.00  0.00    +0.000 A 
ATOM     27  C   UNL     1      -2.019  12.272  20.456  0.00  0.00    +0.000 A 
ATOM     28  C   UNL     1      -1.218  12.117  21.583  0.00  0.00    +0.000 A 
ATOM     29  C   UNL     1       0.113  12.571  21.540  0.00  0.00    +0.000 A 
BRANCH  28  30
ATOM     30  C   UNL     1      -1.667  11.499  22.865  0.00  0.00    +0.000 C 
ATOM     31  N   UNL     1      -2.887  11.858  23.361  0.00  0.00    +0.000 N 
ATOM     32  O   UNL     1      -0.966  10.701  23.483  0.00  0.00    +0.000 OA
ATOM     33  H   UNL     1      -3.492  12.558  22.963  0.00  0.00    +0.000 HD
ATOM     34  H   UNL     1      -3.147  11.457  24.251  0.00  0.00    +0.000 HD
ENDBRANCH  28  30
ENDBRANCH  13  24
BRANCH   7  35
ATOM     35  C   UNL     1       8.115  13.776  27.297  0.00  0.00    +0.000 C 
BRANCH  35  36
ATOM     36  N   UNL     1       9.569  13.807  27.412  0.00  0.00    +0.000 NA
ATOM     37  H   UNL     1       9.985  13.247  26.667  0.00  0.00    +0.000 HD
ATOM     38  H   UNL     1       9.848  13.361  28.286  0.00  0.00    +0.000 HD
ENDBRANCH  35  36
ENDBRANCH   7  35
TORSDOF 5
ENDMDL
