MODEL 1
REMARK VINA RESULT:      -8.2      0.000      0.000
REMARK  Name = 
REMARK  5 active torsions:
REMARK  status: ('A' for Active; 'I' for Inactive)
REMARK    1  A    between atoms: C_1  and  C_2
REMARK    2  A    between atoms: N_4  and  C_5
REMARK    3  A    between atoms: C_17  and  C_18
REMARK    4  A    between atoms: C_18  and  O_19
REMARK    5  A    between atoms: O_19  and  C_20
REMARK                            x       y       z     vdW  Elec       q    Type
REMARK                         _______ _______ _______ _____ _____    ______ ____
ROOT
ATOM      1  C   UNL     1       7.878   5.918  18.863  0.00  0.00    +0.000 C 
ATOM      2  C   UNL     1       6.503   6.047  18.202  0.00  0.00    +0.000 C 
ATOM      3  C   UNL     1       5.398   5.520  19.135  0.00  0.00    +0.000 C 
ATOM      4  N   UNL     1       4.589   4.369  18.694  0.00  0.00    +0.000 N 
ATOM      5  C   UNL     1       4.641   3.837  17.401  0.00  0.00    +0.000 C 
ATOM      6  O   UNL     1       3.926   2.913  17.018  0.00  0.00    +0.000 OA
ATOM      7  C   UNL     1       5.632   4.413  16.543  0.00  0.00    +0.000 A 
ATOM      8  C   UNL     1       5.978   4.097  15.244  0.00  0.00    +0.000 A 
ATOM      9  C   UNL     1       7.018   4.993  14.904  0.00  0.00    +0.000 A 
ATOM     10  N   UNL     1       7.300   5.819  15.924  0.00  0.00    +0.000 NA
ATOM     11  N   UNL     1       6.468   5.418  16.901  0.00  0.00    +0.000 N 
ENDROOT
BRANCH   4  12
ATOM     12  C   UNL     1       3.587   3.908  19.608  0.00  0.00    +0.000 A 
ATOM     13  C   UNL     1       2.383   4.613  19.765  0.00  0.00    +0.000 A 
ATOM     14  C   UNL     1       1.417   4.173  20.675  0.00  0.00    +0.000 A 
ATOM     15  C   UNL     1       1.642   3.015  21.411  0.00  0.00    +0.000 A 
ATOM     16  F   UNL     1       0.709   2.589  22.271  0.00  0.00    +0.000 F 
ATOM     17  C   UNL     1       2.816   2.292  21.265  0.00  0.00    +0.000 A 
ATOM     18  C   UNL     1       3.783   2.749  20.376  0.00  0.00    +0.000 A 
ATOM     19  F   UNL     1       4.887   2.004  20.217  0.00  0.00    +0.000 F 
ENDBRANCH   4  12
BRANCH   9  20
ATOM     20  C   UNL     1       7.772   5.067  13.612  0.00  0.00    +0.000 C 
BRANCH  20  21
ATOM     21  O   UNL     1       6.884   5.001  12.491  0.00  0.00    +0.000 OA
BRANCH  21  22
ATOM     22  C   UNL     1       6.650   3.704  12.087  0.00  0.00    +0.000 A 
ATOM     23  C   UNL     1       5.325   3.298  12.031  0.00  0.00    +0.000 A 
ATOM     24  C   UNL     1       5.046   1.993  11.621  0.00  0.00    +0.000 A 
ATOM     25  C   UNL     1       6.097   1.150  11.283  0.00  0.00    +0.000 A 
ATOM     26 CL   UNL     1       5.802  -0.458  10.765  0.00  0.00    +0.000 Cl
ATOM     27  C   UNL     1       7.391   1.642  11.373  0.00  0.00    +0.000 A 
ATOM     28  N   UNL     1       7.691   2.900  11.773  0.00  0.00    +0.000 NA
ENDBRANCH  21  22
ENDBRANCH  20  21
ENDBRANCH   9  20
TORSDOF 4
ENDMDL
MODEL 2
REMARK VINA RESULT:      -8.1      7.475     11.115
REMARK  Name = 
REMARK  5 active torsions:
REMARK  status: ('A' for Active; 'I' for Inactive)
REMARK    1  A    between atoms: C_1  and  C_2
REMARK    2  A    between atoms: N_4  and  C_5
REMARK    3  A    between atoms: C_17  and  C_18
REMARK    4  A    between atoms: C_18  and  O_19
REMARK    5  A    between atoms: O_19  and  C_20
REMARK                            x       y       z     vdW  Elec       q    Type
REMARK                         _______ _______ _______ _____ _____    ______ ____
ROOT
ATOM      1  C   UNL     1       0.085   9.755  17.712  0.00  0.00    +0.000 C 
ATOM      2  C   UNL     1       1.359   9.514  18.528  0.00  0.00    +0.000 C 
ATOM      3  C   UNL     1       2.217   8.409  17.886  0.00  0.00    +0.000 C 
ATOM      4  N   UNL     1       2.477   7.179  18.656  0.00  0.00    +0.000 N 
ATOM      5  C   UNL     1       2.144   7.027  20.007  0.00  0.00    +0.000 C 
ATOM      6  O   UNL     1       2.411   6.021  20.662  0.00  0.00    +0.000 OA
ATOM      7  C   UNL     1       1.414   8.116  20.582  0.00  0.00    +0.000 A 
ATOM      8  C   UNL     1       0.897   8.268  21.854  0.00  0.00    +0.000 A 
ATOM      9  C   UNL     1       0.279   9.540  21.858  0.00  0.00    +0.000 A 
ATOM     10  N   UNL     1       0.407  10.145  20.666  0.00  0.00    +0.000 NA
ATOM     11  N   UNL     1       1.067   9.245  19.917  0.00  0.00    +0.000 N 
ENDROOT
BRANCH   4  12
ATOM     12  C   UNL     1       3.266   6.176  18.005  0.00  0.00    +0.000 A 
ATOM     13  C   UNL     1       4.604   6.428  17.665  0.00  0.00    +0.000 A 
ATOM     14  C   UNL     1       5.363   5.454  17.009  0.00  0.00    +0.000 A 
ATOM     15  C   UNL     1       4.795   4.220  16.714  0.00  0.00    +0.000 A 
ATOM     16  F   UNL     1       5.530   3.287  16.098  0.00  0.00    +0.000 F 
ATOM     17  C   UNL     1       3.480   3.941  17.051  0.00  0.00    +0.000 A 
ATOM     18  C   UNL     1       2.723   4.922  17.682  0.00  0.00    +0.000 A 
ATOM     19  F   UNL     1       1.468   4.608  18.042  0.00  0.00    +0.000 F 
ENDBRANCH   4  12
BRANCH   9  20
ATOM     20  C   UNL     1      -0.458  10.193  22.987  0.00  0.00    +0.000 C 
BRANCH  20  21
ATOM     21  O   UNL     1      -0.481  11.617  22.833  0.00  0.00    +0.000 OA
BRANCH  21  22
ATOM     22  C   UNL     1      -1.741  12.088  22.533  0.00  0.00    +0.000 A 
ATOM     23  C   UNL     1      -2.659  12.119  23.572  0.00  0.00    +0.000 A 
ATOM     24  C   UNL     1      -3.944  12.595  23.310  0.00  0.00    +0.000 A 
ATOM     25  C   UNL     1      -4.259  13.022  22.026  0.00  0.00    +0.000 A 
ATOM     26 CL   UNL     1      -5.823  13.622  21.659  0.00  0.00    +0.000 Cl
ATOM     27  C   UNL     1      -3.278  12.950  21.049  0.00  0.00    +0.000 A 
ATOM     28  N   UNL     1      -2.025  12.487  21.273  0.00  0.00    +0.000 NA
ENDBRANCH  21  22
ENDBRANCH  20  21
ENDBRANCH   9  20
TORSDOF 4
ENDMDL
MODEL 3
REMARK VINA RESULT:      -8.0      4.892      6.187
REMARK  Name = 
REMARK  5 active torsions:
REMARK  status: ('A' for Active; 'I' for Inactive)
REMARK    1  A    between atoms: C_1  and  C_2
REMARK    2  A    between atoms: N_4  and  C_5
REMARK    3  A    between atoms: C_17  and  C_18
REMARK    4  A    between atoms: C_18  and  O_19
REMARK    5  A    between atoms: O_19  and  C_20
REMARK                            x       y       z     vdW  Elec       q    Type
REMARK                         _______ _______ _______ _____ _____    ______ ____
ROOT
ATOM      1  C   UNL     1       1.168   5.249  20.527  0.00  0.00    +0.000 C 
ATOM      2  C   UNL     1       2.103   6.461  20.481  0.00  0.00    +0.000 C 
ATOM      3  C   UNL     1       1.296   7.772  20.491  0.00  0.00    +0.000 C 
ATOM      4  N   UNL     1       1.406   8.679  19.335  0.00  0.00    +0.000 N 
ATOM      5  C   UNL     1       2.339   8.511  18.305  0.00  0.00    +0.000 C 
ATOM      6  O   UNL     1       2.466   9.298  17.370  0.00  0.00    +0.000 OA
ATOM      7  C   UNL     1       3.122   7.314  18.381  0.00  0.00    +0.000 A 
ATOM      8  C   UNL     1       4.083   6.823  17.519  0.00  0.00    +0.000 A 
ATOM      9  C   UNL     1       4.520   5.609  18.097  0.00  0.00    +0.000 A 
ATOM     10  N   UNL     1       3.877   5.361  19.250  0.00  0.00    +0.000 NA
ATOM     11  N   UNL     1       3.022   6.392  19.369  0.00  0.00    +0.000 N 
ENDROOT
BRANCH   4  12
ATOM     12  C   UNL     1       0.620   9.876  19.388  0.00  0.00    +0.000 A 
ATOM     13  C   UNL     1       0.831  10.825  20.400  0.00  0.00    +0.000 A 
ATOM     14  C   UNL     1       0.047  11.981  20.462  0.00  0.00    +0.000 A 
ATOM     15  C   UNL     1      -0.932  12.202  19.499  0.00  0.00    +0.000 A 
ATOM     16  F   UNL     1      -1.671  13.316  19.554  0.00  0.00    +0.000 F 
ATOM     17  C   UNL     1      -1.151  11.287  18.481  0.00  0.00    +0.000 A 
ATOM     18  C   UNL     1      -0.384  10.128  18.439  0.00  0.00    +0.000 A 
ATOM     19  F   UNL     1      -0.582   9.283  17.415  0.00  0.00    +0.000 F 
ENDBRANCH   4  12
BRANCH   9  20
ATOM     20  C   UNL     1       5.543   4.657  17.557  0.00  0.00    +0.000 C 
BRANCH  20  21
ATOM     21  O   UNL     1       6.607   5.359  16.904  0.00  0.00    +0.000 OA
BRANCH  21  22
ATOM     22  C   UNL     1       6.725   5.009  15.576  0.00  0.00    +0.000 A 
ATOM     23  C   UNL     1       5.799   4.099  15.087  0.00  0.00    +0.000 A 
ATOM     24  C   UNL     1       5.881   3.723  13.746  0.00  0.00    +0.000 A 
ATOM     25  C   UNL     1       6.879   4.269  12.949  0.00  0.00    +0.000 A 
ATOM     26 CL   UNL     1       7.015   3.842  11.293  0.00  0.00    +0.000 Cl
ATOM     27  C   UNL     1       7.764   5.168  13.526  0.00  0.00    +0.000 A 
ATOM     28  N   UNL     1       7.712   5.546  14.825  0.00  0.00    +0.000 NA
ENDBRANCH  21  22
ENDBRANCH  20  21
ENDBRANCH   9  20
TORSDOF 4
ENDMDL
MODEL 4
REMARK VINA RESULT:      -8.0      7.384      9.184
REMARK  Name = 
REMARK  5 active torsions:
REMARK  status: ('A' for Active; 'I' for Inactive)
REMARK    1  A    between atoms: C_1  and  C_2
REMARK    2  A    between atoms: N_4  and  C_5
REMARK    3  A    between atoms: C_17  and  C_18
REMARK    4  A    between atoms: C_18  and  O_19
REMARK    5  A    between atoms: O_19  and  C_20
REMARK                            x       y       z     vdW  Elec       q    Type
REMARK                         _______ _______ _______ _____ _____    ______ ____
ROOT
ATOM      1  C   UNL     1       1.575  11.657  18.590  0.00  0.00    +0.000 C 
ATOM      2  C   UNL     1       0.426  10.891  19.250  0.00  0.00    +0.000 C 
ATOM      3  C   UNL     1      -0.374  11.811  20.190  0.00  0.00    +0.000 C 
ATOM      4  N   UNL     1      -0.423  11.485  21.627  0.00  0.00    +0.000 N 
ATOM      5  C   UNL     1       0.062  10.288  22.165  0.00  0.00    +0.000 C 
ATOM      6  O   UNL     1      -0.028   9.993  23.356  0.00  0.00    +0.000 OA
ATOM      7  C   UNL     1       0.731   9.427  21.237  0.00  0.00    +0.000 A 
ATOM      8  C   UNL     1       1.359   8.214  21.439  0.00  0.00    +0.000 A 
ATOM      9  C   UNL     1       1.838   7.822  20.168  0.00  0.00    +0.000 A 
ATOM     10  N   UNL     1       1.524   8.730  19.230  0.00  0.00    +0.000 NA
ATOM     11  N   UNL     1       0.887   9.695  19.917  0.00  0.00    +0.000 N 
ENDROOT
BRANCH   4  12
ATOM     12  C   UNL     1      -1.166  12.384  22.459  0.00  0.00    +0.000 A 
ATOM     13  C   UNL     1      -2.426  12.020  22.958  0.00  0.00    +0.000 A 
ATOM     14  C   UNL     1      -3.158  12.909  23.751  0.00  0.00    +0.000 A 
ATOM     15  C   UNL     1      -2.622  14.153  24.065  0.00  0.00    +0.000 A 
ATOM     16  F   UNL     1      -3.320  14.996  24.835  0.00  0.00    +0.000 F 
ATOM     17  C   UNL     1      -1.374  14.532  23.596  0.00  0.00    +0.000 A 
ATOM     18  C   UNL     1      -0.661  13.652  22.789  0.00  0.00    +0.000 A 
ATOM     19  F   UNL     1       0.565  14.023  22.390  0.00  0.00    +0.000 F 
ENDBRANCH   4  12
BRANCH   9  20
ATOM     20  C   UNL     1       2.615   6.588  19.827  0.00  0.00    +0.000 C 
BRANCH  20  21
ATOM     21  O   UNL     1       2.242   6.082  18.540  0.00  0.00    +0.000 OA
BRANCH  21  22
ATOM     22  C   UNL     1       3.338   5.772  17.764  0.00  0.00    +0.000 A 
ATOM     23  C   UNL     1       4.152   6.829  17.384  0.00  0.00    +0.000 A 
ATOM     24  C   UNL     1       5.275   6.556  16.603  0.00  0.00    +0.000 A 
ATOM     25  C   UNL     1       5.541   5.243  16.234  0.00  0.00    +0.000 A 
ATOM     26 CL   UNL     1       6.914   4.859  15.281  0.00  0.00    +0.000 Cl
ATOM     27  C   UNL     1       4.668   4.251  16.657  0.00  0.00    +0.000 A 
ATOM     28  N   UNL     1       3.569   4.488  17.410  0.00  0.00    +0.000 NA
ENDBRANCH  21  22
ENDBRANCH  20  21
ENDBRANCH   9  20
TORSDOF 4
ENDMDL
MODEL 5
REMARK VINA RESULT:      -8.0      7.821     11.473
REMARK  Name = 
REMARK  5 active torsions:
REMARK  status: ('A' for Active; 'I' for Inactive)
REMARK    1  A    between atoms: C_1  and  C_2
REMARK    2  A    between atoms: N_4  and  C_5
REMARK    3  A    between atoms: C_17  and  C_18
REMARK    4  A    between atoms: C_18  and  O_19
REMARK    5  A    between atoms: O_19  and  C_20
REMARK                            x       y       z     vdW  Elec       q    Type
REMARK                         _______ _______ _______ _____ _____    ______ ____
ROOT
ATOM      1  C   UNL     1       0.023   9.867  17.761  0.00  0.00    +0.000 C 
ATOM      2  C   UNL     1       1.284   9.607  18.590  0.00  0.00    +0.000 C 
ATOM      3  C   UNL     1       2.136   8.495  17.952  0.00  0.00    +0.000 C 
ATOM      4  N   UNL     1       2.373   7.259  18.718  0.00  0.00    +0.000 N 
ATOM      5  C   UNL     1       2.023   7.103  20.064  0.00  0.00    +0.000 C 
ATOM      6  O   UNL     1       2.271   6.091  20.717  0.00  0.00    +0.000 OA
ATOM      7  C   UNL     1       1.299   8.197  20.637  0.00  0.00    +0.000 A 
ATOM      8  C   UNL     1       0.770   8.349  21.903  0.00  0.00    +0.000 A 
ATOM      9  C   UNL     1       0.166   9.628  21.907  0.00  0.00    +0.000 A 
ATOM     10  N   UNL     1       0.315  10.238  20.720  0.00  0.00    +0.000 NA
ATOM     11  N   UNL     1       0.973   9.334  19.974  0.00  0.00    +0.000 N 
ENDROOT
BRANCH   4  12
ATOM     12  C   UNL     1       3.158   6.249  18.070  0.00  0.00    +0.000 A 
ATOM     13  C   UNL     1       4.494   6.497  17.722  0.00  0.00    +0.000 A 
ATOM     14  C   UNL     1       5.250   5.518  17.070  0.00  0.00    +0.000 A 
ATOM     15  C   UNL     1       4.678   4.283  16.786  0.00  0.00    +0.000 A 
ATOM     16  F   UNL     1       5.409   3.344  16.173  0.00  0.00    +0.000 F 
ATOM     17  C   UNL     1       3.364   4.008  17.131  0.00  0.00    +0.000 A 
ATOM     18  C   UNL     1       2.611   4.994  17.759  0.00  0.00    +0.000 A 
ATOM     19  F   UNL     1       1.358   4.685  18.127  0.00  0.00    +0.000 F 
ENDBRANCH   4  12
BRANCH   9  20
ATOM     20  C   UNL     1      -0.575  10.284  23.031  0.00  0.00    +0.000 C 
BRANCH  20  21
ATOM     21  O   UNL     1      -0.332  11.695  23.056  0.00  0.00    +0.000 OA
BRANCH  21  22
ATOM     22  C   UNL     1      -1.502  12.425  23.059  0.00  0.00    +0.000 A 
ATOM     23  C   UNL     1      -1.408  13.754  22.671  0.00  0.00    +0.000 A 
ATOM     24  C   UNL     1      -2.570  14.525  22.656  0.00  0.00    +0.000 A 
ATOM     25  C   UNL     1      -3.776  13.942  23.025  0.00  0.00    +0.000 A 
ATOM     26 CL   UNL     1      -5.231  14.849  23.013  0.00  0.00    +0.000 Cl
ATOM     27  C   UNL     1      -3.773  12.607  23.402  0.00  0.00    +0.000 A 
ATOM     28  N   UNL     1      -2.660  11.836  23.432  0.00  0.00    +0.000 NA
ENDBRANCH  21  22
ENDBRANCH  20  21
ENDBRANCH   9  20
TORSDOF 4
ENDMDL
MODEL 6
REMARK VINA RESULT:      -7.9      6.436      8.329
REMARK  Name = 
REMARK  5 active torsions:
REMARK  status: ('A' for Active; 'I' for Inactive)
REMARK    1  A    between atoms: C_1  and  C_2
REMARK    2  A    between atoms: N_4  and  C_5
REMARK    3  A    between atoms: C_17  and  C_18
REMARK    4  A    between atoms: C_18  and  O_19
REMARK    5  A    between atoms: O_19  and  C_20
REMARK                            x       y       z     vdW  Elec       q    Type
REMARK                         _______ _______ _______ _____ _____    ______ ____
ROOT
ATOM      1  C   UNL     1      -0.372   8.340  21.837  0.00  0.00    +0.000 C 
ATOM      2  C   UNL     1       0.980   8.904  21.391  0.00  0.00    +0.000 C 
ATOM      3  C   UNL     1       0.850  10.388  21.002  0.00  0.00    +0.000 C 
ATOM      4  N   UNL     1       1.156  10.785  19.616  0.00  0.00    +0.000 N 
ATOM      5  C   UNL     1       1.732   9.926  18.674  0.00  0.00    +0.000 C 
ATOM      6  O   UNL     1       2.037  10.274  17.535  0.00  0.00    +0.000 OA
ATOM      7  C   UNL     1       1.906   8.572  19.108  0.00  0.00    +0.000 A 
ATOM      8  C   UNL     1       2.392   7.474  18.426  0.00  0.00    +0.000 A 
ATOM      9  C   UNL     1       2.337   6.404  19.350  0.00  0.00    +0.000 A 
ATOM     10  N   UNL     1       1.852   6.811  20.534  0.00  0.00    +0.000 NA
ATOM     11  N   UNL     1       1.575   8.112  20.339  0.00  0.00    +0.000 N 
ENDROOT
BRANCH   4  12
ATOM     12  C   UNL     1       1.001  12.175  19.304  0.00  0.00    +0.000 A 
ATOM     13  C   UNL     1       2.066  13.071  19.488  0.00  0.00    +0.000 A 
ATOM     14  C   UNL     1       1.904  14.431  19.203  0.00  0.00    +0.000 A 
ATOM     15  C   UNL     1       0.687  14.892  18.713  0.00  0.00    +0.000 A 
ATOM     16  F   UNL     1       0.541  16.192  18.430  0.00  0.00    +0.000 F 
ATOM     17  C   UNL     1      -0.375  14.026  18.510  0.00  0.00    +0.000 A 
ATOM     18  C   UNL     1      -0.215  12.678  18.817  0.00  0.00    +0.000 A 
ATOM     19  F   UNL     1      -1.243  11.853  18.563  0.00  0.00    +0.000 F 
ENDBRANCH   4  12
BRANCH   9  20
ATOM     20  C   UNL     1       2.727   4.977  19.117  0.00  0.00    +0.000 C 
BRANCH  20  21
ATOM     21  O   UNL     1       4.120   4.774  19.381  0.00  0.00    +0.000 OA
BRANCH  21  22
ATOM     22  C   UNL     1       4.878   4.797  18.229  0.00  0.00    +0.000 A 
ATOM     23  C   UNL     1       4.312   4.223  17.100  0.00  0.00    +0.000 A 
ATOM     24  C   UNL     1       5.045   4.232  15.912  0.00  0.00    +0.000 A 
ATOM     25  C   UNL     1       6.307   4.811  15.899  0.00  0.00    +0.000 A 
ATOM     26 CL   UNL     1       7.240   4.852  14.461  0.00  0.00    +0.000 Cl
ATOM     27  C   UNL     1       6.793   5.357  17.078  0.00  0.00    +0.000 A 
ATOM     28  N   UNL     1       6.107   5.357  18.246  0.00  0.00    +0.000 NA
ENDBRANCH  21  22
ENDBRANCH  20  21
ENDBRANCH   9  20
TORSDOF 4
ENDMDL
MODEL 7
REMARK VINA RESULT:      -7.9      8.042     11.734
REMARK  Name = 
REMARK  5 active torsions:
REMARK  status: ('A' for Active; 'I' for Inactive)
REMARK    1  A    between atoms: C_1  and  C_2
REMARK    2  A    between atoms: N_4  and  C_5
REMARK    3  A    between atoms: C_17  and  C_18
REMARK    4  A    between atoms: C_18  and  O_19
REMARK    5  A    between atoms: O_19  and  C_20
REMARK                            x       y       z     vdW  Elec       q    Type
REMARK                         _______ _______ _______ _____ _____    ______ ____
ROOT
ATOM      1  C   UNL     1      -0.087   9.884  17.680  0.00  0.00    +0.000 C 
ATOM      2  C   UNL     1       1.203   9.672  18.478  0.00  0.00    +0.000 C 
ATOM      3  C   UNL     1       2.047   8.542  17.860  0.00  0.00    +0.000 C 
ATOM      4  N   UNL     1       2.323   7.342  18.670  0.00  0.00    +0.000 N 
ATOM      5  C   UNL     1       2.019   7.241  20.032  0.00  0.00    +0.000 C 
ATOM      6  O   UNL     1       2.299   6.260  20.719  0.00  0.00    +0.000 OA
ATOM      7  C   UNL     1       1.301   8.351  20.581  0.00  0.00    +0.000 A 
ATOM      8  C   UNL     1       0.811   8.552  21.857  0.00  0.00    +0.000 A 
ATOM      9  C   UNL     1       0.194   9.824  21.826  0.00  0.00    +0.000 A 
ATOM     10  N   UNL     1       0.297  10.384  20.609  0.00  0.00    +0.000 NA
ATOM     11  N   UNL     1       0.940   9.455  19.882  0.00  0.00    +0.000 N 
ENDROOT
BRANCH   4  12
ATOM     12  C   UNL     1       3.097   6.314  18.040  0.00  0.00    +0.000 A 
ATOM     13  C   UNL     1       4.412   6.566  17.619  0.00  0.00    +0.000 A 
ATOM     14  C   UNL     1       5.157   5.567  16.985  0.00  0.00    +0.000 A 
ATOM     15  C   UNL     1       4.597   4.309  16.792  0.00  0.00    +0.000 A 
ATOM     16  F   UNL     1       5.318   3.351  16.196  0.00  0.00    +0.000 F 
ATOM     17  C   UNL     1       3.306   4.030  17.210  0.00  0.00    +0.000 A 
ATOM     18  C   UNL     1       2.562   5.035  17.819  0.00  0.00    +0.000 A 
ATOM     19  F   UNL     1       1.333   4.724  18.259  0.00  0.00    +0.000 F 
ENDBRANCH   4  12
BRANCH   9  20
ATOM     20  C   UNL     1      -0.519  10.520  22.945  0.00  0.00    +0.000 C 
BRANCH  20  21
ATOM     21  O   UNL     1      -1.708  11.167  22.476  0.00  0.00    +0.000 OA
BRANCH  21  22
ATOM     22  C   UNL     1      -1.964  12.340  23.153  0.00  0.00    +0.000 A 
ATOM     23  C   UNL     1      -3.241  12.494  23.672  0.00  0.00    +0.000 A 
ATOM     24  C   UNL     1      -3.538  13.666  24.368  0.00  0.00    +0.000 A 
ATOM     25  C   UNL     1      -2.553  14.633  24.520  0.00  0.00    +0.000 A 
ATOM     26 CL   UNL     1      -2.870  16.085  25.375  0.00  0.00    +0.000 Cl
ATOM     27  C   UNL     1      -1.305  14.394  23.963  0.00  0.00    +0.000 A 
ATOM     28  N   UNL     1      -0.990  13.270  23.277  0.00  0.00    +0.000 NA
ENDBRANCH  21  22
ENDBRANCH  20  21
ENDBRANCH   9  20
TORSDOF 4
ENDMDL
MODEL 8
REMARK VINA RESULT:      -7.9      1.177      1.668
REMARK  Name = 
REMARK  5 active torsions:
REMARK  status: ('A' for Active; 'I' for Inactive)
REMARK    1  A    between atoms: C_1  and  C_2
REMARK    2  A    between atoms: N_4  and  C_5
REMARK    3  A    between atoms: C_17  and  C_18
REMARK    4  A    between atoms: C_18  and  O_19
REMARK    5  A    between atoms: O_19  and  C_20
REMARK                            x       y       z     vdW  Elec       q    Type
REMARK                         _______ _______ _______ _____ _____    ______ ____
ROOT
ATOM      1  C   UNL     1       7.469   6.692  18.219  0.00  0.00    +0.000 C 
ATOM      2  C   UNL     1       6.139   6.449  17.500  0.00  0.00    +0.000 C 
ATOM      3  C   UNL     1       5.087   5.889  18.475  0.00  0.00    +0.000 C 
ATOM      4  N   UNL     1       4.526   4.550  18.217  0.00  0.00    +0.000 N 
ATOM      5  C   UNL     1       4.756   3.828  17.041  0.00  0.00    +0.000 C 
ATOM      6  O   UNL     1       4.244   2.736  16.804  0.00  0.00    +0.000 OA
ATOM      7  C   UNL     1       5.683   4.427  16.128  0.00  0.00    +0.000 A 
ATOM      8  C   UNL     1       6.163   3.968  14.918  0.00  0.00    +0.000 A 
ATOM      9  C   UNL     1       7.047   4.973  14.459  0.00  0.00    +0.000 A 
ATOM     10  N   UNL     1       7.110   5.996  15.326  0.00  0.00    +0.000 NA
ATOM     11  N   UNL     1       6.301   5.616  16.331  0.00  0.00    +0.000 N 
ENDROOT
BRANCH   4  12
ATOM     12  C   UNL     1       3.565   4.070  19.165  0.00  0.00    +0.000 A 
ATOM     13  C   UNL     1       3.924   3.108  20.122  0.00  0.00    +0.000 A 
ATOM     14  C   UNL     1       2.978   2.625  21.031  0.00  0.00    +0.000 A 
ATOM     15  C   UNL     1       1.679   3.120  21.000  0.00  0.00    +0.000 A 
ATOM     16  F   UNL     1       0.780   2.664  21.881  0.00  0.00    +0.000 F 
ATOM     17  C   UNL     1       1.302   4.080  20.075  0.00  0.00    +0.000 A 
ATOM     18  C   UNL     1       2.242   4.539  19.159  0.00  0.00    +0.000 A 
ATOM     19  F   UNL     1       1.865   5.505  18.307  0.00  0.00    +0.000 F 
ENDBRANCH   4  12
BRANCH   9  20
ATOM     20  C   UNL     1       7.858   4.968  13.200  0.00  0.00    +0.000 C 
BRANCH  20  21
ATOM     21  O   UNL     1       7.019   4.846  12.046  0.00  0.00    +0.000 OA
BRANCH  21  22
ATOM     22  C   UNL     1       6.690   3.535  11.776  0.00  0.00    +0.000 A 
ATOM     23  C   UNL     1       7.738   2.682  11.464  0.00  0.00    +0.000 A 
ATOM     24  C   UNL     1       7.448   1.345  11.190  0.00  0.00    +0.000 A 
ATOM     25  C   UNL     1       6.128   0.914  11.241  0.00  0.00    +0.000 A 
ATOM     26 CL   UNL     1       5.724  -0.721  10.920  0.00  0.00    +0.000 Cl
ATOM     27  C   UNL     1       5.145   1.840  11.558  0.00  0.00    +0.000 A 
ATOM     28  N   UNL     1       5.397   3.144  11.822  0.00  0.00    +0.000 NA
ENDBRANCH  21  22
ENDBRANCH  20  21
ENDBRANCH   9  20
TORSDOF 4
ENDMDL
MODEL 9
REMARK VINA RESULT:      -7.8      5.602      9.697
REMARK  Name = 
REMARK  5 active torsions:
REMARK  status: ('A' for Active; 'I' for Inactive)
REMARK    1  A    between atoms: C_1  and  C_2
REMARK    2  A    between atoms: N_4  and  C_5
REMARK    3  A    between atoms: C_17  and  C_18
REMARK    4  A    between atoms: C_18  and  O_19
REMARK    5  A    between atoms: O_19  and  C_20
REMARK                            x       y       z     vdW  Elec       q    Type
REMARK                         _______ _______ _______ _____ _____    ______ ____
ROOT
ATOM      1  C   UNL     1       3.983   2.847  19.980  0.00  0.00    +0.000 C 
ATOM      2  C   UNL     1       3.261   3.534  18.817  0.00  0.00    +0.000 C 
ATOM      3  C   UNL     1       4.127   3.505  17.544  0.00  0.00    +0.000 C 
ATOM      4  N   UNL     1       4.557   4.784  16.952  0.00  0.00    +0.000 N 
ATOM      5  C   UNL     1       4.078   6.030  17.371  0.00  0.00    +0.000 C 
ATOM      6  O   UNL     1       4.396   7.093  16.841  0.00  0.00    +0.000 OA
ATOM      7  C   UNL     1       3.213   6.000  18.512  0.00  0.00    +0.000 A 
ATOM      8  C   UNL     1       2.612   7.035  19.202  0.00  0.00    +0.000 A 
ATOM      9  C   UNL     1       1.870   6.416  20.235  0.00  0.00    +0.000 A 
ATOM     10  N   UNL     1       1.996   5.080  20.189  0.00  0.00    +0.000 NA
ATOM     11  N   UNL     1       2.836   4.871  19.160  0.00  0.00    +0.000 N 
ENDROOT
BRANCH   4  12
ATOM     12  C   UNL     1       5.376   4.699  15.780  0.00  0.00    +0.000 A 
ATOM     13  C   UNL     1       4.845   4.222  14.571  0.00  0.00    +0.000 A 
ATOM     14  C   UNL     1       5.653   4.120  13.434  0.00  0.00    +0.000 A 
ATOM     15  C   UNL     1       6.985   4.515  13.498  0.00  0.00    +0.000 A 
ATOM     16  F   UNL     1       7.751   4.428  12.404  0.00  0.00    +0.000 F 
ATOM     17  C   UNL     1       7.529   5.002  14.675  0.00  0.00    +0.000 A 
ATOM     18  C   UNL     1       6.727   5.080  15.808  0.00  0.00    +0.000 A 
ATOM     19  F   UNL     1       7.265   5.602  16.921  0.00  0.00    +0.000 F 
ENDBRANCH   4  12
BRANCH   9  20
ATOM     20  C   UNL     1       1.045   7.084  21.291  0.00  0.00    +0.000 C 
BRANCH  20  21
ATOM     21  O   UNL     1       1.634   8.325  21.698  0.00  0.00    +0.000 OA
BRANCH  21  22
ATOM     22  C   UNL     1       0.706   9.341  21.781  0.00  0.00    +0.000 A 
ATOM     23  C   UNL     1       0.059   9.495  22.999  0.00  0.00    +0.000 A 
ATOM     24  C   UNL     1      -0.884  10.516  23.125  0.00  0.00    +0.000 A 
ATOM     25  C   UNL     1      -1.141  11.339  22.036  0.00  0.00    +0.000 A 
ATOM     26 CL   UNL     1      -2.285  12.612  22.147  0.00  0.00    +0.000 Cl
ATOM     27  C   UNL     1      -0.448  11.107  20.857  0.00  0.00    +0.000 A 
ATOM     28  N   UNL     1       0.467  10.121  20.704  0.00  0.00    +0.000 NA
ENDBRANCH  21  22
ENDBRANCH  20  21
ENDBRANCH   9  20
TORSDOF 4
ENDMDL
