MODEL 1
REMARK VINA RESULT:      -7.3      0.000      0.000
REMARK  Name = 
REMARK  6 active torsions:
REMARK  status: ('A' for Active; 'I' for Inactive)
REMARK    1  A    between atoms: C_2  and  C_3
REMARK    2  A    between atoms: C_3  and  N_4
REMARK    3  A    between atoms: N_4  and  C_5
REMARK    4  A    between atoms: C_9  and  O_10
REMARK    5  A    between atoms: O_10  and  C_11
REMARK    6  A    between atoms: C_11  and  C_12
REMARK                            x       y       z     vdW  Elec       q    Type
REMARK                         _______ _______ _______ _____ _____    ______ ____
ROOT
ATOM      1  C   UNL     1       2.049   6.882  20.430  0.00  0.00    +0.000 C 
ATOM      2  C   UNL     1       2.275   7.516  19.046  0.00  0.00    +0.000 C 
ATOM      3  C   UNL     1       2.889   6.426  18.148  0.00  0.00    +0.000 C 
ATOM      4  C   UNL     1       2.267   5.195  18.708  0.00  0.00    +0.000 A 
ATOM      5  C   UNL     1       2.116   3.909  18.161  0.00  0.00    +0.000 A 
ATOM      6  C   UNL     1       1.529   2.929  18.966  0.00  0.00    +0.000 A 
ATOM      7  C   UNL     1       1.098   3.183  20.252  0.00  0.00    +0.000 A 
ATOM      8  C   UNL     1       1.241   4.439  20.803  0.00  0.00    +0.000 A 
ATOM      9  C   UNL     1       1.800   5.448  20.030  0.00  0.00    +0.000 A 
ENDROOT
BRANCH   1  10
ATOM     10  N   UNL     1       0.940   7.468  21.175  0.00  0.00    +0.000 NA
ATOM     11  H   UNL     1       0.056   7.120  20.810  0.00  0.00    +0.000 HD
BRANCH  10  12
ATOM     12  C   UNL     1       0.946   8.914  21.066  0.00  0.00    +0.000 C 
BRANCH  12  14
ATOM     13  C   UNL     1      -0.614  10.059  23.122  0.00  0.00    +0.000 C 
ATOM     14  C   UNL     1       0.106   9.530  22.173  0.00  0.00    +0.000 C 
ENDBRANCH  12  14
ENDBRANCH  10  12
ENDBRANCH   1  10
BRANCH   5  15
ATOM     15  O   UNL     1       2.524   3.606  16.884  0.00  0.00    +0.000 OA
BRANCH  15  16
ATOM     16  C   UNL     1       3.807   2.916  16.851  0.00  0.00    +0.000 C 
BRANCH  16  17
ATOM     17  C   UNL     1       4.931   3.879  16.630  0.00  0.00    +0.000 A 
ATOM     18  C   UNL     1       5.309   4.229  15.317  0.00  0.00    +0.000 A 
ATOM     19  C   UNL     1       6.412   5.058  15.114  0.00  0.00    +0.000 A 
ATOM     20  C   UNL     1       7.138   5.528  16.210  0.00  0.00    +0.000 A 
ATOM     21  C   UNL     1       6.768   5.167  17.498  0.00  0.00    +0.000 A 
ATOM     22 BR   UNL     1       7.762   5.790  18.982  0.00  0.00    +0.000 Br
ATOM     23  C   UNL     1       5.676   4.339  17.728  0.00  0.00    +0.000 A 
ENDBRANCH  16  17
ENDBRANCH  15  16
ENDBRANCH   5  15
TORSDOF 6
ENDMDL
MODEL 2
REMARK VINA RESULT:      -7.2      3.246      7.717
REMARK  Name = 
REMARK  6 active torsions:
REMARK  status: ('A' for Active; 'I' for Inactive)
REMARK    1  A    between atoms: C_2  and  C_3
REMARK    2  A    between atoms: C_3  and  N_4
REMARK    3  A    between atoms: N_4  and  C_5
REMARK    4  A    between atoms: C_9  and  O_10
REMARK    5  A    between atoms: O_10  and  C_11
REMARK    6  A    between atoms: C_11  and  C_12
REMARK                            x       y       z     vdW  Elec       q    Type
REMARK                         _______ _______ _______ _____ _____    ______ ____
ROOT
ATOM      1  C   UNL     1       4.450   4.961  16.989  0.00  0.00    +0.000 C 
ATOM      2  C   UNL     1       4.865   6.442  16.941  0.00  0.00    +0.000 C 
ATOM      3  C   UNL     1       3.723   7.248  17.587  0.00  0.00    +0.000 C 
ATOM      4  C   UNL     1       3.207   6.280  18.593  0.00  0.00    +0.000 A 
ATOM      5  C   UNL     1       2.416   6.476  19.738  0.00  0.00    +0.000 A 
ATOM      6  C   UNL     1       2.041   5.343  20.465  0.00  0.00    +0.000 A 
ATOM      7  C   UNL     1       2.420   4.067  20.103  0.00  0.00    +0.000 A 
ATOM      8  C   UNL     1       3.193   3.858  18.981  0.00  0.00    +0.000 A 
ATOM      9  C   UNL     1       3.607   4.959  18.241  0.00  0.00    +0.000 A 
ENDROOT
BRANCH   1  10
ATOM     10  N   UNL     1       5.575   4.034  17.056  0.00  0.00    +0.000 NA
ATOM     11  H   UNL     1       5.944   4.007  18.005  0.00  0.00    +0.000 HD
BRANCH  10  12
ATOM     12  C   UNL     1       6.639   4.440  16.159  0.00  0.00    +0.000 C 
BRANCH  12  14
ATOM     13  C   UNL     1       5.983   3.772  13.495  0.00  0.00    +0.000 C 
ATOM     14  C   UNL     1       6.286   4.080  14.725  0.00  0.00    +0.000 C 
ENDBRANCH  12  14
ENDBRANCH  10  12
ENDBRANCH   1  10
BRANCH   5  15
ATOM     15  O   UNL     1       2.016   7.726  20.144  0.00  0.00    +0.000 OA
BRANCH  15  16
ATOM     16  C   UNL     1       1.046   7.683  21.231  0.00  0.00    +0.000 C 
BRANCH  16  17
ATOM     17  C   UNL     1       0.385   9.013  21.414  0.00  0.00    +0.000 A 
ATOM     18  C   UNL     1       0.006   9.438  22.706  0.00  0.00    +0.000 A 
ATOM     19  C   UNL     1      -0.688  10.637  22.861  0.00  0.00    +0.000 A 
ATOM     20  C   UNL     1      -1.009  11.404  21.740  0.00  0.00    +0.000 A 
ATOM     21  C   UNL     1      -0.645  10.973  20.472  0.00  0.00    +0.000 A 
ATOM     22 BR   UNL     1      -1.096  12.003  18.952  0.00  0.00    +0.000 Br
ATOM     23  C   UNL     1       0.043   9.779  20.289  0.00  0.00    +0.000 A 
ENDBRANCH  16  17
ENDBRANCH  15  16
ENDBRANCH   5  15
TORSDOF 6
ENDMDL
MODEL 3
REMARK VINA RESULT:      -7.0      1.319      1.694
REMARK  Name = 
REMARK  6 active torsions:
REMARK  status: ('A' for Active; 'I' for Inactive)
REMARK    1  A    between atoms: C_2  and  C_3
REMARK    2  A    between atoms: C_3  and  N_4
REMARK    3  A    between atoms: N_4  and  C_5
REMARK    4  A    between atoms: C_9  and  O_10
REMARK    5  A    between atoms: O_10  and  C_11
REMARK    6  A    between atoms: C_11  and  C_12
REMARK                            x       y       z     vdW  Elec       q    Type
REMARK                         _______ _______ _______ _____ _____    ______ ____
ROOT
ATOM      1  C   UNL     1       2.117   7.833  20.002  0.00  0.00    +0.000 C 
ATOM      2  C   UNL     1       2.318   8.154  18.511  0.00  0.00    +0.000 C 
ATOM      3  C   UNL     1       2.947   6.907  17.864  0.00  0.00    +0.000 C 
ATOM      4  C   UNL     1       2.357   5.816  18.686  0.00  0.00    +0.000 A 
ATOM      5  C   UNL     1       2.230   4.438  18.435  0.00  0.00    +0.000 A 
ATOM      6  C   UNL     1       1.670   3.647  19.441  0.00  0.00    +0.000 A 
ATOM      7  C   UNL     1       1.245   4.166  20.646  0.00  0.00    +0.000 A 
ATOM      8  C   UNL     1       1.365   5.514  20.909  0.00  0.00    +0.000 A 
ATOM      9  C   UNL     1       1.896   6.342  19.927  0.00  0.00    +0.000 A 
ENDROOT
BRANCH   1  10
ATOM     10  N   UNL     1       1.002   8.545  20.616  0.00  0.00    +0.000 NA
ATOM     11  H   UNL     1       0.786   9.381  20.076  0.00  0.00    +0.000 HD
BRANCH  10  12
ATOM     12  C   UNL     1       1.323   8.944  21.973  0.00  0.00    +0.000 C 
BRANCH  12  14
ATOM     13  C   UNL     1      -0.874  10.268  23.152  0.00  0.00    +0.000 C 
ATOM     14  C   UNL     1       0.140   9.657  22.607  0.00  0.00    +0.000 C 
ENDBRANCH  12  14
ENDBRANCH  10  12
ENDBRANCH   1  10
BRANCH   5  15
ATOM     15  O   UNL     1       2.634   3.873  17.249  0.00  0.00    +0.000 OA
BRANCH  15  16
ATOM     16  C   UNL     1       3.799   3.012  17.403  0.00  0.00    +0.000 C 
BRANCH  16  17
ATOM     17  C   UNL     1       5.064   3.766  17.129  0.00  0.00    +0.000 A 
ATOM     18  C   UNL     1       5.750   4.396  18.189  0.00  0.00    +0.000 A 
ATOM     19  C   UNL     1       6.878   5.169  17.918  0.00  0.00    +0.000 A 
ATOM     20  C   UNL     1       7.314   5.323  16.601  0.00  0.00    +0.000 A 
ATOM     21  C   UNL     1       6.624   4.712  15.562  0.00  0.00    +0.000 A 
ATOM     22 BR   UNL     1       7.204   4.934  13.776  0.00  0.00    +0.000 Br
ATOM     23  C   UNL     1       5.495   3.939  15.805  0.00  0.00    +0.000 A 
ENDBRANCH  16  17
ENDBRANCH  15  16
ENDBRANCH   5  15
TORSDOF 6
ENDMDL
MODEL 4
REMARK VINA RESULT:      -7.0      3.202      7.349
REMARK  Name = 
REMARK  6 active torsions:
REMARK  status: ('A' for Active; 'I' for Inactive)
REMARK    1  A    between atoms: C_2  and  C_3
REMARK    2  A    between atoms: C_3  and  N_4
REMARK    3  A    between atoms: N_4  and  C_5
REMARK    4  A    between atoms: C_9  and  O_10
REMARK    5  A    between atoms: O_10  and  C_11
REMARK    6  A    between atoms: C_11  and  C_12
REMARK                            x       y       z     vdW  Elec       q    Type
REMARK                         _______ _______ _______ _____ _____    ______ ____
ROOT
ATOM      1  C   UNL     1       4.525   4.892  16.986  0.00  0.00    +0.000 C 
ATOM      2  C   UNL     1       4.854   6.387  16.831  0.00  0.00    +0.000 C 
ATOM      3  C   UNL     1       3.672   7.171  17.430  0.00  0.00    +0.000 C 
ATOM      4  C   UNL     1       3.218   6.248  18.506  0.00  0.00    +0.000 A 
ATOM      5  C   UNL     1       2.424   6.479  19.643  0.00  0.00    +0.000 A 
ATOM      6  C   UNL     1       2.119   5.381  20.451  0.00  0.00    +0.000 A 
ATOM      7  C   UNL     1       2.568   4.106  20.175  0.00  0.00    +0.000 A 
ATOM      8  C   UNL     1       3.346   3.863  19.063  0.00  0.00    +0.000 A 
ATOM      9  C   UNL     1       3.691   4.930  18.244  0.00  0.00    +0.000 A 
ENDROOT
BRANCH   1  10
ATOM     10  N   UNL     1       5.702   4.037  17.108  0.00  0.00    +0.000 NA
ATOM     11  H   UNL     1       5.741   3.633  18.041  0.00  0.00    +0.000 HD
BRANCH  10  12
ATOM     12  C   UNL     1       6.919   4.792  16.881  0.00  0.00    +0.000 C 
BRANCH  12  14
ATOM     13  C   UNL     1       7.966   5.725  19.331  0.00  0.00    +0.000 C 
ATOM     14  C   UNL     1       7.482   5.294  18.201  0.00  0.00    +0.000 C 
ENDBRANCH  12  14
ENDBRANCH  10  12
ENDBRANCH   1  10
BRANCH   5  15
ATOM     15  O   UNL     1       1.956   7.730  19.965  0.00  0.00    +0.000 OA
BRANCH  15  16
ATOM     16  C   UNL     1       1.296   7.769  21.263  0.00  0.00    +0.000 C 
BRANCH  16  17
ATOM     17  C   UNL     1       0.575   9.066  21.461  0.00  0.00    +0.000 A 
ATOM     18  C   UNL     1      -0.045   9.343  22.698  0.00  0.00    +0.000 A 
ATOM     19  C   UNL     1      -0.789  10.512  22.850  0.00  0.00    +0.000 A 
ATOM     20  C   UNL     1      -0.923  11.394  21.776  0.00  0.00    +0.000 A 
ATOM     21  C   UNL     1      -0.322  11.107  20.557  0.00  0.00    +0.000 A 
ATOM     22 BR   UNL     1      -0.518  12.292  19.098  0.00  0.00    +0.000 Br
ATOM     23  C   UNL     1       0.422   9.946  20.379  0.00  0.00    +0.000 A 
ENDBRANCH  16  17
ENDBRANCH  15  16
ENDBRANCH   5  15
TORSDOF 6
ENDMDL
MODEL 5
REMARK VINA RESULT:      -6.9      2.045      2.458
REMARK  Name = 
REMARK  6 active torsions:
REMARK  status: ('A' for Active; 'I' for Inactive)
REMARK    1  A    between atoms: C_2  and  C_3
REMARK    2  A    between atoms: C_3  and  N_4
REMARK    3  A    between atoms: N_4  and  C_5
REMARK    4  A    between atoms: C_9  and  O_10
REMARK    5  A    between atoms: O_10  and  C_11
REMARK    6  A    between atoms: C_11  and  C_12
REMARK                            x       y       z     vdW  Elec       q    Type
REMARK                         _______ _______ _______ _____ _____    ______ ____
ROOT
ATOM      1  C   UNL     1       2.202   8.120  19.590  0.00  0.00    +0.000 C 
ATOM      2  C   UNL     1       2.456   8.304  18.083  0.00  0.00    +0.000 C 
ATOM      3  C   UNL     1       3.140   7.019  17.584  0.00  0.00    +0.000 C 
ATOM      4  C   UNL     1       2.543   5.994  18.484  0.00  0.00    +0.000 A 
ATOM      5  C   UNL     1       2.458   4.596  18.361  0.00  0.00    +0.000 A 
ATOM      6  C   UNL     1       1.877   3.889  19.416  0.00  0.00    +0.000 A 
ATOM      7  C   UNL     1       1.391   4.509  20.549  0.00  0.00    +0.000 A 
ATOM      8  C   UNL     1       1.469   5.878  20.686  0.00  0.00    +0.000 A 
ATOM      9  C   UNL     1       2.019   6.623  19.650  0.00  0.00    +0.000 A 
ENDROOT
BRANCH   1  10
ATOM     10  N   UNL     1       1.046   8.857  20.090  0.00  0.00    +0.000 NA
ATOM     11  H   UNL     1       0.201   8.305  19.958  0.00  0.00    +0.000 HD
BRANCH  10  12
ATOM     12  C   UNL     1       0.888  10.116  19.387  0.00  0.00    +0.000 C 
BRANCH  12  14
ATOM     13  C   UNL     1      -1.678  10.272  18.219  0.00  0.00    +0.000 C 
ATOM     14  C   UNL     1      -0.494  10.200  18.759  0.00  0.00    +0.000 C 
ENDBRANCH  12  14
ENDBRANCH  10  12
ENDBRANCH   1  10
BRANCH   5  15
ATOM     15  O   UNL     1       2.923   3.932  17.251  0.00  0.00    +0.000 OA
BRANCH  15  16
ATOM     16  C   UNL     1       4.213   3.293  17.476  0.00  0.00    +0.000 C 
BRANCH  16  17
ATOM     17  C   UNL     1       5.265   3.879  16.587  0.00  0.00    +0.000 A 
ATOM     18  C   UNL     1       6.128   4.879  17.084  0.00  0.00    +0.000 A 
ATOM     19  C   UNL     1       7.048   5.484  16.228  0.00  0.00    +0.000 A 
ATOM     20  C   UNL     1       7.103   5.102  14.887  0.00  0.00    +0.000 A 
ATOM     21  C   UNL     1       6.241   4.128  14.402  0.00  0.00    +0.000 A 
ATOM     22 BR   UNL     1       6.304   3.623  12.581  0.00  0.00    +0.000 Br
ATOM     23  C   UNL     1       5.312   3.512  15.233  0.00  0.00    +0.000 A 
ENDBRANCH  16  17
ENDBRANCH  15  16
ENDBRANCH   5  15
TORSDOF 6
ENDMDL
MODEL 6
REMARK VINA RESULT:      -6.9      3.391      7.696
REMARK  Name = 
REMARK  6 active torsions:
REMARK  status: ('A' for Active; 'I' for Inactive)
REMARK    1  A    between atoms: C_2  and  C_3
REMARK    2  A    between atoms: C_3  and  N_4
REMARK    3  A    between atoms: N_4  and  C_5
REMARK    4  A    between atoms: C_9  and  O_10
REMARK    5  A    between atoms: O_10  and  C_11
REMARK    6  A    between atoms: C_11  and  C_12
REMARK                            x       y       z     vdW  Elec       q    Type
REMARK                         _______ _______ _______ _____ _____    ______ ____
ROOT
ATOM      1  C   UNL     1       4.899   4.964  16.106  0.00  0.00    +0.000 C 
ATOM      2  C   UNL     1       5.665   6.168  16.683  0.00  0.00    +0.000 C 
ATOM      3  C   UNL     1       4.644   7.016  17.464  0.00  0.00    +0.000 C 
ATOM      4  C   UNL     1       3.701   5.972  17.951  0.00  0.00    +0.000 A 
ATOM      5  C   UNL     1       2.753   6.000  18.989  0.00  0.00    +0.000 A 
ATOM      6  C   UNL     1       1.964   4.862  19.174  0.00  0.00    +0.000 A 
ATOM      7  C   UNL     1       2.087   3.735  18.386  0.00  0.00    +0.000 A 
ATOM      8  C   UNL     1       3.009   3.694  17.363  0.00  0.00    +0.000 A 
ATOM      9  C   UNL     1       3.831   4.796  17.159  0.00  0.00    +0.000 A 
ENDROOT
BRANCH   1  10
ATOM     10  N   UNL     1       5.719   3.771  15.929  0.00  0.00    +0.000 NA
ATOM     11  H   UNL     1       6.188   3.541  16.803  0.00  0.00    +0.000 HD
BRANCH  10  12
ATOM     12  C   UNL     1       6.726   3.978  14.906  0.00  0.00    +0.000 C 
BRANCH  12  14
ATOM     13  C   UNL     1       5.647   3.455  12.350  0.00  0.00    +0.000 C 
ATOM     14  C   UNL     1       6.146   3.696  13.529  0.00  0.00    +0.000 C 
ENDBRANCH  12  14
ENDBRANCH  10  12
ENDBRANCH   1  10
BRANCH   5  15
ATOM     15  O   UNL     1       2.595   7.095  19.804  0.00  0.00    +0.000 OA
BRANCH  15  16
ATOM     16  C   UNL     1       1.770   8.133  19.199  0.00  0.00    +0.000 C 
BRANCH  16  17
ATOM     17  C   UNL     1       1.083   8.952  20.247  0.00  0.00    +0.000 A 
ATOM     18  C   UNL     1       1.203   8.597  21.607  0.00  0.00    +0.000 A 
ATOM     19  C   UNL     1       0.490   9.309  22.571  0.00  0.00    +0.000 A 
ATOM     20  C   UNL     1      -0.341  10.361  22.184  0.00  0.00    +0.000 A 
ATOM     21  C   UNL     1      -0.465  10.695  20.842  0.00  0.00    +0.000 A 
ATOM     22 BR   UNL     1      -1.605  12.108  20.316  0.00  0.00    +0.000 Br
ATOM     23  C   UNL     1       0.231   9.998  19.861  0.00  0.00    +0.000 A 
ENDBRANCH  16  17
ENDBRANCH  15  16
ENDBRANCH   5  15
TORSDOF 6
ENDMDL
MODEL 7
REMARK VINA RESULT:      -6.7      4.577      8.415
REMARK  Name = 
REMARK  6 active torsions:
REMARK  status: ('A' for Active; 'I' for Inactive)
REMARK    1  A    between atoms: C_2  and  C_3
REMARK    2  A    between atoms: C_3  and  N_4
REMARK    3  A    between atoms: N_4  and  C_5
REMARK    4  A    between atoms: C_9  and  O_10
REMARK    5  A    between atoms: O_10  and  C_11
REMARK    6  A    between atoms: C_11  and  C_12
REMARK                            x       y       z     vdW  Elec       q    Type
REMARK                         _______ _______ _______ _____ _____    ______ ____
ROOT
ATOM      1  C   UNL     1       2.214   7.209  19.080  0.00  0.00    +0.000 C 
ATOM      2  C   UNL     1       2.642   8.130  17.924  0.00  0.00    +0.000 C 
ATOM      3  C   UNL     1       1.605   9.265  17.848  0.00  0.00    +0.000 C 
ATOM      4  C   UNL     1       1.207   9.401  19.276  0.00  0.00    +0.000 A 
ATOM      5  C   UNL     1       0.572  10.452  19.960  0.00  0.00    +0.000 A 
ATOM      6  C   UNL     1       0.277  10.259  21.311  0.00  0.00    +0.000 A 
ATOM      7  C   UNL     1       0.586   9.093  21.981  0.00  0.00    +0.000 A 
ATOM      8  C   UNL     1       1.207   8.052  21.324  0.00  0.00    +0.000 A 
ATOM      9  C   UNL     1       1.539   8.210  19.985  0.00  0.00    +0.000 A 
ENDROOT
BRANCH   1  10
ATOM     10  N   UNL     1       3.324   6.514  19.725  0.00  0.00    +0.000 NA
ATOM     11  H   UNL     1       4.154   6.569  19.138  0.00  0.00    +0.000 HD
BRANCH  10  12
ATOM     12  C   UNL     1       3.006   5.117  19.945  0.00  0.00    +0.000 C 
BRANCH  12  14
ATOM     13  C   UNL     1       1.579   4.078  17.741  0.00  0.00    +0.000 C 
ATOM     14  C   UNL     1       2.238   4.557  18.758  0.00  0.00    +0.000 C 
ENDBRANCH  12  14
ENDBRANCH  10  12
ENDBRANCH   1  10
BRANCH   5  15
ATOM     15  O   UNL     1       0.247  11.635  19.339  0.00  0.00    +0.000 OA
BRANCH  15  16
ATOM     16  C   UNL     1      -0.937  12.263  19.909  0.00  0.00    +0.000 C 
BRANCH  16  17
ATOM     17  C   UNL     1      -2.138  12.027  19.047  0.00  0.00    +0.000 A 
ATOM     18  C   UNL     1      -3.430  12.269  19.560  0.00  0.00    +0.000 A 
ATOM     19  C   UNL     1      -4.548  11.965  18.784  0.00  0.00    +0.000 A 
ATOM     20  C   UNL     1      -4.382  11.417  17.511  0.00  0.00    +0.000 A 
ATOM     21  C   UNL     1      -3.107  11.168  17.019  0.00  0.00    +0.000 A 
ATOM     22 BR   UNL     1      -2.882  10.409  15.302  0.00  0.00    +0.000 Br
ATOM     23  C   UNL     1      -1.976  11.458  17.774  0.00  0.00    +0.000 A 
ENDBRANCH  16  17
ENDBRANCH  15  16
ENDBRANCH   5  15
TORSDOF 6
ENDMDL
MODEL 8
REMARK VINA RESULT:      -6.7      3.381      7.420
REMARK  Name = 
REMARK  6 active torsions:
REMARK  status: ('A' for Active; 'I' for Inactive)
REMARK    1  A    between atoms: C_2  and  C_3
REMARK    2  A    between atoms: C_3  and  N_4
REMARK    3  A    between atoms: N_4  and  C_5
REMARK    4  A    between atoms: C_9  and  O_10
REMARK    5  A    between atoms: O_10  and  C_11
REMARK    6  A    between atoms: C_11  and  C_12
REMARK                            x       y       z     vdW  Elec       q    Type
REMARK                         _______ _______ _______ _____ _____    ______ ____
ROOT
ATOM      1  C   UNL     1       4.947   4.979  15.904  0.00  0.00    +0.000 C 
ATOM      2  C   UNL     1       5.722   6.155  16.524  0.00  0.00    +0.000 C 
ATOM      3  C   UNL     1       4.752   6.877  17.477  0.00  0.00    +0.000 C 
ATOM      4  C   UNL     1       3.900   5.750  17.945  0.00  0.00    +0.000 A 
ATOM      5  C   UNL     1       3.058   5.635  19.065  0.00  0.00    +0.000 A 
ATOM      6  C   UNL     1       2.332   4.450  19.208  0.00  0.00    +0.000 A 
ATOM      7  C   UNL     1       2.418   3.410  18.305  0.00  0.00    +0.000 A 
ATOM      8  C   UNL     1       3.237   3.509  17.201  0.00  0.00    +0.000 A 
ATOM      9  C   UNL     1       3.994   4.662  17.031  0.00  0.00    +0.000 A 
ENDROOT
BRANCH   1  10
ATOM     10  N   UNL     1       5.789   3.846  15.533  0.00  0.00    +0.000 NA
ATOM     11  H   UNL     1       6.415   3.614  16.302  0.00  0.00    +0.000 HD
BRANCH  10  12
ATOM     12  C   UNL     1       6.589   4.154  14.363  0.00  0.00    +0.000 C 
BRANCH  12  14
ATOM     13  C   UNL     1       5.300   3.235  12.026  0.00  0.00    +0.000 C 
ATOM     14  C   UNL     1       5.895   3.659  13.104  0.00  0.00    +0.000 C 
ENDBRANCH  12  14
ENDBRANCH  10  12
ENDBRANCH   1  10
BRANCH   5  15
ATOM     15  O   UNL     1       2.940   6.639  19.996  0.00  0.00    +0.000 OA
BRANCH  15  16
ATOM     16  C   UNL     1       1.593   6.750  20.539  0.00  0.00    +0.000 C 
BRANCH  16  17
ATOM     17  C   UNL     1       1.091   8.157  20.450  0.00  0.00    +0.000 A 
ATOM     18  C   UNL     1       1.428   8.954  19.335  0.00  0.00    +0.000 A 
ATOM     19  C   UNL     1       1.033  10.291  19.298  0.00  0.00    +0.000 A 
ATOM     20  C   UNL     1       0.316  10.833  20.366  0.00  0.00    +0.000 A 
ATOM     21  C   UNL     1       0.001  10.046  21.465  0.00  0.00    +0.000 A 
ATOM     22 BR   UNL     1      -0.956  10.784  22.920  0.00  0.00    +0.000 Br
ATOM     23  C   UNL     1       0.386   8.712  21.529  0.00  0.00    +0.000 A 
ENDBRANCH  16  17
ENDBRANCH  15  16
ENDBRANCH   5  15
TORSDOF 6
ENDMDL
MODEL 9
REMARK VINA RESULT:      -6.7      3.294      7.142
REMARK  Name = 
REMARK  6 active torsions:
REMARK  status: ('A' for Active; 'I' for Inactive)
REMARK    1  A    between atoms: C_2  and  C_3
REMARK    2  A    between atoms: C_3  and  N_4
REMARK    3  A    between atoms: N_4  and  C_5
REMARK    4  A    between atoms: C_9  and  O_10
REMARK    5  A    between atoms: O_10  and  C_11
REMARK    6  A    between atoms: C_11  and  C_12
REMARK                            x       y       z     vdW  Elec       q    Type
REMARK                         _______ _______ _______ _____ _____    ______ ____
ROOT
ATOM      1  C   UNL     1       4.305   4.447  17.606  0.00  0.00    +0.000 C 
ATOM      2  C   UNL     1       4.143   5.970  17.459  0.00  0.00    +0.000 C 
ATOM      3  C   UNL     1       2.793   6.340  18.098  0.00  0.00    +0.000 C 
ATOM      4  C   UNL     1       2.682   5.319  19.175  0.00  0.00    +0.000 A 
ATOM      5  C   UNL     1       1.888   5.285  20.335  0.00  0.00    +0.000 A 
ATOM      6  C   UNL     1       1.967   4.144  21.138  0.00  0.00    +0.000 A 
ATOM      7  C   UNL     1       2.786   3.076  20.835  0.00  0.00    +0.000 A 
ATOM      8  C   UNL     1       3.568   3.093  19.701  0.00  0.00    +0.000 A 
ATOM      9  C   UNL     1       3.538   4.217  18.885  0.00  0.00    +0.000 A 
ENDROOT
BRANCH   1  10
ATOM     10  N   UNL     1       5.693   4.004  17.686  0.00  0.00    +0.000 NA
ATOM     11  H   UNL     1       6.039   4.120  18.637  0.00  0.00    +0.000 HD
BRANCH  10  12
ATOM     12  C   UNL     1       6.537   4.775  16.793  0.00  0.00    +0.000 C 
BRANCH  12  14
ATOM     13  C   UNL     1       6.225   3.879  14.133  0.00  0.00    +0.000 C 
ATOM     14  C   UNL     1       6.369   4.293  15.361  0.00  0.00    +0.000 C 
ENDBRANCH  12  14
ENDBRANCH  10  12
ENDBRANCH   1  10
BRANCH   5  15
ATOM     15  O   UNL     1       1.061   6.325  20.683  0.00  0.00    +0.000 OA
BRANCH  15  16
ATOM     16  C   UNL     1       1.793   7.529  21.053  0.00  0.00    +0.000 C 
BRANCH  16  17
ATOM     17  C   UNL     1       0.988   8.758  20.765  0.00  0.00    +0.000 A 
ATOM     18  C   UNL     1       1.038   9.346  19.484  0.00  0.00    +0.000 A 
ATOM     19  C   UNL     1       0.356  10.539  19.246  0.00  0.00    +0.000 A 
ATOM     20  C   UNL     1      -0.362  11.146  20.277  0.00  0.00    +0.000 A 
ATOM     21  C   UNL     1      -0.394  10.568  21.539  0.00  0.00    +0.000 A 
ATOM     22 BR   UNL     1      -1.352  11.400  22.941  0.00  0.00    +0.000 Br
ATOM     23  C   UNL     1       0.280   9.382  21.804  0.00  0.00    +0.000 A 
ENDBRANCH  16  17
ENDBRANCH  15  16
ENDBRANCH   5  15
TORSDOF 6
ENDMDL
