MODEL 1
REMARK VINA RESULT:      -7.7      0.000      0.000
REMARK  Name = 
REMARK  8 active torsions:
REMARK  status: ('A' for Active; 'I' for Inactive)
REMARK    1  A    between atoms: C_1  and  O_2
REMARK    2  A    between atoms: O_2  and  C_3
REMARK    3  A    between atoms: C_6  and  C_7
REMARK    4  A    between atoms: C_12  and  O_13
REMARK    5  A    between atoms: C_14  and  C_15
REMARK    6  A    between atoms: C_16  and  O_17
REMARK    7  A    between atoms: O_17  and  C_18
REMARK    8  A    between atoms: C_19  and  C_20
REMARK                            x       y       z     vdW  Elec       q    Type
REMARK                         _______ _______ _______ _____ _____    ______ ____
ROOT
ATOM      1  C   UNL     1       1.267   8.251  20.197  0.00  0.00    +0.000 A 
ATOM      2  C   UNL     1       1.838   8.892  19.169  0.00  0.00    +0.000 A 
ATOM      3  C   UNL     1       2.543   8.127  18.164  0.00  0.00    +0.000 A 
ATOM      4  O   UNL     1       2.775   8.618  17.070  0.00  0.00    +0.000 OA
ATOM      5  C   UNL     1       2.961   6.796  18.537  0.00  0.00    +0.000 A 
ATOM      6  C   UNL     1       3.909   6.155  17.731  0.00  0.00    +0.000 A 
ATOM      7  C   UNL     1       4.413   4.912  18.100  0.00  0.00    +0.000 A 
ATOM      8  C   UNL     1       5.505   4.270  17.275  0.00  0.00    +0.000 C 
ATOM      9  C   UNL     1       3.917   4.300  19.276  0.00  0.00    +0.000 A 
ATOM     10  C   UNL     1       2.927   4.938  20.083  0.00  0.00    +0.000 A 
ATOM     11  C   UNL     1       2.349   4.284  21.312  0.00  0.00    +0.000 C 
ATOM     12  C   UNL     1       2.459   6.224  19.709  0.00  0.00    +0.000 A 
ATOM     13  O   UNL     1       1.502   6.896  20.481  0.00  0.00    +0.000 OA
ENDROOT
BRANCH   1  17
ATOM     14  C   UNL     1      -0.832  11.049  22.710  0.00  0.00    +0.000 A 
ATOM     15  C   UNL     1      -0.743  11.244  21.344  0.00  0.00    +0.000 A 
ATOM     16  C   UNL     1      -0.187  10.252  20.539  0.00  0.00    +0.000 A 
ATOM     17  C   UNL     1       0.402   9.086  21.076  0.00  0.00    +0.000 A 
ATOM     18  C   UNL     1       0.210   8.852  22.439  0.00  0.00    +0.000 A 
ATOM     19  C   UNL     1      -0.404   9.832  23.252  0.00  0.00    +0.000 A 
BRANCH  14  21
ATOM     20  C   UNL     1      -2.728  12.296  23.393  0.00  0.00    +0.000 C 
ATOM     21  O   UNL     1      -1.322  12.130  23.380  0.00  0.00    +0.000 OA
ENDBRANCH  14  21
ENDBRANCH   1  17
BRANCH   6  22
ATOM     22  O   UNL     1       4.372   6.722  16.568  0.00  0.00    +0.000 OA
ATOM     23  H   UNL     1       4.380   7.702  16.673  0.00  0.00    +0.000 HD
ENDBRANCH   6  22
BRANCH   9  24
ATOM     24  O   UNL     1       4.312   2.992  19.442  0.00  0.00    +0.000 OA
ATOM     25  C   UNL     1       3.483   1.973  18.893  0.00  0.00    +0.000 C 
ENDBRANCH   9  24
TORSDOF 4
ENDMDL
MODEL 2
REMARK VINA RESULT:      -7.6      1.459      7.517
REMARK  Name = 
REMARK  8 active torsions:
REMARK  status: ('A' for Active; 'I' for Inactive)
REMARK    1  A    between atoms: C_1  and  O_2
REMARK    2  A    between atoms: O_2  and  C_3
REMARK    3  A    between atoms: C_6  and  C_7
REMARK    4  A    between atoms: C_12  and  O_13
REMARK    5  A    between atoms: C_14  and  C_15
REMARK    6  A    between atoms: C_16  and  O_17
REMARK    7  A    between atoms: O_17  and  C_18
REMARK    8  A    between atoms: C_19  and  C_20
REMARK                            x       y       z     vdW  Elec       q    Type
REMARK                         _______ _______ _______ _____ _____    ______ ____
ROOT
ATOM      1  C   UNL     1       1.982   7.520  19.869  0.00  0.00    +0.000 A 
ATOM      2  C   UNL     1       2.092   8.066  18.651  0.00  0.00    +0.000 A 
ATOM      3  C   UNL     1       1.716   9.450  18.461  0.00  0.00    +0.000 A 
ATOM      4  O   UNL     1       2.110  10.064  17.481  0.00  0.00    +0.000 OA
ATOM      5  C   UNL     1       0.852  10.030  19.462  0.00  0.00    +0.000 A 
ATOM      6  C   UNL     1       0.212  11.237  19.157  0.00  0.00    +0.000 A 
ATOM      7  C   UNL     1      -0.701  11.788  20.051  0.00  0.00    +0.000 A 
ATOM      8  C   UNL     1      -1.459  13.040  19.673  0.00  0.00    +0.000 C 
ATOM      9  C   UNL     1      -0.932  11.125  21.280  0.00  0.00    +0.000 A 
ATOM     10  C   UNL     1      -0.257   9.910  21.606  0.00  0.00    +0.000 A 
ATOM     11  C   UNL     1      -0.450   9.214  22.928  0.00  0.00    +0.000 C 
ATOM     12  C   UNL     1       0.638   9.347  20.662  0.00  0.00    +0.000 A 
ATOM     13  O   UNL     1       1.309   8.146  20.931  0.00  0.00    +0.000 OA
ENDROOT
BRANCH   1  17
ATOM     14  C   UNL     1       3.566   3.517  19.767  0.00  0.00    +0.000 A 
ATOM     15  C   UNL     1       4.260   4.573  19.207  0.00  0.00    +0.000 A 
ATOM     16  C   UNL     1       3.796   5.875  19.382  0.00  0.00    +0.000 A 
ATOM     17  C   UNL     1       2.569   6.160  20.021  0.00  0.00    +0.000 A 
ATOM     18  C   UNL     1       1.936   5.100  20.673  0.00  0.00    +0.000 A 
ATOM     19  C   UNL     1       2.434   3.783  20.545  0.00  0.00    +0.000 A 
BRANCH  14  21
ATOM     20  C   UNL     1       3.440   1.571  18.421  0.00  0.00    +0.000 C 
ATOM     21  O   UNL     1       4.088   2.298  19.449  0.00  0.00    +0.000 OA
ENDBRANCH  14  21
ENDBRANCH   1  17
BRANCH   6  22
ATOM     22  O   UNL     1       0.455  11.909  17.983  0.00  0.00    +0.000 OA
ATOM     23  H   UNL     1       0.950  11.314  17.373  0.00  0.00    +0.000 HD
ENDBRANCH   6  22
BRANCH   9  24
ATOM     24  O   UNL     1      -1.682  11.849  22.179  0.00  0.00    +0.000 OA
ATOM     25  C   UNL     1      -1.007  12.811  22.983  0.00  0.00    +0.000 C 
ENDBRANCH   9  24
TORSDOF 4
ENDMDL
MODEL 3
REMARK VINA RESULT:      -7.4      0.359      1.041
REMARK  Name = 
REMARK  8 active torsions:
REMARK  status: ('A' for Active; 'I' for Inactive)
REMARK    1  A    between atoms: C_1  and  O_2
REMARK    2  A    between atoms: O_2  and  C_3
REMARK    3  A    between atoms: C_6  and  C_7
REMARK    4  A    between atoms: C_12  and  O_13
REMARK    5  A    between atoms: C_14  and  C_15
REMARK    6  A    between atoms: C_16  and  O_17
REMARK    7  A    between atoms: O_17  and  C_18
REMARK    8  A    between atoms: C_19  and  C_20
REMARK                            x       y       z     vdW  Elec       q    Type
REMARK                         _______ _______ _______ _____ _____    ______ ____
ROOT
ATOM      1  C   UNL     1       1.484   8.455  20.102  0.00  0.00    +0.000 A 
ATOM      2  C   UNL     1       2.082   9.005  19.037  0.00  0.00    +0.000 A 
ATOM      3  C   UNL     1       2.680   8.145  18.040  0.00  0.00    +0.000 A 
ATOM      4  O   UNL     1       2.925   8.577  16.924  0.00  0.00    +0.000 OA
ATOM      5  C   UNL     1       2.981   6.792  18.448  0.00  0.00    +0.000 A 
ATOM      6  C   UNL     1       3.839   6.038  17.639  0.00  0.00    +0.000 A 
ATOM      7  C   UNL     1       4.233   4.764  18.036  0.00  0.00    +0.000 A 
ATOM      8  C   UNL     1       5.234   3.995  17.205  0.00  0.00    +0.000 C 
ATOM      9  C   UNL     1       3.716   4.240  19.245  0.00  0.00    +0.000 A 
ATOM     10  C   UNL     1       2.817   4.996  20.056  0.00  0.00    +0.000 A 
ATOM     11  C   UNL     1       2.216   4.439  21.321  0.00  0.00    +0.000 C 
ATOM     12  C   UNL     1       2.462   6.308  19.651  0.00  0.00    +0.000 A 
ATOM     13  O   UNL     1       1.597   7.093  20.425  0.00  0.00    +0.000 OA
ENDROOT
BRANCH   1  17
ATOM     14  C   UNL     1      -1.091  10.780  22.653  0.00  0.00    +0.000 A 
ATOM     15  C   UNL     1      -0.365   9.715  23.152  0.00  0.00    +0.000 A 
ATOM     16  C   UNL     1       0.569   9.074  22.341  0.00  0.00    +0.000 A 
ATOM     17  C   UNL     1       0.729   9.396  20.975  0.00  0.00    +0.000 A 
ATOM     18  C   UNL     1       0.071  10.538  20.514  0.00  0.00    +0.000 A 
ATOM     19  C   UNL     1      -0.836  11.226  21.352  0.00  0.00    +0.000 A 
BRANCH  14  21
ATOM     20  C   UNL     1      -2.769  12.388  23.117  0.00  0.00    +0.000 C 
ATOM     21  O   UNL     1      -2.021  11.257  23.528  0.00  0.00    +0.000 OA
ENDBRANCH  14  21
ENDBRANCH   1  17
BRANCH   6  22
ATOM     22  O   UNL     1       4.319   6.521  16.445  0.00  0.00    +0.000 OA
ATOM     23  H   UNL     1       5.237   6.188  16.313  0.00  0.00    +0.000 HD
ENDBRANCH   6  22
BRANCH   9  24
ATOM     24  O   UNL     1       3.990   2.906  19.445  0.00  0.00    +0.000 OA
ATOM     25  C   UNL     1       3.077   1.954  18.912  0.00  0.00    +0.000 C 
ENDBRANCH   9  24
TORSDOF 4
ENDMDL
MODEL 4
REMARK VINA RESULT:      -7.2      1.432      3.212
REMARK  Name = 
REMARK  8 active torsions:
REMARK  status: ('A' for Active; 'I' for Inactive)
REMARK    1  A    between atoms: C_1  and  O_2
REMARK    2  A    between atoms: O_2  and  C_3
REMARK    3  A    between atoms: C_6  and  C_7
REMARK    4  A    between atoms: C_12  and  O_13
REMARK    5  A    between atoms: C_14  and  C_15
REMARK    6  A    between atoms: C_16  and  O_17
REMARK    7  A    between atoms: O_17  and  C_18
REMARK    8  A    between atoms: C_19  and  C_20
REMARK                            x       y       z     vdW  Elec       q    Type
REMARK                         _______ _______ _______ _____ _____    ______ ____
ROOT
ATOM      1  C   UNL     1       1.848   7.270  20.216  0.00  0.00    +0.000 A 
ATOM      2  C   UNL     1       1.345   6.222  20.880  0.00  0.00    +0.000 A 
ATOM      3  C   UNL     1       1.951   4.920  20.709  0.00  0.00    +0.000 A 
ATOM      4  O   UNL     1       1.748   4.036  21.528  0.00  0.00    +0.000 OA
ATOM      5  C   UNL     1       2.767   4.734  19.532  0.00  0.00    +0.000 A 
ATOM      6  C   UNL     1       3.100   3.425  19.163  0.00  0.00    +0.000 A 
ATOM      7  C   UNL     1       3.804   3.189  17.986  0.00  0.00    +0.000 A 
ATOM      8  C   UNL     1       4.076   1.769  17.548  0.00  0.00    +0.000 C 
ATOM      9  C   UNL     1       4.206   4.297  17.202  0.00  0.00    +0.000 A 
ATOM     10  C   UNL     1       3.894   5.635  17.593  0.00  0.00    +0.000 A 
ATOM     11  C   UNL     1       4.355   6.831  16.800  0.00  0.00    +0.000 C 
ATOM     12  C   UNL     1       3.140   5.848  18.774  0.00  0.00    +0.000 A 
ATOM     13  O   UNL     1       2.795   7.142  19.187  0.00  0.00    +0.000 OA
ENDROOT
BRANCH   1  17
ATOM     14  C   UNL     1      -0.231  10.844  21.417  0.00  0.00    +0.000 A 
ATOM     15  C   UNL     1       0.187   9.915  22.350  0.00  0.00    +0.000 A 
ATOM     16  C   UNL     1       0.984   8.845  21.951  0.00  0.00    +0.000 A 
ATOM     17  C   UNL     1       1.293   8.599  20.594  0.00  0.00    +0.000 A 
ATOM     18  C   UNL     1       0.958   9.599  19.679  0.00  0.00    +0.000 A 
ATOM     19  C   UNL     1       0.196  10.717  20.091  0.00  0.00    +0.000 A 
BRANCH  14  21
ATOM     20  C   UNL     1      -1.717  11.478  23.152  0.00  0.00    +0.000 C 
ATOM     21  O   UNL     1      -1.068  11.790  21.932  0.00  0.00    +0.000 OA
ENDBRANCH  14  21
ENDBRANCH   1  17
BRANCH   6  22
ATOM     22  O   UNL     1       2.746   2.344  19.934  0.00  0.00    +0.000 OA
ATOM     23  H   UNL     1       2.736   2.618  20.881  0.00  0.00    +0.000 HD
ENDBRANCH   6  22
BRANCH   9  24
ATOM     24  O   UNL     1       5.073   3.981  16.181  0.00  0.00    +0.000 OA
ATOM     25  C   UNL     1       6.454   4.272  16.368  0.00  0.00    +0.000 C 
ENDBRANCH   9  24
TORSDOF 4
ENDMDL
MODEL 5
REMARK VINA RESULT:      -7.2      1.634      7.564
REMARK  Name = 
REMARK  8 active torsions:
REMARK  status: ('A' for Active; 'I' for Inactive)
REMARK    1  A    between atoms: C_1  and  O_2
REMARK    2  A    between atoms: O_2  and  C_3
REMARK    3  A    between atoms: C_6  and  C_7
REMARK    4  A    between atoms: C_12  and  O_13
REMARK    5  A    between atoms: C_14  and  C_15
REMARK    6  A    between atoms: C_16  and  O_17
REMARK    7  A    between atoms: O_17  and  C_18
REMARK    8  A    between atoms: C_19  and  C_20
REMARK                            x       y       z     vdW  Elec       q    Type
REMARK                         _______ _______ _______ _____ _____    ______ ____
ROOT
ATOM      1  C   UNL     1       2.202   8.023  19.003  0.00  0.00    +0.000 A 
ATOM      2  C   UNL     1       2.365   8.832  17.948  0.00  0.00    +0.000 A 
ATOM      3  C   UNL     1       1.953  10.214  18.047  0.00  0.00    +0.000 A 
ATOM      4  O   UNL     1       2.382  11.041  17.257  0.00  0.00    +0.000 OA
ATOM      5  C   UNL     1       1.011  10.536  19.094  0.00  0.00    +0.000 A 
ATOM      6  C   UNL     1       0.348  11.767  19.026  0.00  0.00    +0.000 A 
ATOM      7  C   UNL     1      -0.635  12.083  19.957  0.00  0.00    +0.000 A 
ATOM      8  C   UNL     1      -1.412  13.373  19.820  0.00  0.00    +0.000 C 
ATOM      9  C   UNL     1      -0.915  11.156  20.990  0.00  0.00    +0.000 A 
ATOM     10  C   UNL     1      -0.218   9.913  21.080  0.00  0.00    +0.000 A 
ATOM     11  C   UNL     1      -0.465   8.934  22.198  0.00  0.00    +0.000 C 
ATOM     12  C   UNL     1       0.751   9.596  20.094  0.00  0.00    +0.000 A 
ATOM     13  O   UNL     1       1.446   8.380  20.132  0.00  0.00    +0.000 OA
ENDROOT
BRANCH   1  17
ATOM     14  C   UNL     1       4.287   4.257  19.127  0.00  0.00    +0.000 A 
ATOM     15  C   UNL     1       3.253   4.529  20.003  0.00  0.00    +0.000 A 
ATOM     16  C   UNL     1       2.502   5.692  19.846  0.00  0.00    +0.000 A 
ATOM     17  C   UNL     1       2.826   6.676  18.886  0.00  0.00    +0.000 A 
ATOM     18  C   UNL     1       3.799   6.341  17.942  0.00  0.00    +0.000 A 
ATOM     19  C   UNL     1       4.527   5.136  18.065  0.00  0.00    +0.000 A 
BRANCH  14  21
ATOM     20  C   UNL     1       4.321   2.169  20.248  0.00  0.00    +0.000 C 
ATOM     21  O   UNL     1       4.985   3.130  19.447  0.00  0.00    +0.000 OA
ENDBRANCH  14  21
ENDBRANCH   1  17
BRANCH   6  22
ATOM     22  O   UNL     1       0.637  12.691  18.049  0.00  0.00    +0.000 OA
ATOM     23  H   UNL     1       0.705  13.582  18.465  0.00  0.00    +0.000 HD
ENDBRANCH   6  22
BRANCH   9  24
ATOM     24  O   UNL     1      -1.741  11.643  21.977  0.00  0.00    +0.000 OA
ATOM     25  C   UNL     1      -1.145  12.391  23.032  0.00  0.00    +0.000 C 
ENDBRANCH   9  24
TORSDOF 4
ENDMDL
MODEL 6
REMARK VINA RESULT:      -6.9      1.525      3.124
REMARK  Name = 
REMARK  8 active torsions:
REMARK  status: ('A' for Active; 'I' for Inactive)
REMARK    1  A    between atoms: C_1  and  O_2
REMARK    2  A    between atoms: O_2  and  C_3
REMARK    3  A    between atoms: C_6  and  C_7
REMARK    4  A    between atoms: C_12  and  O_13
REMARK    5  A    between atoms: C_14  and  C_15
REMARK    6  A    between atoms: C_16  and  O_17
REMARK    7  A    between atoms: O_17  and  C_18
REMARK    8  A    between atoms: C_19  and  C_20
REMARK                            x       y       z     vdW  Elec       q    Type
REMARK                         _______ _______ _______ _____ _____    ______ ____
ROOT
ATOM      1  C   UNL     1       1.710   7.179  20.320  0.00  0.00    +0.000 A 
ATOM      2  C   UNL     1       1.255   6.089  20.950  0.00  0.00    +0.000 A 
ATOM      3  C   UNL     1       1.915   4.821  20.733  0.00  0.00    +0.000 A 
ATOM      4  O   UNL     1       1.753   3.902  21.522  0.00  0.00    +0.000 OA
ATOM      5  C   UNL     1       2.731   4.709  19.547  0.00  0.00    +0.000 A 
ATOM      6  C   UNL     1       3.116   3.428  19.133  0.00  0.00    +0.000 A 
ATOM      7  C   UNL     1       3.823   3.262  17.946  0.00  0.00    +0.000 A 
ATOM      8  C   UNL     1       4.153   1.870  17.459  0.00  0.00    +0.000 C 
ATOM      9  C   UNL     1       4.174   4.411  17.198  0.00  0.00    +0.000 A 
ATOM     10  C   UNL     1       3.808   5.721  17.634  0.00  0.00    +0.000 A 
ATOM     11  C   UNL     1       4.213   6.961  16.880  0.00  0.00    +0.000 C 
ATOM     12  C   UNL     1       3.052   5.862  18.826  0.00  0.00    +0.000 A 
ATOM     13  O   UNL     1       2.655   7.126  19.282  0.00  0.00    +0.000 OA
ENDROOT
BRANCH   1  17
ATOM     14  C   UNL     1       0.467  11.122  21.526  0.00  0.00    +0.000 A 
ATOM     15  C   UNL     1       0.814  10.853  20.216  0.00  0.00    +0.000 A 
ATOM     16  C   UNL     1       1.070   9.541  19.823  0.00  0.00    +0.000 A 
ATOM     17  C   UNL     1       1.101   8.471  20.745  0.00  0.00    +0.000 A 
ATOM     18  C   UNL     1       0.646   8.737  22.037  0.00  0.00    +0.000 A 
ATOM     19  C   UNL     1       0.331  10.059  22.425  0.00  0.00    +0.000 A 
BRANCH  14  21
ATOM     20  C   UNL     1      -0.903  12.869  22.357  0.00  0.00    +0.000 C 
ATOM     21  O   UNL     1       0.324  12.453  21.786  0.00  0.00    +0.000 OA
ENDBRANCH  14  21
ENDBRANCH   1  17
BRANCH   6  22
ATOM     22  O   UNL     1       2.813   2.308  19.869  0.00  0.00    +0.000 OA
ATOM     23  H   UNL     1       2.212   2.565  20.606  0.00  0.00    +0.000 HD
ENDBRANCH   6  22
BRANCH   9  24
ATOM     24  O   UNL     1       5.047   4.166  16.163  0.00  0.00    +0.000 OA
ATOM     25  C   UNL     1       6.438   4.336  16.414  0.00  0.00    +0.000 C 
ENDBRANCH   9  24
TORSDOF 4
ENDMDL
MODEL 7
REMARK VINA RESULT:      -6.8      3.709      8.869
REMARK  Name = 
REMARK  8 active torsions:
REMARK  status: ('A' for Active; 'I' for Inactive)
REMARK    1  A    between atoms: C_1  and  O_2
REMARK    2  A    between atoms: O_2  and  C_3
REMARK    3  A    between atoms: C_6  and  C_7
REMARK    4  A    between atoms: C_12  and  O_13
REMARK    5  A    between atoms: C_14  and  C_15
REMARK    6  A    between atoms: C_16  and  O_17
REMARK    7  A    between atoms: O_17  and  C_18
REMARK    8  A    between atoms: C_19  and  C_20
REMARK                            x       y       z     vdW  Elec       q    Type
REMARK                         _______ _______ _______ _____ _____    ______ ____
ROOT
ATOM      1  C   UNL     1       5.035   4.891  15.617  0.00  0.00    +0.000 A 
ATOM      2  C   UNL     1       4.839   6.194  15.858  0.00  0.00    +0.000 A 
ATOM      3  C   UNL     1       4.359   6.607  17.158  0.00  0.00    +0.000 A 
ATOM      4  O   UNL     1       4.488   7.767  17.520  0.00  0.00    +0.000 OA
ATOM      5  C   UNL     1       3.714   5.596  17.963  0.00  0.00    +0.000 A 
ATOM      6  C   UNL     1       2.960   6.015  19.065  0.00  0.00    +0.000 A 
ATOM      7  C   UNL     1       2.245   5.087  19.815  0.00  0.00    +0.000 A 
ATOM      8  C   UNL     1       1.358   5.559  20.944  0.00  0.00    +0.000 C 
ATOM      9  C   UNL     1       2.332   3.718  19.464  0.00  0.00    +0.000 A 
ATOM     10  C   UNL     1       3.126   3.285  18.359  0.00  0.00    +0.000 A 
ATOM     11  C   UNL     1       3.273   1.830  17.998  0.00  0.00    +0.000 C 
ATOM     12  C   UNL     1       3.812   4.254  17.584  0.00  0.00    +0.000 A 
ATOM     13  O   UNL     1       4.588   3.877  16.480  0.00  0.00    +0.000 OA
ENDROOT
BRANCH   1  17
ATOM     14  C   UNL     1       7.025   3.435  12.086  0.00  0.00    +0.000 A 
ATOM     15  C   UNL     1       5.695   3.144  12.328  0.00  0.00    +0.000 A 
ATOM     16  C   UNL     1       5.039   3.747  13.398  0.00  0.00    +0.000 A 
ATOM     17  C   UNL     1       5.711   4.568  14.330  0.00  0.00    +0.000 A 
ATOM     18  C   UNL     1       7.019   4.940  14.015  0.00  0.00    +0.000 A 
ATOM     19  C   UNL     1       7.673   4.373  12.897  0.00  0.00    +0.000 A 
BRANCH  14  21
ATOM     20  C   UNL     1       7.020   1.426  10.829  0.00  0.00    +0.000 C 
ATOM     21  O   UNL     1       7.559   2.715  11.059  0.00  0.00    +0.000 OA
ENDBRANCH  14  21
ENDBRANCH   1  17
BRANCH   6  22
ATOM     22  O   UNL     1       2.896   7.336  19.438  0.00  0.00    +0.000 OA
ATOM     23  H   UNL     1       2.334   7.413  20.243  0.00  0.00    +0.000 HD
ENDBRANCH   6  22
BRANCH   9  24
ATOM     24  O   UNL     1       1.769   2.863  20.383  0.00  0.00    +0.000 OA
ATOM     25  C   UNL     1       2.538   2.523  21.532  0.00  0.00    +0.000 C 
ENDBRANCH   9  24
TORSDOF 4
ENDMDL
MODEL 8
REMARK VINA RESULT:      -6.7      1.923      8.149
REMARK  Name = 
REMARK  8 active torsions:
REMARK  status: ('A' for Active; 'I' for Inactive)
REMARK    1  A    between atoms: C_1  and  O_2
REMARK    2  A    between atoms: O_2  and  C_3
REMARK    3  A    between atoms: C_6  and  C_7
REMARK    4  A    between atoms: C_12  and  O_13
REMARK    5  A    between atoms: C_14  and  C_15
REMARK    6  A    between atoms: C_16  and  O_17
REMARK    7  A    between atoms: O_17  and  C_18
REMARK    8  A    between atoms: C_19  and  C_20
REMARK                            x       y       z     vdW  Elec       q    Type
REMARK                         _______ _______ _______ _____ _____    ______ ____
ROOT
ATOM      1  C   UNL     1       1.239   8.263  20.441  0.00  0.00    +0.000 A 
ATOM      2  C   UNL     1       1.505   8.637  21.699  0.00  0.00    +0.000 A 
ATOM      3  C   UNL     1       0.603   9.546  22.371  0.00  0.00    +0.000 A 
ATOM      4  O   UNL     1       0.621   9.640  23.589  0.00  0.00    +0.000 OA
ATOM      5  C   UNL     1      -0.274  10.328  21.531  0.00  0.00    +0.000 A 
ATOM      6  C   UNL     1      -0.918  11.432  22.102  0.00  0.00    +0.000 A 
ATOM      7  C   UNL     1      -1.698  12.270  21.312  0.00  0.00    +0.000 A 
ATOM      8  C   UNL     1      -2.313  13.512  21.916  0.00  0.00    +0.000 C 
ATOM      9  C   UNL     1      -1.856  11.957  19.940  0.00  0.00    +0.000 A 
ATOM     10  C   UNL     1      -1.224  10.815  19.363  0.00  0.00    +0.000 A 
ATOM     11  C   UNL     1      -1.418  10.435  17.917  0.00  0.00    +0.000 C 
ATOM     12  C   UNL     1      -0.400   9.999  20.179  0.00  0.00    +0.000 A 
ATOM     13  O   UNL     1       0.254   8.877  19.651  0.00  0.00    +0.000 OA
ENDROOT
BRANCH   1  17
ATOM     14  C   UNL     1       3.355   5.078  18.461  0.00  0.00    +0.000 A 
ATOM     15  C   UNL     1       3.322   6.352  17.927  0.00  0.00    +0.000 A 
ATOM     16  C   UNL     1       2.757   7.394  18.659  0.00  0.00    +0.000 A 
ATOM     17  C   UNL     1       2.104   7.181  19.894  0.00  0.00    +0.000 A 
ATOM     18  C   UNL     1       2.238   5.916  20.469  0.00  0.00    +0.000 A 
ATOM     19  C   UNL     1       2.861   4.869  19.753  0.00  0.00    +0.000 A 
BRANCH  14  21
ATOM     20  C   UNL     1       3.369   2.824  17.727  0.00  0.00    +0.000 C 
ATOM     21  O   UNL     1       3.862   4.146  17.605  0.00  0.00    +0.000 OA
ENDBRANCH  14  21
ENDBRANCH   1  17
BRANCH   6  22
ATOM     22  O   UNL     1      -0.803  11.726  23.440  0.00  0.00    +0.000 OA
ATOM     23  H   UNL     1      -1.364  11.099  23.953  0.00  0.00    +0.000 HD
ENDBRANCH   6  22
BRANCH   9  24
ATOM     24  O   UNL     1      -2.808  12.713  19.295  0.00  0.00    +0.000 OA
ATOM     25  C   UNL     1      -4.141  12.217  19.264  0.00  0.00    +0.000 C 
ENDBRANCH   9  24
TORSDOF 4
ENDMDL
MODEL 9
REMARK VINA RESULT:      -6.7      1.875      8.154
REMARK  Name = 
REMARK  8 active torsions:
REMARK  status: ('A' for Active; 'I' for Inactive)
REMARK    1  A    between atoms: C_1  and  O_2
REMARK    2  A    between atoms: O_2  and  C_3
REMARK    3  A    between atoms: C_6  and  C_7
REMARK    4  A    between atoms: C_12  and  O_13
REMARK    5  A    between atoms: C_14  and  C_15
REMARK    6  A    between atoms: C_16  and  O_17
REMARK    7  A    between atoms: O_17  and  C_18
REMARK    8  A    between atoms: C_19  and  C_20
REMARK                            x       y       z     vdW  Elec       q    Type
REMARK                         _______ _______ _______ _____ _____    ______ ____
ROOT
ATOM      1  C   UNL     1       1.171   8.148  20.448  0.00  0.00    +0.000 A 
ATOM      2  C   UNL     1       1.474   8.543  21.692  0.00  0.00    +0.000 A 
ATOM      3  C   UNL     1       0.619   9.501  22.356  0.00  0.00    +0.000 A 
ATOM      4  O   UNL     1       0.662   9.625  23.570  0.00  0.00    +0.000 OA
ATOM      5  C   UNL     1      -0.244  10.294  21.511  0.00  0.00    +0.000 A 
ATOM      6  C   UNL     1      -0.837  11.435  22.065  0.00  0.00    +0.000 A 
ATOM      7  C   UNL     1      -1.600  12.282  21.268  0.00  0.00    +0.000 A 
ATOM      8  C   UNL     1      -2.157  13.561  21.850  0.00  0.00    +0.000 C 
ATOM      9  C   UNL     1      -1.795  11.941  19.908  0.00  0.00    +0.000 A 
ATOM     10  C   UNL     1      -1.216  10.762  19.348  0.00  0.00    +0.000 A 
ATOM     11  C   UNL     1      -1.450  10.354  17.917  0.00  0.00    +0.000 C 
ATOM     12  C   UNL     1      -0.408   9.936  20.171  0.00  0.00    +0.000 A 
ATOM     13  O   UNL     1       0.195   8.779  19.661  0.00  0.00    +0.000 OA
ENDROOT
BRANCH   1  17
ATOM     14  C   UNL     1       3.841   4.949  19.358  0.00  0.00    +0.000 A 
ATOM     15  C   UNL     1       2.904   4.786  20.361  0.00  0.00    +0.000 A 
ATOM     16  C   UNL     1       1.958   5.782  20.592  0.00  0.00    +0.000 A 
ATOM     17  C   UNL     1       1.986   7.021  19.914  0.00  0.00    +0.000 A 
ATOM     18  C   UNL     1       2.865   7.130  18.835  0.00  0.00    +0.000 A 
ATOM     19  C   UNL     1       3.790   6.097  18.560  0.00  0.00    +0.000 A 
BRANCH  14  21
ATOM     20  C   UNL     1       4.318   2.658  19.730  0.00  0.00    +0.000 C 
ATOM     21  O   UNL     1       4.750   3.935  19.297  0.00  0.00    +0.000 OA
ENDBRANCH  14  21
ENDBRANCH   1  17
BRANCH   6  22
ATOM     22  O   UNL     1      -0.686  11.758  23.393  0.00  0.00    +0.000 OA
ATOM     23  H   UNL     1      -1.194  11.112  23.937  0.00  0.00    +0.000 HD
ENDBRANCH   6  22
BRANCH   9  24
ATOM     24  O   UNL     1      -2.730  12.716  19.260  0.00  0.00    +0.000 OA
ATOM     25  C   UNL     1      -4.079  12.264  19.257  0.00  0.00    +0.000 C 
ENDBRANCH   9  24
TORSDOF 4
ENDMDL
