MODEL 1
REMARK VINA RESULT:      -5.6      0.000      0.000
REMARK  Name = 
REMARK  7 active torsions:
REMARK  status: ('A' for Active; 'I' for Inactive)
REMARK    1  A    between atoms: C_2  and  C_3
REMARK    2  A    between atoms: C_3  and  C_4
REMARK    3  A    between atoms: C_3  and  C_6
REMARK    4  A    between atoms: C_3  and  N_8
REMARK    5  A    between atoms: C_4  and  C_5
REMARK    6  A    between atoms: C_6  and  C_7
REMARK    7  A    between atoms: C_9  and  C_11
REMARK                            x       y       z     vdW  Elec       q    Type
REMARK                         _______ _______ _______ _____ _____    ______ ____
ROOT
ATOM      1  N   UNL     1       5.224   5.394  17.817  0.00  0.00    +0.000 N 
ATOM      2  C   UNL     1       4.079   6.116  18.087  0.00  0.00    +0.000 C 
ATOM      3  O   UNL     1       3.792   7.153  17.496  0.00  0.00    +0.000 OA
ATOM      4  H   UNL     1       5.390   4.548  18.354  0.00  0.00    +0.000 HD
ENDROOT
BRANCH   2   5
ATOM      5  C   UNL     1       3.216   5.565  19.121  0.00  0.00    +0.000 A 
ATOM      6  C   UNL     1       2.284   6.242  19.889  0.00  0.00    +0.000 A 
ATOM      7  C   UNL     1       1.605   5.384  20.806  0.00  0.00    +0.000 A 
ATOM      8  C   UNL     1       2.056   4.094  20.698  0.00  0.00    +0.000 A 
ATOM      9 BR   UNL     1       1.417   2.672  21.734  0.00  0.00    +0.000 Br
ATOM     10  S   UNL     1       3.258   3.897  19.528  0.00  0.00    +0.000 S 
ENDBRANCH   2   5
BRANCH   1  11
ATOM     11  C   UNL     1       6.209   5.772  16.819  0.00  0.00    +0.000 C 
BRANCH  11  13
ATOM     12  C   UNL     1       7.507   8.169  17.558  0.00  0.00    +0.000 C 
ATOM     13  C   UNL     1       6.908   7.063  17.217  0.00  0.00    +0.000 C 
ENDBRANCH  11  13
BRANCH  11  14
ATOM     14  C   UNL     1       5.535   6.028  15.437  0.00  0.00    +0.000 C 
ATOM     15  C   UNL     1       5.719   4.885  14.433  0.00  0.00    +0.000 C 
ENDBRANCH  11  14
BRANCH  11  16
ATOM     16  C   UNL     1       7.312   4.675  16.686  0.00  0.00    +0.000 C 
ATOM     17  C   UNL     1       8.056   4.355  17.987  0.00  0.00    +0.000 C 
ENDBRANCH  11  16
ENDBRANCH   1  11
TORSDOF 5
ENDMDL
MODEL 2
REMARK VINA RESULT:      -5.5      3.383      4.140
REMARK  Name = 
REMARK  7 active torsions:
REMARK  status: ('A' for Active; 'I' for Inactive)
REMARK    1  A    between atoms: C_2  and  C_3
REMARK    2  A    between atoms: C_3  and  C_4
REMARK    3  A    between atoms: C_3  and  C_6
REMARK    4  A    between atoms: C_3  and  N_8
REMARK    5  A    between atoms: C_4  and  C_5
REMARK    6  A    between atoms: C_6  and  C_7
REMARK    7  A    between atoms: C_9  and  C_11
REMARK                            x       y       z     vdW  Elec       q    Type
REMARK                         _______ _______ _______ _____ _____    ______ ____
ROOT
ATOM      1  N   UNL     1       3.527   5.819  17.734  0.00  0.00    +0.000 N 
ATOM      2  C   UNL     1       2.783   6.131  18.854  0.00  0.00    +0.000 C 
ATOM      3  O   UNL     1       2.601   5.338  19.774  0.00  0.00    +0.000 OA
ATOM      4  H   UNL     1       3.626   6.531  17.016  0.00  0.00    +0.000 HD
ENDROOT
BRANCH   2   5
ATOM      5  C   UNL     1       2.228   7.476  18.888  0.00  0.00    +0.000 A 
ATOM      6  C   UNL     1       2.150   8.381  17.842  0.00  0.00    +0.000 A 
ATOM      7  C   UNL     1       1.535   9.610  18.230  0.00  0.00    +0.000 A 
ATOM      8  C   UNL     1       1.180   9.587  19.553  0.00  0.00    +0.000 A 
ATOM      9 BR   UNL     1       0.353  11.013  20.440  0.00  0.00    +0.000 Br
ATOM     10  S   UNL     1       1.560   8.134  20.327  0.00  0.00    +0.000 S 
ENDBRANCH   2   5
BRANCH   1  11
ATOM     11  C   UNL     1       4.166   4.534  17.514  0.00  0.00    +0.000 C 
BRANCH  11  13
ATOM     12  C   UNL     1       5.704   4.578  15.146  0.00  0.00    +0.000 C 
ATOM     13  C   UNL     1       4.994   4.557  16.239  0.00  0.00    +0.000 C 
ENDBRANCH  11  13
BRANCH  11  14
ATOM     14  C   UNL     1       3.106   3.403  17.347  0.00  0.00    +0.000 C 
ATOM     15  C   UNL     1       3.481   2.090  18.041  0.00  0.00    +0.000 C 
ENDBRANCH  11  14
BRANCH  11  16
ATOM     16  C   UNL     1       5.139   4.192  18.687  0.00  0.00    +0.000 C 
ATOM     17  C   UNL     1       6.287   5.189  18.877  0.00  0.00    +0.000 C 
ENDBRANCH  11  16
ENDBRANCH   1  11
TORSDOF 5
ENDMDL
MODEL 3
REMARK VINA RESULT:      -5.5      3.156      6.105
REMARK  Name = 
REMARK  7 active torsions:
REMARK  status: ('A' for Active; 'I' for Inactive)
REMARK    1  A    between atoms: C_2  and  C_3
REMARK    2  A    between atoms: C_3  and  C_4
REMARK    3  A    between atoms: C_3  and  C_6
REMARK    4  A    between atoms: C_3  and  N_8
REMARK    5  A    between atoms: C_4  and  C_5
REMARK    6  A    between atoms: C_6  and  C_7
REMARK    7  A    between atoms: C_9  and  C_11
REMARK                            x       y       z     vdW  Elec       q    Type
REMARK                         _______ _______ _______ _____ _____    ______ ____
ROOT
ATOM      1  N   UNL     1       3.265   4.140  18.745  0.00  0.00    +0.000 N 
ATOM      2  C   UNL     1       4.531   4.677  18.868  0.00  0.00    +0.000 C 
ATOM      3  O   UNL     1       4.936   5.195  19.905  0.00  0.00    +0.000 OA
ATOM      4  H   UNL     1       3.007   3.733  17.850  0.00  0.00    +0.000 HD
ENDROOT
BRANCH   2   5
ATOM      5  C   UNL     1       5.373   4.585  17.684  0.00  0.00    +0.000 A 
ATOM      6  C   UNL     1       6.745   4.755  17.611  0.00  0.00    +0.000 A 
ATOM      7  C   UNL     1       7.247   4.583  16.285  0.00  0.00    +0.000 A 
ATOM      8  C   UNL     1       6.233   4.297  15.409  0.00  0.00    +0.000 A 
ATOM      9 BR   UNL     1       6.483   4.008  13.577  0.00  0.00    +0.000 Br
ATOM     10  S   UNL     1       4.711   4.225  16.140  0.00  0.00    +0.000 S 
ENDBRANCH   2   5
BRANCH   1  11
ATOM     11  C   UNL     1       2.279   4.128  19.810  0.00  0.00    +0.000 C 
BRANCH  11  13
ATOM     12  C   UNL     1       1.749   6.753  20.708  0.00  0.00    +0.000 C 
ATOM     13  C   UNL     1       1.994   5.541  20.294  0.00  0.00    +0.000 C 
ENDBRANCH  11  13
BRANCH  11  14
ATOM     14  C   UNL     1       2.795   3.322  21.040  0.00  0.00    +0.000 C 
ATOM     15  C   UNL     1       1.689   2.875  22.001  0.00  0.00    +0.000 C 
ENDBRANCH  11  14
BRANCH  11  16
ATOM     16  C   UNL     1       0.926   3.534  19.306  0.00  0.00    +0.000 C 
ATOM     17  C   UNL     1       1.043   2.166  18.625  0.00  0.00    +0.000 C 
ENDBRANCH  11  16
ENDBRANCH   1  11
TORSDOF 5
ENDMDL
MODEL 4
REMARK VINA RESULT:      -5.4      4.115      5.590
REMARK  Name = 
REMARK  7 active torsions:
REMARK  status: ('A' for Active; 'I' for Inactive)
REMARK    1  A    between atoms: C_2  and  C_3
REMARK    2  A    between atoms: C_3  and  C_4
REMARK    3  A    between atoms: C_3  and  C_6
REMARK    4  A    between atoms: C_3  and  N_8
REMARK    5  A    between atoms: C_4  and  C_5
REMARK    6  A    between atoms: C_6  and  C_7
REMARK    7  A    between atoms: C_9  and  C_11
REMARK                            x       y       z     vdW  Elec       q    Type
REMARK                         _______ _______ _______ _____ _____    ______ ____
ROOT
ATOM      1  N   UNL     1       2.157   6.244  20.437  0.00  0.00    +0.000 N 
ATOM      2  C   UNL     1       2.052   7.449  19.773  0.00  0.00    +0.000 C 
ATOM      3  O   UNL     1       2.490   7.624  18.639  0.00  0.00    +0.000 OA
ATOM      4  H   UNL     1       1.772   6.184  21.376  0.00  0.00    +0.000 HD
ENDROOT
BRANCH   2   5
ATOM      5  C   UNL     1       1.375   8.513  20.500  0.00  0.00    +0.000 A 
ATOM      6  C   UNL     1       1.114   8.571  21.859  0.00  0.00    +0.000 A 
ATOM      7  C   UNL     1       0.436   9.770  22.234  0.00  0.00    +0.000 A 
ATOM      8  C   UNL     1       0.205  10.566  21.142  0.00  0.00    +0.000 A 
ATOM      9 BR   UNL     1      -0.665  12.221  21.220  0.00  0.00    +0.000 Br
ATOM     10  S   UNL     1       0.786   9.913  19.697  0.00  0.00    +0.000 S 
ENDBRANCH   2   5
BRANCH   1  11
ATOM     11  C   UNL     1       2.792   5.061  19.883  0.00  0.00    +0.000 C 
BRANCH  11  13
ATOM     12  C   UNL     1       1.502   4.261  17.501  0.00  0.00    +0.000 C 
ATOM     13  C   UNL     1       2.097   4.630  18.601  0.00  0.00    +0.000 C 
ENDBRANCH  11  13
BRANCH  11  14
ATOM     14  C   UNL     1       2.701   3.862  20.874  0.00  0.00    +0.000 C 
ATOM     15  C   UNL     1       1.282   3.319  21.068  0.00  0.00    +0.000 C 
ENDBRANCH  11  14
BRANCH  11  16
ATOM     16  C   UNL     1       4.283   5.351  19.522  0.00  0.00    +0.000 C 
ATOM     17  C   UNL     1       5.055   4.143  18.978  0.00  0.00    +0.000 C 
ENDBRANCH  11  16
ENDBRANCH   1  11
TORSDOF 5
ENDMDL
MODEL 5
REMARK VINA RESULT:      -5.4      3.330      4.339
REMARK  Name = 
REMARK  7 active torsions:
REMARK  status: ('A' for Active; 'I' for Inactive)
REMARK    1  A    between atoms: C_2  and  C_3
REMARK    2  A    between atoms: C_3  and  C_4
REMARK    3  A    between atoms: C_3  and  C_6
REMARK    4  A    between atoms: C_3  and  N_8
REMARK    5  A    between atoms: C_4  and  C_5
REMARK    6  A    between atoms: C_6  and  C_7
REMARK    7  A    between atoms: C_9  and  C_11
REMARK                            x       y       z     vdW  Elec       q    Type
REMARK                         _______ _______ _______ _____ _____    ______ ____
ROOT
ATOM      1  N   UNL     1       3.748   6.179  17.677  0.00  0.00    +0.000 N 
ATOM      2  C   UNL     1       3.012   6.400  18.825  0.00  0.00    +0.000 C 
ATOM      3  O   UNL     1       2.977   5.600  19.756  0.00  0.00    +0.000 OA
ATOM      4  H   UNL     1       3.721   6.890  16.952  0.00  0.00    +0.000 HD
ENDROOT
BRANCH   2   5
ATOM      5  C   UNL     1       2.281   7.657  18.872  0.00  0.00    +0.000 A 
ATOM      6  C   UNL     1       2.058   8.542  17.830  0.00  0.00    +0.000 A 
ATOM      7  C   UNL     1       1.290   9.677  18.233  0.00  0.00    +0.000 A 
ATOM      8  C   UNL     1       0.971   9.607  19.563  0.00  0.00    +0.000 A 
ATOM      9 BR   UNL     1      -0.023  10.909  20.470  0.00  0.00    +0.000 Br
ATOM     10  S   UNL     1       1.561   8.221  20.327  0.00  0.00    +0.000 S 
ENDBRANCH   2   5
BRANCH   1  11
ATOM     11  C   UNL     1       4.548   4.991  17.439  0.00  0.00    +0.000 C 
BRANCH  11  13
ATOM     12  C   UNL     1       2.932   2.675  17.479  0.00  0.00    +0.000 C 
ATOM     13  C   UNL     1       3.678   3.744  17.461  0.00  0.00    +0.000 C 
ENDBRANCH  11  13
BRANCH  11  14
ATOM     14  C   UNL     1       5.626   4.812  18.551  0.00  0.00    +0.000 C 
ATOM     15  C   UNL     1       6.762   5.838  18.488  0.00  0.00    +0.000 C 
ENDBRANCH  11  14
BRANCH  11  16
ATOM     16  C   UNL     1       5.227   5.053  16.035  0.00  0.00    +0.000 C 
ATOM     17  C   UNL     1       5.880   3.742  15.582  0.00  0.00    +0.000 C 
ENDBRANCH  11  16
ENDBRANCH   1  11
TORSDOF 5
ENDMDL
MODEL 6
REMARK VINA RESULT:      -5.4      3.899      5.171
REMARK  Name = 
REMARK  7 active torsions:
REMARK  status: ('A' for Active; 'I' for Inactive)
REMARK    1  A    between atoms: C_2  and  C_3
REMARK    2  A    between atoms: C_3  and  C_4
REMARK    3  A    between atoms: C_3  and  C_6
REMARK    4  A    between atoms: C_3  and  N_8
REMARK    5  A    between atoms: C_4  and  C_5
REMARK    6  A    between atoms: C_6  and  C_7
REMARK    7  A    between atoms: C_9  and  C_11
REMARK                            x       y       z     vdW  Elec       q    Type
REMARK                         _______ _______ _______ _____ _____    ______ ____
ROOT
ATOM      1  N   UNL     1       2.184   6.197  20.144  0.00  0.00    +0.000 N 
ATOM      2  C   UNL     1       2.108   7.462  19.597  0.00  0.00    +0.000 C 
ATOM      3  O   UNL     1       2.555   7.735  18.487  0.00  0.00    +0.000 OA
ATOM      4  H   UNL     1       1.792   6.056  21.071  0.00  0.00    +0.000 HD
ENDROOT
BRANCH   2   5
ATOM      5  C   UNL     1       1.449   8.466  20.420  0.00  0.00    +0.000 A 
ATOM      6  C   UNL     1       1.254   8.436  21.791  0.00  0.00    +0.000 A 
ATOM      7  C   UNL     1       0.575   9.596  22.271  0.00  0.00    +0.000 A 
ATOM      8  C   UNL     1       0.278  10.453  21.243  0.00  0.00    +0.000 A 
ATOM      9 BR   UNL     1      -0.615  12.083  21.465  0.00  0.00    +0.000 Br
ATOM     10  S   UNL     1       0.799   9.901  19.734  0.00  0.00    +0.000 S 
ENDBRANCH   2   5
BRANCH   1  11
ATOM     11  C   UNL     1       2.796   5.059  19.481  0.00  0.00    +0.000 C 
BRANCH  11  13
ATOM     12  C   UNL     1       5.581   5.442  19.210  0.00  0.00    +0.000 C 
ATOM     13  C   UNL     1       4.295   5.265  19.335  0.00  0.00    +0.000 C 
ENDBRANCH  11  13
BRANCH  11  14
ATOM     14  C   UNL     1       2.220   4.874  18.045  0.00  0.00    +0.000 C 
ATOM     15  C   UNL     1       2.626   3.556  17.376  0.00  0.00    +0.000 C 
ENDBRANCH  11  14
BRANCH  11  16
ATOM     16  C   UNL     1       2.591   3.756  20.316  0.00  0.00    +0.000 C 
ATOM     17  C   UNL     1       1.156   3.527  20.802  0.00  0.00    +0.000 C 
ENDBRANCH  11  16
ENDBRANCH   1  11
TORSDOF 5
ENDMDL
MODEL 7
REMARK VINA RESULT:      -5.3      3.116      3.798
REMARK  Name = 
REMARK  7 active torsions:
REMARK  status: ('A' for Active; 'I' for Inactive)
REMARK    1  A    between atoms: C_2  and  C_3
REMARK    2  A    between atoms: C_3  and  C_4
REMARK    3  A    between atoms: C_3  and  C_6
REMARK    4  A    between atoms: C_3  and  N_8
REMARK    5  A    between atoms: C_4  and  C_5
REMARK    6  A    between atoms: C_6  and  C_7
REMARK    7  A    between atoms: C_9  and  C_11
REMARK                            x       y       z     vdW  Elec       q    Type
REMARK                         _______ _______ _______ _____ _____    ______ ____
ROOT
ATOM      1  N   UNL     1       3.882   5.727  17.448  0.00  0.00    +0.000 N 
ATOM      2  C   UNL     1       3.503   6.199  18.689  0.00  0.00    +0.000 C 
ATOM      3  O   UNL     1       3.840   5.656  19.738  0.00  0.00    +0.000 OA
ATOM      4  H   UNL     1       3.557   6.233  16.629  0.00  0.00    +0.000 HD
ENDROOT
BRANCH   2   5
ATOM      5  C   UNL     1       2.680   7.399  18.683  0.00  0.00    +0.000 A 
ATOM      6  C   UNL     1       2.502   8.293  17.640  0.00  0.00    +0.000 A 
ATOM      7  C   UNL     1       1.614   9.358  17.981  0.00  0.00    +0.000 A 
ATOM      8  C   UNL     1       1.163   9.230  19.268  0.00  0.00    +0.000 A 
ATOM      9 BR   UNL     1      -0.014  10.432  20.089  0.00  0.00    +0.000 Br
ATOM     10  S   UNL     1       1.771   7.869  20.063  0.00  0.00    +0.000 S 
ENDBRANCH   2   5
BRANCH   1  11
ATOM     11  C   UNL     1       4.705   4.549  17.241  0.00  0.00    +0.000 C 
BRANCH  11  13
ATOM     12  C   UNL     1       7.258   4.902  18.396  0.00  0.00    +0.000 C 
ATOM     13  C   UNL     1       6.079   4.739  17.863  0.00  0.00    +0.000 C 
ENDBRANCH  11  13
BRANCH  11  14
ATOM     14  C   UNL     1       4.926   4.282  15.722  0.00  0.00    +0.000 C 
ATOM     15  C   UNL     1       5.740   5.366  15.010  0.00  0.00    +0.000 C 
ENDBRANCH  11  14
BRANCH  11  16
ATOM     16  C   UNL     1       4.063   3.299  17.921  0.00  0.00    +0.000 C 
ATOM     17  C   UNL     1       2.658   2.950  17.420  0.00  0.00    +0.000 C 
ENDBRANCH  11  16
ENDBRANCH   1  11
TORSDOF 5
ENDMDL
MODEL 8
REMARK VINA RESULT:      -5.3      3.921      5.485
REMARK  Name = 
REMARK  7 active torsions:
REMARK  status: ('A' for Active; 'I' for Inactive)
REMARK    1  A    between atoms: C_2  and  C_3
REMARK    2  A    between atoms: C_3  and  C_4
REMARK    3  A    between atoms: C_3  and  C_6
REMARK    4  A    between atoms: C_3  and  N_8
REMARK    5  A    between atoms: C_4  and  C_5
REMARK    6  A    between atoms: C_6  and  C_7
REMARK    7  A    between atoms: C_9  and  C_11
REMARK                            x       y       z     vdW  Elec       q    Type
REMARK                         _______ _______ _______ _____ _____    ______ ____
ROOT
ATOM      1  N   UNL     1       2.056   6.385  20.227  0.00  0.00    +0.000 N 
ATOM      2  C   UNL     1       2.104   7.532  19.460  0.00  0.00    +0.000 C 
ATOM      3  O   UNL     1       2.721   7.598  18.401  0.00  0.00    +0.000 OA
ATOM      4  H   UNL     1       1.525   6.415  21.093  0.00  0.00    +0.000 HD
ENDROOT
BRANCH   2   5
ATOM      5  C   UNL     1       1.362   8.670  19.981  0.00  0.00    +0.000 A 
ATOM      6  C   UNL     1       1.059   9.851  19.324  0.00  0.00    +0.000 A 
ATOM      7  C   UNL     1       0.306  10.751  20.137  0.00  0.00    +0.000 A 
ATOM      8  C   UNL     1       0.075  10.217  21.378  0.00  0.00    +0.000 A 
ATOM      9 BR   UNL     1      -0.873  11.091  22.733  0.00  0.00    +0.000 Br
ATOM     10  S   UNL     1       0.732   8.673  21.579  0.00  0.00    +0.000 S 
ENDBRANCH   2   5
BRANCH   1  11
ATOM     11  C   UNL     1       2.724   5.144  19.878  0.00  0.00    +0.000 C 
BRANCH  11  13
ATOM     12  C   UNL     1       1.608   4.036  17.532  0.00  0.00    +0.000 C 
ATOM     13  C   UNL     1       2.123   4.547  18.615  0.00  0.00    +0.000 C 
ENDBRANCH  11  13
BRANCH  11  14
ATOM     14  C   UNL     1       2.556   4.082  21.007  0.00  0.00    +0.000 C 
ATOM     15  C   UNL     1       1.231   3.315  20.949  0.00  0.00    +0.000 C 
ENDBRANCH  11  14
BRANCH  11  16
ATOM     16  C   UNL     1       4.239   5.392  19.593  0.00  0.00    +0.000 C 
ATOM     17  C   UNL     1       5.002   4.165  19.080  0.00  0.00    +0.000 C 
ENDBRANCH  11  16
ENDBRANCH   1  11
TORSDOF 5
ENDMDL
MODEL 9
REMARK VINA RESULT:      -5.3      3.461      4.145
REMARK  Name = 
REMARK  7 active torsions:
REMARK  status: ('A' for Active; 'I' for Inactive)
REMARK    1  A    between atoms: C_2  and  C_3
REMARK    2  A    between atoms: C_3  and  C_4
REMARK    3  A    between atoms: C_3  and  C_6
REMARK    4  A    between atoms: C_3  and  N_8
REMARK    5  A    between atoms: C_4  and  C_5
REMARK    6  A    between atoms: C_6  and  C_7
REMARK    7  A    between atoms: C_9  and  C_11
REMARK                            x       y       z     vdW  Elec       q    Type
REMARK                         _______ _______ _______ _____ _____    ______ ____
ROOT
ATOM      1  N   UNL     1       3.386   6.135  18.140  0.00  0.00    +0.000 N 
ATOM      2  C   UNL     1       2.657   6.216  19.309  0.00  0.00    +0.000 C 
ATOM      3  O   UNL     1       2.543   5.274  20.089  0.00  0.00    +0.000 OA
ATOM      4  H   UNL     1       3.426   6.959  17.548  0.00  0.00    +0.000 HD
ENDROOT
BRANCH   2   5
ATOM      5  C   UNL     1       2.031   7.503  19.574  0.00  0.00    +0.000 A 
ATOM      6  C   UNL     1       1.466   7.936  20.762  0.00  0.00    +0.000 A 
ATOM      7  C   UNL     1       0.949   9.264  20.668  0.00  0.00    +0.000 A 
ATOM      8  C   UNL     1       1.139   9.778  19.412  0.00  0.00    +0.000 A 
ATOM      9 BR   UNL     1       0.595  11.491  18.889  0.00  0.00    +0.000 Br
ATOM     10  S   UNL     1       1.922   8.713  18.359  0.00  0.00    +0.000 S 
ENDBRANCH   2   5
BRANCH   1  11
ATOM     11  C   UNL     1       4.088   4.942  17.699  0.00  0.00    +0.000 C 
BRANCH  11  13
ATOM     12  C   UNL     1       5.567   5.466  15.351  0.00  0.00    +0.000 C 
ATOM     13  C   UNL     1       4.884   5.224  16.435  0.00  0.00    +0.000 C 
ENDBRANCH  11  13
BRANCH  11  14
ATOM     14  C   UNL     1       3.086   3.797  17.360  0.00  0.00    +0.000 C 
ATOM     15  C   UNL     1       3.489   2.430  17.920  0.00  0.00    +0.000 C 
ENDBRANCH  11  14
BRANCH  11  16
ATOM     16  C   UNL     1       5.104   4.465  18.785  0.00  0.00    +0.000 C 
ATOM     17  C   UNL     1       6.253   5.442  19.058  0.00  0.00    +0.000 C 
ENDBRANCH  11  16
ENDBRANCH   1  11
TORSDOF 5
ENDMDL
