MODEL 1
REMARK VINA RESULT:      -7.7      0.000      0.000
REMARK  Name = 
REMARK  16 active torsions:
REMARK  status: ('A' for Active; 'I' for Inactive)
REMARK    1  A    between atoms: C_1  and  C_2
REMARK    2  A    between atoms: C_2  and  N_3
REMARK    3  A    between atoms: N_3  and  C_4
REMARK    4  A    between atoms: N_3  and  C_28
REMARK    5  A    between atoms: C_4  and  C_5
REMARK    6  A    between atoms: C_5  and  C_6
REMARK    7  A    between atoms: C_6  and  O_7
REMARK    8  A    between atoms: O_7  and  C_8
REMARK    9  A    between atoms: C_11  and  C_12
REMARK   10  A    between atoms: C_12  and  C_14
REMARK   11  A    between atoms: C_15  and  C_16
REMARK   12  A    between atoms: C_19  and  N_20
REMARK   13  A    between atoms: N_20  and  C_21
REMARK   14  A    between atoms: N_20  and  C_22
REMARK   15  A    between atoms: C_25  and  O_26
REMARK   16  A    between atoms: C_28  and  C_29
REMARK                            x       y       z     vdW  Elec       q    Type
REMARK                         _______ _______ _______ _____ _____    ______ ____
ROOT
ATOM      1  C   UNL     1       1.970   8.203  18.810  0.00  0.00    +0.000 A 
ATOM      2  C   UNL     1       1.909   7.548  20.039  0.00  0.00    +0.000 A 
ATOM      3  C   UNL     1       1.346   8.178  21.154  0.00  0.00    +0.000 A 
ATOM      4  C   UNL     1       0.803   9.470  21.048  0.00  0.00    +0.000 A 
ATOM      5  C   UNL     1       0.858  10.105  19.800  0.00  0.00    +0.000 A 
ATOM      6  C   UNL     1       1.421   9.476  18.685  0.00  0.00    +0.000 A 
ENDROOT
BRANCH   4   7
ATOM      7  C   UNL     1       0.238  10.066  22.292  0.00  0.00    +0.000 C 
ATOM      8  O   UNL     1       0.727   9.800  23.377  0.00  0.00    +0.000 OA
BRANCH   7   9
ATOM      9  C   UNL     1      -0.951  10.960  22.175  0.00  0.00    +0.000 C 
ATOM     10  C   UNL     1      -1.714  11.245  23.241  0.00  0.00    +0.000 C 
BRANCH  10  11
ATOM     11  C   UNL     1      -2.855  12.148  23.096  0.00  0.00    +0.000 A 
ATOM     12  C   UNL     1      -3.709  12.400  24.168  0.00  0.00    +0.000 A 
ATOM     13  C   UNL     1      -4.848  13.202  23.995  0.00  0.00    +0.000 A 
ATOM     14  C   UNL     1      -5.177  13.789  22.761  0.00  0.00    +0.000 A 
ATOM     15  C   UNL     1      -4.291  13.528  21.703  0.00  0.00    +0.000 A 
ATOM     16  C   UNL     1      -3.151  12.720  21.860  0.00  0.00    +0.000 A 
BRANCH  14  17
ATOM     17  N   UNL     1      -6.327  14.544  22.601  0.00  0.00    +0.000 N 
ATOM     18  C   UNL     1      -6.936  14.746  21.289  0.00  0.00    +0.000 C 
ATOM     19  C   UNL     1      -7.133  15.001  23.728  0.00  0.00    +0.000 C 
ENDBRANCH  14  17
ENDBRANCH  10  11
ENDBRANCH   7   9
ENDBRANCH   4   7
BRANCH   5  20
ATOM     20  O   UNL     1       0.394  11.371  19.577  0.00  0.00    +0.000 OA
ATOM     21  H   UNL     1      -0.547  11.291  19.342  0.00  0.00    +0.000 HD
ENDBRANCH   5  20
BRANCH   1  22
ATOM     22  O   UNL     1       2.541   7.494  17.795  0.00  0.00    +0.000 OA
BRANCH  22  23
ATOM     23  C   UNL     1       3.933   7.192  17.928  0.00  0.00    +0.000 C 
BRANCH  23  24
ATOM     24  C   UNL     1       4.455   6.749  16.563  0.00  0.00    +0.000 C 
BRANCH  24  25
ATOM     25  C   UNL     1       4.870   5.265  16.575  0.00  0.00    +0.000 C 
BRANCH  25  26
ATOM     26  N   UNL     1       4.947   4.668  17.926  0.00  0.00    +0.000 NA
BRANCH  26  28
ATOM     27  C   UNL     1       7.380   4.597  17.197  0.00  0.00    +0.000 C 
ATOM     28  C   UNL     1       6.357   4.419  18.317  0.00  0.00    +0.000 C 
ENDBRANCH  26  28
BRANCH  26  29
ATOM     29  C   UNL     1       4.183   3.396  17.976  0.00  0.00    +0.000 C 
BRANCH  29  30
ATOM     30  C   UNL     1       3.161   3.331  19.092  0.00  0.00    +0.000 A 
ATOM     31  C   UNL     1       1.905   3.935  18.940  0.00  0.00    +0.000 A 
ATOM     32  C   UNL     1       0.990   3.933  19.991  0.00  0.00    +0.000 A 
ATOM     33  C   UNL     1       1.319   3.322  21.201  0.00  0.00    +0.000 A 
ATOM     34  C   UNL     1       2.553   2.690  21.350  0.00  0.00    +0.000 A 
ATOM     35  C   UNL     1       3.469   2.688  20.299  0.00  0.00    +0.000 A 
ENDBRANCH  29  30
ENDBRANCH  26  29
ENDBRANCH  25  26
ENDBRANCH  24  25
ENDBRANCH  23  24
ENDBRANCH  22  23
ENDBRANCH   1  22
TORSDOF 13
ENDMDL
MODEL 2
REMARK VINA RESULT:      -7.5      2.117      4.046
REMARK  Name = 
REMARK  16 active torsions:
REMARK  status: ('A' for Active; 'I' for Inactive)
REMARK    1  A    between atoms: C_1  and  C_2
REMARK    2  A    between atoms: C_2  and  N_3
REMARK    3  A    between atoms: N_3  and  C_4
REMARK    4  A    between atoms: N_3  and  C_28
REMARK    5  A    between atoms: C_4  and  C_5
REMARK    6  A    between atoms: C_5  and  C_6
REMARK    7  A    between atoms: C_6  and  O_7
REMARK    8  A    between atoms: O_7  and  C_8
REMARK    9  A    between atoms: C_11  and  C_12
REMARK   10  A    between atoms: C_12  and  C_14
REMARK   11  A    between atoms: C_15  and  C_16
REMARK   12  A    between atoms: C_19  and  N_20
REMARK   13  A    between atoms: N_20  and  C_21
REMARK   14  A    between atoms: N_20  and  C_22
REMARK   15  A    between atoms: C_25  and  O_26
REMARK   16  A    between atoms: C_28  and  C_29
REMARK                            x       y       z     vdW  Elec       q    Type
REMARK                         _______ _______ _______ _____ _____    ______ ____
ROOT
ATOM      1  C   UNL     1       2.189   7.100  19.493  0.00  0.00    +0.000 A 
ATOM      2  C   UNL     1       1.577   7.607  20.638  0.00  0.00    +0.000 A 
ATOM      3  C   UNL     1       1.099   8.922  20.667  0.00  0.00    +0.000 A 
ATOM      4  C   UNL     1       1.200   9.745  19.532  0.00  0.00    +0.000 A 
ATOM      5  C   UNL     1       1.804   9.212  18.386  0.00  0.00    +0.000 A 
ATOM      6  C   UNL     1       2.281   7.898  18.356  0.00  0.00    +0.000 A 
ENDROOT
BRANCH   4   7
ATOM      7  C   UNL     1       0.677  11.136  19.662  0.00  0.00    +0.000 C 
ATOM      8  O   UNL     1       1.397  12.087  19.408  0.00  0.00    +0.000 OA
BRANCH   7   9
ATOM      9  C   UNL     1      -0.723  11.326  20.138  0.00  0.00    +0.000 C 
ATOM     10  C   UNL     1      -1.075  12.411  20.844  0.00  0.00    +0.000 C 
BRANCH  10  11
ATOM     11  C   UNL     1      -2.464  12.580  21.271  0.00  0.00    +0.000 A 
ATOM     12  C   UNL     1      -2.797  12.630  22.623  0.00  0.00    +0.000 A 
ATOM     13  C   UNL     1      -4.141  12.709  23.021  0.00  0.00    +0.000 A 
ATOM     14  C   UNL     1      -5.200  12.749  22.098  0.00  0.00    +0.000 A 
ATOM     15  C   UNL     1      -4.833  12.709  20.743  0.00  0.00    +0.000 A 
ATOM     16  C   UNL     1      -3.493  12.623  20.329  0.00  0.00    +0.000 A 
BRANCH  14  17
ATOM     17  N   UNL     1      -6.522  12.785  22.512  0.00  0.00    +0.000 N 
ATOM     18  C   UNL     1      -7.626  12.719  21.558  0.00  0.00    +0.000 C 
ATOM     19  C   UNL     1      -6.912  12.667  23.912  0.00  0.00    +0.000 C 
ENDBRANCH  14  17
ENDBRANCH  10  11
ENDBRANCH   7   9
ENDBRANCH   4   7
BRANCH   5  20
ATOM     20  O   UNL     1       1.990   9.921  17.232  0.00  0.00    +0.000 OA
ATOM     21  H   UNL     1       1.127  10.301  16.991  0.00  0.00    +0.000 HD
ENDBRANCH   5  20
BRANCH   1  22
ATOM     22  O   UNL     1       2.617   5.808  19.580  0.00  0.00    +0.000 OA
BRANCH  22  23
ATOM     23  C   UNL     1       2.853   5.127  18.345  0.00  0.00    +0.000 C 
BRANCH  23  24
ATOM     24  C   UNL     1       4.254   4.520  18.398  0.00  0.00    +0.000 C 
BRANCH  24  25
ATOM     25  C   UNL     1       5.314   5.507  17.876  0.00  0.00    +0.000 C 
BRANCH  25  26
ATOM     26  N   UNL     1       6.428   4.869  17.141  0.00  0.00    +0.000 NA
BRANCH  26  28
ATOM     27  C   UNL     1       7.736   5.744  19.136  0.00  0.00    +0.000 C 
ATOM     28  C   UNL     1       7.620   4.717  18.013  0.00  0.00    +0.000 C 
ENDBRANCH  26  28
BRANCH  26  29
ATOM     29  C   UNL     1       6.785   5.668  15.942  0.00  0.00    +0.000 C 
BRANCH  29  30
ATOM     30  C   UNL     1       6.614   4.929  14.632  0.00  0.00    +0.000 A 
ATOM     31  C   UNL     1       7.567   5.063  13.612  0.00  0.00    +0.000 A 
ATOM     32  C   UNL     1       7.377   4.435  12.382  0.00  0.00    +0.000 A 
ATOM     33  C   UNL     1       6.236   3.663  12.162  0.00  0.00    +0.000 A 
ATOM     34  C   UNL     1       5.299   3.498  13.182  0.00  0.00    +0.000 A 
ATOM     35  C   UNL     1       5.489   4.122  14.414  0.00  0.00    +0.000 A 
ENDBRANCH  29  30
ENDBRANCH  26  29
ENDBRANCH  25  26
ENDBRANCH  24  25
ENDBRANCH  23  24
ENDBRANCH  22  23
ENDBRANCH   1  22
TORSDOF 13
ENDMDL
MODEL 3
REMARK VINA RESULT:      -7.5      5.023     10.329
REMARK  Name = 
REMARK  16 active torsions:
REMARK  status: ('A' for Active; 'I' for Inactive)
REMARK    1  A    between atoms: C_1  and  C_2
REMARK    2  A    between atoms: C_2  and  N_3
REMARK    3  A    between atoms: N_3  and  C_4
REMARK    4  A    between atoms: N_3  and  C_28
REMARK    5  A    between atoms: C_4  and  C_5
REMARK    6  A    between atoms: C_5  and  C_6
REMARK    7  A    between atoms: C_6  and  O_7
REMARK    8  A    between atoms: O_7  and  C_8
REMARK    9  A    between atoms: C_11  and  C_12
REMARK   10  A    between atoms: C_12  and  C_14
REMARK   11  A    between atoms: C_15  and  C_16
REMARK   12  A    between atoms: C_19  and  N_20
REMARK   13  A    between atoms: N_20  and  C_21
REMARK   14  A    between atoms: N_20  and  C_22
REMARK   15  A    between atoms: C_25  and  O_26
REMARK   16  A    between atoms: C_28  and  C_29
REMARK                            x       y       z     vdW  Elec       q    Type
REMARK                         _______ _______ _______ _____ _____    ______ ____
ROOT
ATOM      1  C   UNL     1       3.260   5.983  18.914  0.00  0.00    +0.000 A 
ATOM      2  C   UNL     1       3.429   6.755  17.766  0.00  0.00    +0.000 A 
ATOM      3  C   UNL     1       4.707   6.994  17.250  0.00  0.00    +0.000 A 
ATOM      4  C   UNL     1       5.842   6.435  17.862  0.00  0.00    +0.000 A 
ATOM      5  C   UNL     1       5.651   5.648  19.006  0.00  0.00    +0.000 A 
ATOM      6  C   UNL     1       4.373   5.409  19.522  0.00  0.00    +0.000 A 
ENDROOT
BRANCH   4   7
ATOM      7  C   UNL     1       7.163   6.757  17.251  0.00  0.00    +0.000 C 
ATOM      8  O   UNL     1       7.789   5.896  16.654  0.00  0.00    +0.000 OA
BRANCH   7   9
ATOM      9  C   UNL     1       7.706   8.135  17.419  0.00  0.00    +0.000 C 
ATOM     10  C   UNL     1       8.364   8.492  18.533  0.00  0.00    +0.000 C 
BRANCH  10  11
ATOM     11  C   UNL     1       8.909   9.844  18.652  0.00  0.00    +0.000 A 
ATOM     12  C   UNL     1       9.609  10.237  19.791  0.00  0.00    +0.000 A 
ATOM     13  C   UNL     1      10.055  11.560  19.930  0.00  0.00    +0.000 A 
ATOM     14  C   UNL     1       9.832  12.539  18.946  0.00  0.00    +0.000 A 
ATOM     15  C   UNL     1       9.134  12.111  17.805  0.00  0.00    +0.000 A 
ATOM     16  C   UNL     1       8.675  10.792  17.655  0.00  0.00    +0.000 A 
BRANCH  14  17
ATOM     17  N   UNL     1      10.244  13.850  19.121  0.00  0.00    +0.000 N 
ATOM     18  C   UNL     1       9.452  14.974  18.629  0.00  0.00    +0.000 C 
ATOM     19  C   UNL     1      11.360  14.216  19.986  0.00  0.00    +0.000 C 
ENDBRANCH  14  17
ENDBRANCH  10  11
ENDBRANCH   7   9
ENDBRANCH   4   7
BRANCH   5  20
ATOM     20  O   UNL     1       6.675   5.078  19.709  0.00  0.00    +0.000 OA
ATOM     21  H   UNL     1       6.432   5.121  20.650  0.00  0.00    +0.000 HD
ENDBRANCH   5  20
BRANCH   1  22
ATOM     22  O   UNL     1       1.971   5.818  19.327  0.00  0.00    +0.000 OA
BRANCH  22  23
ATOM     23  C   UNL     1       1.690   6.133  20.693  0.00  0.00    +0.000 C 
BRANCH  23  24
ATOM     24  C   UNL     1       0.838   7.401  20.722  0.00  0.00    +0.000 C 
BRANCH  24  25
ATOM     25  C   UNL     1       1.599   8.603  20.133  0.00  0.00    +0.000 C 
BRANCH  25  26
ATOM     26  N   UNL     1       0.897   9.281  19.022  0.00  0.00    +0.000 NA
BRANCH  26  28
ATOM     27  C   UNL     1       1.870  11.572  18.512  0.00  0.00    +0.000 C 
ATOM     28  C   UNL     1       1.845  10.077  18.202  0.00  0.00    +0.000 C 
ENDBRANCH  26  28
BRANCH  26  29
ATOM     29  C   UNL     1      -0.174  10.165  19.547  0.00  0.00    +0.000 C 
BRANCH  29  30
ATOM     30  C   UNL     1      -1.322  10.386  18.584  0.00  0.00    +0.000 A 
ATOM     31  C   UNL     1      -1.394   9.658  17.387  0.00  0.00    +0.000 A 
ATOM     32  C   UNL     1      -2.413   9.908  16.470  0.00  0.00    +0.000 A 
ATOM     33  C   UNL     1      -3.372  10.884  16.742  0.00  0.00    +0.000 A 
ATOM     34  C   UNL     1      -3.327  11.590  17.944  0.00  0.00    +0.000 A 
ATOM     35  C   UNL     1      -2.310  11.339  18.864  0.00  0.00    +0.000 A 
ENDBRANCH  29  30
ENDBRANCH  26  29
ENDBRANCH  25  26
ENDBRANCH  24  25
ENDBRANCH  23  24
ENDBRANCH  22  23
ENDBRANCH   1  22
TORSDOF 13
ENDMDL
MODEL 4
REMARK VINA RESULT:      -7.4      1.456      3.371
REMARK  Name = 
REMARK  16 active torsions:
REMARK  status: ('A' for Active; 'I' for Inactive)
REMARK    1  A    between atoms: C_1  and  C_2
REMARK    2  A    between atoms: C_2  and  N_3
REMARK    3  A    between atoms: N_3  and  C_4
REMARK    4  A    between atoms: N_3  and  C_28
REMARK    5  A    between atoms: C_4  and  C_5
REMARK    6  A    between atoms: C_5  and  C_6
REMARK    7  A    between atoms: C_6  and  O_7
REMARK    8  A    between atoms: O_7  and  C_8
REMARK    9  A    between atoms: C_11  and  C_12
REMARK   10  A    between atoms: C_12  and  C_14
REMARK   11  A    between atoms: C_15  and  C_16
REMARK   12  A    between atoms: C_19  and  N_20
REMARK   13  A    between atoms: N_20  and  C_21
REMARK   14  A    between atoms: N_20  and  C_22
REMARK   15  A    between atoms: C_25  and  O_26
REMARK   16  A    between atoms: C_28  and  C_29
REMARK                            x       y       z     vdW  Elec       q    Type
REMARK                         _______ _______ _______ _____ _____    ______ ____
ROOT
ATOM      1  C   UNL     1       1.703   7.761  19.613  0.00  0.00    +0.000 A 
ATOM      2  C   UNL     1       1.304   7.950  20.935  0.00  0.00    +0.000 A 
ATOM      3  C   UNL     1       0.895   9.211  21.383  0.00  0.00    +0.000 A 
ATOM      4  C   UNL     1       0.850  10.304  20.500  0.00  0.00    +0.000 A 
ATOM      5  C   UNL     1       1.239  10.091  19.170  0.00  0.00    +0.000 A 
ATOM      6  C   UNL     1       1.648   8.830  18.723  0.00  0.00    +0.000 A 
ENDROOT
BRANCH   4   7
ATOM      7  C   UNL     1       0.416  11.611  21.070  0.00  0.00    +0.000 C 
ATOM      8  O   UNL     1       1.234  12.492  21.274  0.00  0.00    +0.000 OA
BRANCH   7   9
ATOM      9  C   UNL     1      -1.025  11.794  21.411  0.00  0.00    +0.000 C 
ATOM     10  C   UNL     1      -1.398  12.434  22.529  0.00  0.00    +0.000 C 
BRANCH  10  11
ATOM     11  C   UNL     1      -2.820  12.621  22.818  0.00  0.00    +0.000 A 
ATOM     12  C   UNL     1      -3.334  12.355  24.085  0.00  0.00    +0.000 A 
ATOM     13  C   UNL     1      -4.713  12.459  24.328  0.00  0.00    +0.000 A 
ATOM     14  C   UNL     1      -5.628  12.835  23.331  0.00  0.00    +0.000 A 
ATOM     15  C   UNL     1      -5.080  13.108  22.067  0.00  0.00    +0.000 A 
ATOM     16  C   UNL     1      -3.702  13.002  21.808  0.00  0.00    +0.000 A 
BRANCH  14  17
ATOM     17  N   UNL     1      -6.990  12.891  23.580  0.00  0.00    +0.000 N 
ATOM     18  C   UNL     1      -7.623  14.094  24.115  0.00  0.00    +0.000 C 
ATOM     19  C   UNL     1      -7.916  11.858  23.130  0.00  0.00    +0.000 C 
ENDBRANCH  14  17
ENDBRANCH  10  11
ENDBRANCH   7   9
ENDBRANCH   4   7
BRANCH   5  20
ATOM     20  O   UNL     1       1.269  11.078  18.226  0.00  0.00    +0.000 OA
ATOM     21  H   UNL     1       2.008  11.667  18.457  0.00  0.00    +0.000 HD
ENDBRANCH   5  20
BRANCH   1  22
ATOM     22  O   UNL     1       2.082   6.492  19.290  0.00  0.00    +0.000 OA
BRANCH  22  23
ATOM     23  C   UNL     1       2.267   5.582  20.377  0.00  0.00    +0.000 C 
BRANCH  23  24
ATOM     24  C   UNL     1       3.646   4.942  20.232  0.00  0.00    +0.000 C 
BRANCH  24  25
ATOM     25  C   UNL     1       3.555   3.553  19.573  0.00  0.00    +0.000 C 
BRANCH  25  26
ATOM     26  N   UNL     1       3.041   3.571  18.186  0.00  0.00    +0.000 NA
BRANCH  26  28
ATOM     27  C   UNL     1       0.803   2.544  18.810  0.00  0.00    +0.000 C 
ATOM     28  C   UNL     1       2.072   2.470  17.964  0.00  0.00    +0.000 C 
ENDBRANCH  26  28
BRANCH  26  29
ATOM     29  C   UNL     1       4.160   3.454  17.217  0.00  0.00    +0.000 C 
BRANCH  29  30
ATOM     30  C   UNL     1       5.113   4.631  17.226  0.00  0.00    +0.000 A 
ATOM     31  C   UNL     1       6.443   4.464  17.639  0.00  0.00    +0.000 A 
ATOM     32  C   UNL     1       7.302   5.560  17.711  0.00  0.00    +0.000 A 
ATOM     33  C   UNL     1       6.841   6.830  17.366  0.00  0.00    +0.000 A 
ATOM     34  C   UNL     1       5.529   7.000  16.923  0.00  0.00    +0.000 A 
ATOM     35  C   UNL     1       4.670   5.905  16.847  0.00  0.00    +0.000 A 
ENDBRANCH  29  30
ENDBRANCH  26  29
ENDBRANCH  25  26
ENDBRANCH  24  25
ENDBRANCH  23  24
ENDBRANCH  22  23
ENDBRANCH   1  22
TORSDOF 13
ENDMDL
MODEL 5
REMARK VINA RESULT:      -7.4      4.612     10.113
REMARK  Name = 
REMARK  16 active torsions:
REMARK  status: ('A' for Active; 'I' for Inactive)
REMARK    1  A    between atoms: C_1  and  C_2
REMARK    2  A    between atoms: C_2  and  N_3
REMARK    3  A    between atoms: N_3  and  C_4
REMARK    4  A    between atoms: N_3  and  C_28
REMARK    5  A    between atoms: C_4  and  C_5
REMARK    6  A    between atoms: C_5  and  C_6
REMARK    7  A    between atoms: C_6  and  O_7
REMARK    8  A    between atoms: O_7  and  C_8
REMARK    9  A    between atoms: C_11  and  C_12
REMARK   10  A    between atoms: C_12  and  C_14
REMARK   11  A    between atoms: C_15  and  C_16
REMARK   12  A    between atoms: C_19  and  N_20
REMARK   13  A    between atoms: N_20  and  C_21
REMARK   14  A    between atoms: N_20  and  C_22
REMARK   15  A    between atoms: C_25  and  O_26
REMARK   16  A    between atoms: C_28  and  C_29
REMARK                            x       y       z     vdW  Elec       q    Type
REMARK                         _______ _______ _______ _____ _____    ______ ____
ROOT
ATOM      1  C   UNL     1       3.911   4.415  18.902  0.00  0.00    +0.000 A 
ATOM      2  C   UNL     1       3.896   4.832  17.572  0.00  0.00    +0.000 A 
ATOM      3  C   UNL     1       5.002   5.487  17.019  0.00  0.00    +0.000 A 
ATOM      4  C   UNL     1       6.160   5.709  17.785  0.00  0.00    +0.000 A 
ATOM      5  C   UNL     1       6.161   5.268  19.115  0.00  0.00    +0.000 A 
ATOM      6  C   UNL     1       5.056   4.614  19.668  0.00  0.00    +0.000 A 
ENDROOT
BRANCH   4   7
ATOM      7  C   UNL     1       7.282   6.428  17.116  0.00  0.00    +0.000 C 
ATOM      8  O   UNL     1       7.654   6.085  16.006  0.00  0.00    +0.000 OA
BRANCH   7   9
ATOM      9  C   UNL     1       7.950   7.541  17.850  0.00  0.00    +0.000 C 
ATOM     10  C   UNL     1       7.793   8.817  17.469  0.00  0.00    +0.000 C 
BRANCH  10  11
ATOM     11  C   UNL     1       8.439   9.887  18.229  0.00  0.00    +0.000 A 
ATOM     12  C   UNL     1       8.588  11.161  17.687  0.00  0.00    +0.000 A 
ATOM     13  C   UNL     1       9.283  12.156  18.393  0.00  0.00    +0.000 A 
ATOM     14  C   UNL     1       9.847  11.928  19.659  0.00  0.00    +0.000 A 
ATOM     15  C   UNL     1       9.670  10.638  20.185  0.00  0.00    +0.000 A 
ATOM     16  C   UNL     1       8.983   9.630  19.487  0.00  0.00    +0.000 A 
BRANCH  14  17
ATOM     17  N   UNL     1      10.565  12.911  20.321  0.00  0.00    +0.000 N 
ATOM     18  C   UNL     1      11.795  13.469  19.763  0.00  0.00    +0.000 C 
ATOM     19  C   UNL     1      10.047  13.613  21.490  0.00  0.00    +0.000 C 
ENDBRANCH  14  17
ENDBRANCH  10  11
ENDBRANCH   7   9
ENDBRANCH   4   7
BRANCH   5  20
ATOM     20  O   UNL     1       7.211   5.453  19.970  0.00  0.00    +0.000 OA
ATOM     21  H   UNL     1       8.003   5.103  19.526  0.00  0.00    +0.000 HD
ENDBRANCH   5  20
BRANCH   1  22
ATOM     22  O   UNL     1       2.778   3.790  19.333  0.00  0.00    +0.000 OA
BRANCH  22  23
ATOM     23  C   UNL     1       2.490   3.879  20.731  0.00  0.00    +0.000 C 
BRANCH  23  24
ATOM     24  C   UNL     1       2.248   5.349  21.072  0.00  0.00    +0.000 C 
BRANCH  24  25
ATOM     25  C   UNL     1       1.226   5.987  20.114  0.00  0.00    +0.000 C 
BRANCH  25  26
ATOM     26  N   UNL     1       1.361   7.453  19.972  0.00  0.00    +0.000 NA
BRANCH  26  28
ATOM     27  C   UNL     1       1.928   8.624  17.789  0.00  0.00    +0.000 C 
ATOM     28  C   UNL     1       2.410   7.796  18.979  0.00  0.00    +0.000 C 
ENDBRANCH  26  28
BRANCH  26  29
ATOM     29  C   UNL     1       1.692   8.073  21.280  0.00  0.00    +0.000 C 
BRANCH  29  30
ATOM     30  C   UNL     1       0.788   9.226  21.665  0.00  0.00    +0.000 A 
ATOM     31  C   UNL     1       0.063   9.191  22.864  0.00  0.00    +0.000 A 
ATOM     32  C   UNL     1      -0.819  10.221  23.187  0.00  0.00    +0.000 A 
ATOM     33  C   UNL     1      -0.980  11.299  22.316  0.00  0.00    +0.000 A 
ATOM     34  C   UNL     1      -0.238  11.359  21.136  0.00  0.00    +0.000 A 
ATOM     35  C   UNL     1       0.647  10.331  20.814  0.00  0.00    +0.000 A 
ENDBRANCH  29  30
ENDBRANCH  26  29
ENDBRANCH  25  26
ENDBRANCH  24  25
ENDBRANCH  23  24
ENDBRANCH  22  23
ENDBRANCH   1  22
TORSDOF 13
ENDMDL
MODEL 6
REMARK VINA RESULT:      -7.3      2.119      4.203
REMARK  Name = 
REMARK  16 active torsions:
REMARK  status: ('A' for Active; 'I' for Inactive)
REMARK    1  A    between atoms: C_1  and  C_2
REMARK    2  A    between atoms: C_2  and  N_3
REMARK    3  A    between atoms: N_3  and  C_4
REMARK    4  A    between atoms: N_3  and  C_28
REMARK    5  A    between atoms: C_4  and  C_5
REMARK    6  A    between atoms: C_5  and  C_6
REMARK    7  A    between atoms: C_6  and  O_7
REMARK    8  A    between atoms: O_7  and  C_8
REMARK    9  A    between atoms: C_11  and  C_12
REMARK   10  A    between atoms: C_12  and  C_14
REMARK   11  A    between atoms: C_15  and  C_16
REMARK   12  A    between atoms: C_19  and  N_20
REMARK   13  A    between atoms: N_20  and  C_21
REMARK   14  A    between atoms: N_20  and  C_22
REMARK   15  A    between atoms: C_25  and  O_26
REMARK   16  A    between atoms: C_28  and  C_29
REMARK                            x       y       z     vdW  Elec       q    Type
REMARK                         _______ _______ _______ _____ _____    ______ ____
ROOT
ATOM      1  C   UNL     1       2.164   6.489  20.300  0.00  0.00    +0.000 A 
ATOM      2  C   UNL     1       1.399   7.327  21.110  0.00  0.00    +0.000 A 
ATOM      3  C   UNL     1       1.025   8.600  20.665  0.00  0.00    +0.000 A 
ATOM      4  C   UNL     1       1.388   9.046  19.383  0.00  0.00    +0.000 A 
ATOM      5  C   UNL     1       2.144   8.183  18.577  0.00  0.00    +0.000 A 
ATOM      6  C   UNL     1       2.517   6.910  19.021  0.00  0.00    +0.000 A 
ENDROOT
BRANCH   4   7
ATOM      7  C   UNL     1       0.959  10.422  19.002  0.00  0.00    +0.000 C 
ATOM      8  O   UNL     1       1.744  11.181  18.460  0.00  0.00    +0.000 OA
BRANCH   7   9
ATOM      9  C   UNL     1      -0.432  10.847  19.330  0.00  0.00    +0.000 C 
ATOM     10  C   UNL     1      -1.140  11.617  18.490  0.00  0.00    +0.000 C 
BRANCH  10  11
ATOM     11  C   UNL     1      -2.512  11.991  18.830  0.00  0.00    +0.000 A 
ATOM     12  C   UNL     1      -2.792  12.706  19.994  0.00  0.00    +0.000 A 
ATOM     13  C   UNL     1      -4.119  12.988  20.352  0.00  0.00    +0.000 A 
ATOM     14  C   UNL     1      -5.215  12.581  19.572  0.00  0.00    +0.000 A 
ATOM     15  C   UNL     1      -4.902  11.872  18.400  0.00  0.00    +0.000 A 
ATOM     16  C   UNL     1      -3.578  11.577  18.032  0.00  0.00    +0.000 A 
BRANCH  14  17
ATOM     17  N   UNL     1      -6.519  12.833  19.965  0.00  0.00    +0.000 N 
ATOM     18  C   UNL     1      -7.648  12.601  19.068  0.00  0.00    +0.000 C 
ATOM     19  C   UNL     1      -6.882  13.128  21.347  0.00  0.00    +0.000 C 
ENDBRANCH  14  17
ENDBRANCH  10  11
ENDBRANCH   7   9
ENDBRANCH   4   7
BRANCH   5  20
ATOM     20  O   UNL     1       2.585   8.512  17.326  0.00  0.00    +0.000 OA
ATOM     21  H   UNL     1       3.393   9.041  17.441  0.00  0.00    +0.000 HD
ENDBRANCH   5  20
BRANCH   1  22
ATOM     22  O   UNL     1       2.470   5.274  20.837  0.00  0.00    +0.000 OA
BRANCH  22  23
ATOM     23  C   UNL     1       1.456   4.268  20.766  0.00  0.00    +0.000 C 
BRANCH  23  24
ATOM     24  C   UNL     1       2.143   2.904  20.727  0.00  0.00    +0.000 C 
BRANCH  24  25
ATOM     25  C   UNL     1       3.602   3.024  20.247  0.00  0.00    +0.000 C 
BRANCH  25  26
ATOM     26  N   UNL     1       3.747   3.546  18.871  0.00  0.00    +0.000 NA
BRANCH  26  28
ATOM     27  C   UNL     1       1.858   3.704  17.179  0.00  0.00    +0.000 C 
ATOM     28  C   UNL     1       2.853   2.824  17.932  0.00  0.00    +0.000 C 
ENDBRANCH  26  28
BRANCH  26  29
ATOM     29  C   UNL     1       5.155   3.421  18.414  0.00  0.00    +0.000 C 
BRANCH  29  30
ATOM     30  C   UNL     1       5.793   4.734  18.012  0.00  0.00    +0.000 A 
ATOM     31  C   UNL     1       6.968   5.173  18.639  0.00  0.00    +0.000 A 
ATOM     32  C   UNL     1       7.519   6.413  18.317  0.00  0.00    +0.000 A 
ATOM     33  C   UNL     1       6.905   7.221  17.361  0.00  0.00    +0.000 A 
ATOM     34  C   UNL     1       5.754   6.778  16.708  0.00  0.00    +0.000 A 
ATOM     35  C   UNL     1       5.204   5.538  17.027  0.00  0.00    +0.000 A 
ENDBRANCH  29  30
ENDBRANCH  26  29
ENDBRANCH  25  26
ENDBRANCH  24  25
ENDBRANCH  23  24
ENDBRANCH  22  23
ENDBRANCH   1  22
TORSDOF 13
ENDMDL
MODEL 7
REMARK VINA RESULT:      -7.1      1.318      1.391
REMARK  Name = 
REMARK  16 active torsions:
REMARK  status: ('A' for Active; 'I' for Inactive)
REMARK    1  A    between atoms: C_1  and  C_2
REMARK    2  A    between atoms: C_2  and  N_3
REMARK    3  A    between atoms: N_3  and  C_4
REMARK    4  A    between atoms: N_3  and  C_28
REMARK    5  A    between atoms: C_4  and  C_5
REMARK    6  A    between atoms: C_5  and  C_6
REMARK    7  A    between atoms: C_6  and  O_7
REMARK    8  A    between atoms: O_7  and  C_8
REMARK    9  A    between atoms: C_11  and  C_12
REMARK   10  A    between atoms: C_12  and  C_14
REMARK   11  A    between atoms: C_15  and  C_16
REMARK   12  A    between atoms: C_19  and  N_20
REMARK   13  A    between atoms: N_20  and  C_21
REMARK   14  A    between atoms: N_20  and  C_22
REMARK   15  A    between atoms: C_25  and  O_26
REMARK   16  A    between atoms: C_28  and  C_29
REMARK                            x       y       z     vdW  Elec       q    Type
REMARK                         _______ _______ _______ _____ _____    ______ ____
ROOT
ATOM      1  C   UNL     1       1.525   8.785  19.004  0.00  0.00    +0.000 A 
ATOM      2  C   UNL     1       1.754   8.173  20.236  0.00  0.00    +0.000 A 
ATOM      3  C   UNL     1       1.210   8.709  21.408  0.00  0.00    +0.000 A 
ATOM      4  C   UNL     1       0.397   9.855  21.362  0.00  0.00    +0.000 A 
ATOM      5  C   UNL     1       0.165  10.446  20.112  0.00  0.00    +0.000 A 
ATOM      6  C   UNL     1       0.709   9.911  18.940  0.00  0.00    +0.000 A 
ENDROOT
BRANCH   4   7
ATOM      7  C   UNL     1      -0.126  10.362  22.663  0.00  0.00    +0.000 C 
ATOM      8  O   UNL     1       0.078   9.737  23.690  0.00  0.00    +0.000 OA
BRANCH   7   9
ATOM      9  C   UNL     1      -0.925  11.621  22.664  0.00  0.00    +0.000 C 
ATOM     10  C   UNL     1      -2.139  11.673  23.233  0.00  0.00    +0.000 C 
BRANCH  10  11
ATOM     11  C   UNL     1      -2.883  12.932  23.242  0.00  0.00    +0.000 A 
ATOM     12  C   UNL     1      -4.224  12.969  23.620  0.00  0.00    +0.000 A 
ATOM     13  C   UNL     1      -4.950  14.167  23.547  0.00  0.00    +0.000 A 
ATOM     14  C   UNL     1      -4.375  15.371  23.104  0.00  0.00    +0.000 A 
ATOM     15  C   UNL     1      -3.020  15.306  22.740  0.00  0.00    +0.000 A 
ATOM     16  C   UNL     1      -2.283  14.111  22.803  0.00  0.00    +0.000 A 
BRANCH  14  17
ATOM     17  N   UNL     1      -5.120  16.535  22.998  0.00  0.00    +0.000 N 
ATOM     18  C   UNL     1      -4.781  17.578  22.034  0.00  0.00    +0.000 C 
ATOM     19  C   UNL     1      -6.405  16.711  23.667  0.00  0.00    +0.000 C 
ENDBRANCH  14  17
ENDBRANCH  10  11
ENDBRANCH   7   9
ENDBRANCH   4   7
BRANCH   5  20
ATOM     20  O   UNL     1      -0.579  11.579  19.940  0.00  0.00    +0.000 OA
ATOM     21  H   UNL     1      -0.840  11.883  20.826  0.00  0.00    +0.000 HD
ENDBRANCH   5  20
BRANCH   1  22
ATOM     22  O   UNL     1       2.106   8.177  17.930  0.00  0.00    +0.000 OA
BRANCH  22  23
ATOM     23  C   UNL     1       2.787   6.944  18.182  0.00  0.00    +0.000 C 
BRANCH  23  24
ATOM     24  C   UNL     1       4.133   6.991  17.463  0.00  0.00    +0.000 C 
BRANCH  24  25
ATOM     25  C   UNL     1       4.871   5.642  17.564  0.00  0.00    +0.000 C 
BRANCH  25  26
ATOM     26  N   UNL     1       5.165   5.214  18.949  0.00  0.00    +0.000 NA
BRANCH  26  28
ATOM     27  C   UNL     1       7.564   5.336  18.121  0.00  0.00    +0.000 C 
ATOM     28  C   UNL     1       6.589   5.459  19.289  0.00  0.00    +0.000 C 
ENDBRANCH  26  28
BRANCH  26  29
ATOM     29  C   UNL     1       4.851   3.772  19.124  0.00  0.00    +0.000 C 
BRANCH  29  30
ATOM     30  C   UNL     1       3.385   3.484  19.369  0.00  0.00    +0.000 A 
ATOM     31  C   UNL     1       2.555   3.082  18.313  0.00  0.00    +0.000 A 
ATOM     32  C   UNL     1       1.191   2.881  18.525  0.00  0.00    +0.000 A 
ATOM     33  C   UNL     1       0.648   3.073  19.795  0.00  0.00    +0.000 A 
ATOM     34  C   UNL     1       1.472   3.441  20.859  0.00  0.00    +0.000 A 
ATOM     35  C   UNL     1       2.836   3.639  20.649  0.00  0.00    +0.000 A 
ENDBRANCH  29  30
ENDBRANCH  26  29
ENDBRANCH  25  26
ENDBRANCH  24  25
ENDBRANCH  23  24
ENDBRANCH  22  23
ENDBRANCH   1  22
TORSDOF 13
ENDMDL
MODEL 8
REMARK VINA RESULT:      -7.1      1.632      3.644
REMARK  Name = 
REMARK  16 active torsions:
REMARK  status: ('A' for Active; 'I' for Inactive)
REMARK    1  A    between atoms: C_1  and  C_2
REMARK    2  A    between atoms: C_2  and  N_3
REMARK    3  A    between atoms: N_3  and  C_4
REMARK    4  A    between atoms: N_3  and  C_28
REMARK    5  A    between atoms: C_4  and  C_5
REMARK    6  A    between atoms: C_5  and  C_6
REMARK    7  A    between atoms: C_6  and  O_7
REMARK    8  A    between atoms: O_7  and  C_8
REMARK    9  A    between atoms: C_11  and  C_12
REMARK   10  A    between atoms: C_12  and  C_14
REMARK   11  A    between atoms: C_15  and  C_16
REMARK   12  A    between atoms: C_19  and  N_20
REMARK   13  A    between atoms: N_20  and  C_21
REMARK   14  A    between atoms: N_20  and  C_22
REMARK   15  A    between atoms: C_25  and  O_26
REMARK   16  A    between atoms: C_28  and  C_29
REMARK                            x       y       z     vdW  Elec       q    Type
REMARK                         _______ _______ _______ _____ _____    ______ ____
ROOT
ATOM      1  C   UNL     1       1.895   7.657  19.856  0.00  0.00    +0.000 A 
ATOM      2  C   UNL     1       1.085   8.202  20.851  0.00  0.00    +0.000 A 
ATOM      3  C   UNL     1       0.531   9.478  20.699  0.00  0.00    +0.000 A 
ATOM      4  C   UNL     1       0.756  10.221  19.527  0.00  0.00    +0.000 A 
ATOM      5  C   UNL     1       1.560   9.650  18.532  0.00  0.00    +0.000 A 
ATOM      6  C   UNL     1       2.114   8.375  18.683  0.00  0.00    +0.000 A 
ENDROOT
BRANCH   4   7
ATOM      7  C   UNL     1       0.137  11.576  19.461  0.00  0.00    +0.000 C 
ATOM      8  O   UNL     1       0.619  12.435  18.742  0.00  0.00    +0.000 OA
BRANCH   7   9
ATOM      9  C   UNL     1      -1.052  11.856  20.316  0.00  0.00    +0.000 C 
ATOM     10  C   UNL     1      -1.821  12.934  20.105  0.00  0.00    +0.000 C 
BRANCH  10  11
ATOM     11  C   UNL     1      -2.997  13.163  20.944  0.00  0.00    +0.000 A 
ATOM     12  C   UNL     1      -4.275  12.841  20.489  0.00  0.00    +0.000 A 
ATOM     13  C   UNL     1      -5.402  13.140  21.269  0.00  0.00    +0.000 A 
ATOM     14  C   UNL     1      -5.307  13.761  22.527  0.00  0.00    +0.000 A 
ATOM     15  C   UNL     1      -4.007  14.063  22.963  0.00  0.00    +0.000 A 
ATOM     16  C   UNL     1      -2.869  13.775  22.190  0.00  0.00    +0.000 A 
BRANCH  14  17
ATOM     17  N   UNL     1      -6.435  14.086  23.262  0.00  0.00    +0.000 N 
ATOM     18  C   UNL     1      -7.101  15.378  23.114  0.00  0.00    +0.000 C 
ATOM     19  C   UNL     1      -7.165  13.107  24.060  0.00  0.00    +0.000 C 
ENDBRANCH  14  17
ENDBRANCH  10  11
ENDBRANCH   7   9
ENDBRANCH   4   7
BRANCH   5  20
ATOM     20  O   UNL     1       1.878  10.284  17.364  0.00  0.00    +0.000 OA
ATOM     21  H   UNL     1       2.550   9.739  16.919  0.00  0.00    +0.000 HD
ENDBRANCH   5  20
BRANCH   1  22
ATOM     22  O   UNL     1       2.382   6.409  20.113  0.00  0.00    +0.000 OA
BRANCH  22  23
ATOM     23  C   UNL     1       1.571   5.562  20.931  0.00  0.00    +0.000 C 
BRANCH  23  24
ATOM     24  C   UNL     1       1.775   4.120  20.468  0.00  0.00    +0.000 C 
BRANCH  24  25
ATOM     25  C   UNL     1       3.256   3.835  20.156  0.00  0.00    +0.000 C 
BRANCH  25  26
ATOM     26  N   UNL     1       3.548   3.652  18.717  0.00  0.00    +0.000 NA
BRANCH  26  28
ATOM     27  C   UNL     1       3.759   1.180  18.170  0.00  0.00    +0.000 C 
ATOM     28  C   UNL     1       2.886   2.432  18.192  0.00  0.00    +0.000 C 
ENDBRANCH  26  28
BRANCH  26  29
ATOM     29  C   UNL     1       5.013   3.561  18.493  0.00  0.00    +0.000 C 
BRANCH  29  30
ATOM     30  C   UNL     1       5.649   4.852  18.022  0.00  0.00    +0.000 A 
ATOM     31  C   UNL     1       7.033   5.044  18.136  0.00  0.00    +0.000 A 
ATOM     32  C   UNL     1       7.610   6.258  17.765  0.00  0.00    +0.000 A 
ATOM     33  C   UNL     1       6.809   7.288  17.272  0.00  0.00    +0.000 A 
ATOM     34  C   UNL     1       5.435   7.095  17.124  0.00  0.00    +0.000 A 
ATOM     35  C   UNL     1       4.858   5.881  17.492  0.00  0.00    +0.000 A 
ENDBRANCH  29  30
ENDBRANCH  26  29
ENDBRANCH  25  26
ENDBRANCH  24  25
ENDBRANCH  23  24
ENDBRANCH  22  23
ENDBRANCH   1  22
TORSDOF 13
ENDMDL
MODEL 9
REMARK VINA RESULT:      -7.1      5.978      7.573
REMARK  Name = 
REMARK  16 active torsions:
REMARK  status: ('A' for Active; 'I' for Inactive)
REMARK    1  A    between atoms: C_1  and  C_2
REMARK    2  A    between atoms: C_2  and  N_3
REMARK    3  A    between atoms: N_3  and  C_4
REMARK    4  A    between atoms: N_3  and  C_28
REMARK    5  A    between atoms: C_4  and  C_5
REMARK    6  A    between atoms: C_5  and  C_6
REMARK    7  A    between atoms: C_6  and  O_7
REMARK    8  A    between atoms: O_7  and  C_8
REMARK    9  A    between atoms: C_11  and  C_12
REMARK   10  A    between atoms: C_12  and  C_14
REMARK   11  A    between atoms: C_15  and  C_16
REMARK   12  A    between atoms: C_19  and  N_20
REMARK   13  A    between atoms: N_20  and  C_21
REMARK   14  A    between atoms: N_20  and  C_22
REMARK   15  A    between atoms: C_25  and  O_26
REMARK   16  A    between atoms: C_28  and  C_29
REMARK                            x       y       z     vdW  Elec       q    Type
REMARK                         _______ _______ _______ _____ _____    ______ ____
ROOT
ATOM      1  C   UNL     1       8.832   9.439  18.755  0.00  0.00    +0.000 A 
ATOM      2  C   UNL     1       8.108  10.024  17.718  0.00  0.00    +0.000 A 
ATOM      3  C   UNL     1       8.076  11.415  17.569  0.00  0.00    +0.000 A 
ATOM      4  C   UNL     1       8.797  12.246  18.443  0.00  0.00    +0.000 A 
ATOM      5  C   UNL     1       9.532  11.638  19.470  0.00  0.00    +0.000 A 
ATOM      6  C   UNL     1       9.564  10.248  19.620  0.00  0.00    +0.000 A 
ENDROOT
BRANCH   4   7
ATOM      7  C   UNL     1       8.691  13.716  18.216  0.00  0.00    +0.000 C 
ATOM      8  O   UNL     1       9.696  14.406  18.188  0.00  0.00    +0.000 OA
BRANCH   7   9
ATOM      9  C   UNL     1       7.333  14.314  18.061  0.00  0.00    +0.000 C 
ATOM     10  C   UNL     1       6.719  14.918  19.090  0.00  0.00    +0.000 C 
BRANCH  10  11
ATOM     11  C   UNL     1       5.400  15.520  18.895  0.00  0.00    +0.000 A 
ATOM     12  C   UNL     1       4.679  15.301  17.723  0.00  0.00    +0.000 A 
ATOM     13  C   UNL     1       3.453  15.949  17.512  0.00  0.00    +0.000 A 
ATOM     14  C   UNL     1       2.893  16.830  18.454  0.00  0.00    +0.000 A 
ATOM     15  C   UNL     1       3.636  17.022  19.630  0.00  0.00    +0.000 A 
ATOM     16  C   UNL     1       4.869  16.385  19.852  0.00  0.00    +0.000 A 
BRANCH  14  17
ATOM     17  N   UNL     1       1.701  17.492  18.209  0.00  0.00    +0.000 N 
ATOM     18  C   UNL     1       0.843  17.954  19.297  0.00  0.00    +0.000 C 
ATOM     19  C   UNL     1       1.324  17.971  16.883  0.00  0.00    +0.000 C 
ENDBRANCH  14  17
ENDBRANCH  10  11
ENDBRANCH   7   9
ENDBRANCH   4   7
BRANCH   5  20
ATOM     20  O   UNL     1      10.247  12.337  20.402  0.00  0.00    +0.000 OA
ATOM     21  H   UNL     1      10.365  13.237  20.051  0.00  0.00    +0.000 HD
ENDBRANCH   5  20
BRANCH   1  22
ATOM     22  O   UNL     1       8.790   8.077  18.804  0.00  0.00    +0.000 OA
BRANCH  22  23
ATOM     23  C   UNL     1       7.842   7.434  17.948  0.00  0.00    +0.000 C 
BRANCH  23  24
ATOM     24  C   UNL     1       7.370   6.156  18.639  0.00  0.00    +0.000 C 
BRANCH  24  25
ATOM     25  C   UNL     1       7.529   4.929  17.720  0.00  0.00    +0.000 C 
BRANCH  25  26
ATOM     26  N   UNL     1       6.252   4.284  17.344  0.00  0.00    +0.000 NA
BRANCH  26  28
ATOM     27  C   UNL     1       5.722   5.289  15.072  0.00  0.00    +0.000 C 
ATOM     28  C   UNL     1       6.175   4.073  15.877  0.00  0.00    +0.000 C 
ENDBRANCH  26  28
BRANCH  26  29
ATOM     29  C   UNL     1       5.102   5.110  17.791  0.00  0.00    +0.000 C 
BRANCH  29  30
ATOM     30  C   UNL     1       3.837   4.319  18.052  0.00  0.00    +0.000 A 
ATOM     31  C   UNL     1       3.909   3.007  18.540  0.00  0.00    +0.000 A 
ATOM     32  C   UNL     1       2.748   2.255  18.717  0.00  0.00    +0.000 A 
ATOM     33  C   UNL     1       1.505   2.811  18.415  0.00  0.00    +0.000 A 
ATOM     34  C   UNL     1       1.421   4.127  17.960  0.00  0.00    +0.000 A 
ATOM     35  C   UNL     1       2.581   4.881  17.785  0.00  0.00    +0.000 A 
ENDBRANCH  29  30
ENDBRANCH  26  29
ENDBRANCH  25  26
ENDBRANCH  24  25
ENDBRANCH  23  24
ENDBRANCH  22  23
ENDBRANCH   1  22
TORSDOF 13
ENDMDL
