MODEL 1
REMARK VINA RESULT:      -7.1      0.000      0.000
REMARK  Name = 
REMARK  5 active torsions:
REMARK  status: ('A' for Active; 'I' for Inactive)
REMARK    1  A    between atoms: C_1  and  C_2
REMARK    2  A    between atoms: C_6  and  C_7
REMARK    3  A    between atoms: C_7  and  N_8
REMARK    4  A    between atoms: C_12  and  S_13
REMARK    5  A    between atoms: S_13  and  C_14
REMARK                            x       y       z     vdW  Elec       q    Type
REMARK                         _______ _______ _______ _____ _____    ______ ____
ROOT
ATOM      1  N   UNL     1       5.846   3.818  16.404  0.00  0.00    +0.000 N 
ATOM      2  C   UNL     1       4.758   3.839  17.284  0.00  0.00    +0.000 A 
ATOM      3  C   UNL     1       3.475   4.095  16.794  0.00  0.00    +0.000 A 
ATOM      4  C   UNL     1       2.381   4.006  17.661  0.00  0.00    +0.000 A 
ATOM      5  C   UNL     1       2.602   3.609  18.974  0.00  0.00    +0.000 A 
ATOM      6  C   UNL     1       3.897   3.357  19.385  0.00  0.00    +0.000 A 
ATOM      7  N   UNL     1       4.962   3.447  18.560  0.00  0.00    +0.000 NA
ATOM      8  H   UNL     1       5.884   2.858  16.060  0.00  0.00    +0.000 HD
ENDROOT
BRANCH   5   9
ATOM      9  S   UNL     1       1.301   3.522  20.153  0.00  0.00    +0.000 S 
ATOM     10  C   UNL     1       1.977   2.621  21.517  0.00  0.00    +0.000 C 
ATOM     11  O   UNL     1       1.029   4.876  20.600  0.00  0.00    +0.000 OA
ATOM     12  O   UNL     1       0.242   2.714  19.561  0.00  0.00    +0.000 OA
ENDBRANCH   5   9
BRANCH   1  13
ATOM     13  C   UNL     1       7.157   4.118  17.026  0.00  0.00    +0.000 C 
BRANCH  13  19
ATOM     14  C   UNL     1       7.816   5.715  19.859  0.00  0.00    +0.000 C 
ATOM     15  C   UNL     1       7.686   6.267  18.493  0.00  0.00    +0.000 A 
ATOM     16  C   UNL     1       7.802   7.584  18.112  0.00  0.00    +0.000 A 
ATOM     17  O   UNL     1       7.608   7.697  16.778  0.00  0.00    +0.000 OA
ATOM     18  N   UNL     1       7.354   6.450  16.241  0.00  0.00    +0.000 NA
ATOM     19  C   UNL     1       7.407   5.589  17.269  0.00  0.00    +0.000 A 
ENDBRANCH  13  19
ENDBRANCH   1  13
TORSDOF 3
ENDMDL
MODEL 2
REMARK VINA RESULT:      -7.0      2.732      3.687
REMARK  Name = 
REMARK  5 active torsions:
REMARK  status: ('A' for Active; 'I' for Inactive)
REMARK    1  A    between atoms: C_1  and  C_2
REMARK    2  A    between atoms: C_6  and  C_7
REMARK    3  A    between atoms: C_7  and  N_8
REMARK    4  A    between atoms: C_12  and  S_13
REMARK    5  A    between atoms: S_13  and  C_14
REMARK                            x       y       z     vdW  Elec       q    Type
REMARK                         _______ _______ _______ _____ _____    ______ ____
ROOT
ATOM      1  N   UNL     1       6.167   4.683  16.464  0.00  0.00    +0.000 N 
ATOM      2  C   UNL     1       5.203   4.421  17.444  0.00  0.00    +0.000 A 
ATOM      3  C   UNL     1       5.454   4.768  18.773  0.00  0.00    +0.000 A 
ATOM      4  C   UNL     1       4.443   4.603  19.725  0.00  0.00    +0.000 A 
ATOM      5  C   UNL     1       3.199   4.149  19.306  0.00  0.00    +0.000 A 
ATOM      6  C   UNL     1       3.019   3.839  17.971  0.00  0.00    +0.000 A 
ATOM      7  N   UNL     1       3.989   3.987  17.043  0.00  0.00    +0.000 NA
ATOM      8  H   UNL     1       5.973   5.637  16.156  0.00  0.00    +0.000 HD
ENDROOT
BRANCH   5   9
ATOM      9  S   UNL     1       1.883   3.855  20.434  0.00  0.00    +0.000 S 
ATOM     10  C   UNL     1       0.768   2.787  19.571  0.00  0.00    +0.000 C 
ATOM     11  O   UNL     1       2.432   3.118  21.558  0.00  0.00    +0.000 OA
ATOM     12  O   UNL     1       1.211   5.132  20.646  0.00  0.00    +0.000 OA
ENDBRANCH   5   9
BRANCH   1  13
ATOM     13  C   UNL     1       6.097   3.810  15.269  0.00  0.00    +0.000 C 
BRANCH  13  19
ATOM     14  C   UNL     1       5.697   3.004  12.076  0.00  0.00    +0.000 C 
ATOM     15  C   UNL     1       6.581   4.031  12.668  0.00  0.00    +0.000 A 
ATOM     16  C   UNL     1       7.445   4.870  12.003  0.00  0.00    +0.000 A 
ATOM     17  O   UNL     1       8.090   5.664  12.889  0.00  0.00    +0.000 OA
ATOM     18  N   UNL     1       7.669   5.364  14.170  0.00  0.00    +0.000 NA
ATOM     19  C   UNL     1       6.757   4.387  14.038  0.00  0.00    +0.000 A 
ENDBRANCH  13  19
ENDBRANCH   1  13
TORSDOF 3
ENDMDL
MODEL 3
REMARK VINA RESULT:      -7.0      2.467      3.324
REMARK  Name = 
REMARK  5 active torsions:
REMARK  status: ('A' for Active; 'I' for Inactive)
REMARK    1  A    between atoms: C_1  and  C_2
REMARK    2  A    between atoms: C_6  and  C_7
REMARK    3  A    between atoms: C_7  and  N_8
REMARK    4  A    between atoms: C_12  and  S_13
REMARK    5  A    between atoms: S_13  and  C_14
REMARK                            x       y       z     vdW  Elec       q    Type
REMARK                         _______ _______ _______ _____ _____    ______ ____
ROOT
ATOM      1  N   UNL     1       5.923   4.960  16.567  0.00  0.00    +0.000 N 
ATOM      2  C   UNL     1       4.944   4.513  17.461  0.00  0.00    +0.000 A 
ATOM      3  C   UNL     1       4.817   5.124  18.711  0.00  0.00    +0.000 A 
ATOM      4  C   UNL     1       3.768   4.745  19.554  0.00  0.00    +0.000 A 
ATOM      5  C   UNL     1       2.849   3.809  19.096  0.00  0.00    +0.000 A 
ATOM      6  C   UNL     1       3.029   3.258  17.841  0.00  0.00    +0.000 A 
ATOM      7  N   UNL     1       4.043   3.610  17.021  0.00  0.00    +0.000 NA
ATOM      8  H   UNL     1       5.477   5.719  16.050  0.00  0.00    +0.000 HD
ENDROOT
BRANCH   5   9
ATOM      9  S   UNL     1       1.529   3.227  20.101  0.00  0.00    +0.000 S 
ATOM     10  C   UNL     1       2.299   2.680  21.597  0.00  0.00    +0.000 C 
ATOM     11  O   UNL     1       0.690   4.368  20.419  0.00  0.00    +0.000 OA
ATOM     12  O   UNL     1       0.966   2.060  19.432  0.00  0.00    +0.000 OA
ENDBRANCH   5   9
BRANCH   1  13
ATOM     13  C   UNL     1       6.370   3.953  15.576  0.00  0.00    +0.000 C 
BRANCH  13  19
ATOM     14  C   UNL     1       5.857   3.202  12.385  0.00  0.00    +0.000 C 
ATOM     15  C   UNL     1       6.773   4.208  12.964  0.00  0.00    +0.000 A 
ATOM     16  C   UNL     1       7.627   5.046  12.285  0.00  0.00    +0.000 A 
ATOM     17  O   UNL     1       8.310   5.817  13.161  0.00  0.00    +0.000 OA
ATOM     18  N   UNL     1       7.926   5.503  14.450  0.00  0.00    +0.000 NA
ATOM     19  C   UNL     1       6.998   4.541  14.333  0.00  0.00    +0.000 A 
ENDBRANCH  13  19
ENDBRANCH   1  13
TORSDOF 3
ENDMDL
MODEL 4
REMARK VINA RESULT:      -6.9      2.937      6.332
REMARK  Name = 
REMARK  5 active torsions:
REMARK  status: ('A' for Active; 'I' for Inactive)
REMARK    1  A    between atoms: C_1  and  C_2
REMARK    2  A    between atoms: C_6  and  C_7
REMARK    3  A    between atoms: C_7  and  N_8
REMARK    4  A    between atoms: C_12  and  S_13
REMARK    5  A    between atoms: S_13  and  C_14
REMARK                            x       y       z     vdW  Elec       q    Type
REMARK                         _______ _______ _______ _____ _____    ______ ____
ROOT
ATOM      1  N   UNL     1       2.506   6.615  19.614  0.00  0.00    +0.000 N 
ATOM      2  C   UNL     1       3.558   6.193  18.794  0.00  0.00    +0.000 A 
ATOM      3  C   UNL     1       3.801   6.850  17.585  0.00  0.00    +0.000 A 
ATOM      4  C   UNL     1       4.919   6.492  16.826  0.00  0.00    +0.000 A 
ATOM      5  C   UNL     1       5.786   5.530  17.326  0.00  0.00    +0.000 A 
ATOM      6  C   UNL     1       5.490   4.932  18.537  0.00  0.00    +0.000 A 
ATOM      7  N   UNL     1       4.409   5.263  19.277  0.00  0.00    +0.000 NA
ATOM      8  H   UNL     1       2.910   7.348  20.199  0.00  0.00    +0.000 HD
ENDROOT
BRANCH   5   9
ATOM      9  S   UNL     1       7.186   4.972  16.421  0.00  0.00    +0.000 S 
ATOM     10  C   UNL     1       6.536   3.855  15.213  0.00  0.00    +0.000 C 
ATOM     11  O   UNL     1       7.735   6.120  15.721  0.00  0.00    +0.000 OA
ATOM     12  O   UNL     1       8.014   4.206  17.344  0.00  0.00    +0.000 OA
ENDBRANCH   5   9
BRANCH   1  13
ATOM     13  C   UNL     1       1.965   5.575  20.520  0.00  0.00    +0.000 C 
BRANCH  13  19
ATOM     14  C   UNL     1       1.519   2.517  21.729  0.00  0.00    +0.000 C 
ATOM     15  C   UNL     1       1.325   3.003  20.347  0.00  0.00    +0.000 A 
ATOM     16  C   UNL     1       0.924   2.270  19.254  0.00  0.00    +0.000 A 
ATOM     17  O   UNL     1       0.872   3.063  18.159  0.00  0.00    +0.000 OA
ATOM     18  N   UNL     1       1.243   4.348  18.502  0.00  0.00    +0.000 NA
ATOM     19  C   UNL     1       1.510   4.316  19.818  0.00  0.00    +0.000 A 
ENDBRANCH  13  19
ENDBRANCH   1  13
TORSDOF 3
ENDMDL
MODEL 5
REMARK VINA RESULT:      -6.9      1.011      1.200
REMARK  Name = 
REMARK  5 active torsions:
REMARK  status: ('A' for Active; 'I' for Inactive)
REMARK    1  A    between atoms: C_1  and  C_2
REMARK    2  A    between atoms: C_6  and  C_7
REMARK    3  A    between atoms: C_7  and  N_8
REMARK    4  A    between atoms: C_12  and  S_13
REMARK    5  A    between atoms: S_13  and  C_14
REMARK                            x       y       z     vdW  Elec       q    Type
REMARK                         _______ _______ _______ _____ _____    ______ ____
ROOT
ATOM      1  N   UNL     1       5.897   3.851  16.519  0.00  0.00    +0.000 N 
ATOM      2  C   UNL     1       4.899   3.982  17.490  0.00  0.00    +0.000 A 
ATOM      3  C   UNL     1       3.577   4.207  17.098  0.00  0.00    +0.000 A 
ATOM      4  C   UNL     1       2.570   4.228  18.069  0.00  0.00    +0.000 A 
ATOM      5  C   UNL     1       2.912   3.968  19.390  0.00  0.00    +0.000 A 
ATOM      6  C   UNL     1       4.239   3.739  19.702  0.00  0.00    +0.000 A 
ATOM      7  N   UNL     1       5.221   3.724  18.775  0.00  0.00    +0.000 NA
ATOM      8  H   UNL     1       5.896   2.859  16.276  0.00  0.00    +0.000 HD
ENDROOT
BRANCH   5   9
ATOM      9  S   UNL     1       1.729   4.028  20.689  0.00  0.00    +0.000 S 
ATOM     10  C   UNL     1       1.403   5.749  20.934  0.00  0.00    +0.000 C 
ATOM     11  O   UNL     1       0.513   3.405  20.198  0.00  0.00    +0.000 OA
ATOM     12  O   UNL     1       2.386   3.519  21.887  0.00  0.00    +0.000 OA
ENDBRANCH   5   9
BRANCH   1  13
ATOM     13  C   UNL     1       7.264   4.192  16.978  0.00  0.00    +0.000 C 
BRANCH  13  19
ATOM     14  C   UNL     1       7.963   5.709  19.845  0.00  0.00    +0.000 C 
ATOM     15  C   UNL     1       7.770   6.305  18.506  0.00  0.00    +0.000 A 
ATOM     16  C   UNL     1       7.828   7.638  18.170  0.00  0.00    +0.000 A 
ATOM     17  O   UNL     1       7.587   7.792  16.848  0.00  0.00    +0.000 OA
ATOM     18  N   UNL     1       7.357   6.557  16.274  0.00  0.00    +0.000 NA
ATOM     19  C   UNL     1       7.472   5.662  17.267  0.00  0.00    +0.000 A 
ENDBRANCH  13  19
ENDBRANCH   1  13
TORSDOF 3
ENDMDL
MODEL 6
REMARK VINA RESULT:      -6.9      0.992      1.140
REMARK  Name = 
REMARK  5 active torsions:
REMARK  status: ('A' for Active; 'I' for Inactive)
REMARK    1  A    between atoms: C_1  and  C_2
REMARK    2  A    between atoms: C_6  and  C_7
REMARK    3  A    between atoms: C_7  and  N_8
REMARK    4  A    between atoms: C_12  and  S_13
REMARK    5  A    between atoms: S_13  and  C_14
REMARK                            x       y       z     vdW  Elec       q    Type
REMARK                         _______ _______ _______ _____ _____    ______ ____
ROOT
ATOM      1  N   UNL     1       5.927   3.965  16.547  0.00  0.00    +0.000 N 
ATOM      2  C   UNL     1       4.942   4.061  17.535  0.00  0.00    +0.000 A 
ATOM      3  C   UNL     1       3.618   4.318  17.170  0.00  0.00    +0.000 A 
ATOM      4  C   UNL     1       2.623   4.303  18.153  0.00  0.00    +0.000 A 
ATOM      5  C   UNL     1       2.978   3.978  19.456  0.00  0.00    +0.000 A 
ATOM      6  C   UNL     1       4.305   3.721  19.741  0.00  0.00    +0.000 A 
ATOM      7  N   UNL     1       5.277   3.740  18.802  0.00  0.00    +0.000 NA
ATOM      8  H   UNL     1       5.913   2.986  16.258  0.00  0.00    +0.000 HD
ENDROOT
BRANCH   5   9
ATOM      9  S   UNL     1       1.811   3.989  20.771  0.00  0.00    +0.000 S 
ATOM     10  C   UNL     1       0.467   2.989  20.201  0.00  0.00    +0.000 C 
ATOM     11  O   UNL     1       2.424   3.315  21.901  0.00  0.00    +0.000 OA
ATOM     12  O   UNL     1       1.328   5.359  20.902  0.00  0.00    +0.000 OA
ENDBRANCH   5   9
BRANCH   1  13
ATOM     13  C   UNL     1       7.303   4.271  17.005  0.00  0.00    +0.000 C 
BRANCH  13  19
ATOM     14  C   UNL     1       8.057   5.713  19.896  0.00  0.00    +0.000 C 
ATOM     15  C   UNL     1       7.863   6.340  18.572  0.00  0.00    +0.000 A 
ATOM     16  C   UNL     1       7.943   7.679  18.264  0.00  0.00    +0.000 A 
ATOM     17  O   UNL     1       7.692   7.865  16.948  0.00  0.00    +0.000 OA
ATOM     18  N   UNL     1       7.434   6.647  16.350  0.00  0.00    +0.000 NA
ATOM     19  C   UNL     1       7.542   5.729  17.323  0.00  0.00    +0.000 A 
ENDBRANCH  13  19
ENDBRANCH   1  13
TORSDOF 3
ENDMDL
MODEL 7
REMARK VINA RESULT:      -6.7      2.800      3.662
REMARK  Name = 
REMARK  5 active torsions:
REMARK  status: ('A' for Active; 'I' for Inactive)
REMARK    1  A    between atoms: C_1  and  C_2
REMARK    2  A    between atoms: C_6  and  C_7
REMARK    3  A    between atoms: C_7  and  N_8
REMARK    4  A    between atoms: C_12  and  S_13
REMARK    5  A    between atoms: S_13  and  C_14
REMARK                            x       y       z     vdW  Elec       q    Type
REMARK                         _______ _______ _______ _____ _____    ______ ____
ROOT
ATOM      1  N   UNL     1       5.966   5.065  16.223  0.00  0.00    +0.000 N 
ATOM      2  C   UNL     1       5.124   4.575  17.227  0.00  0.00    +0.000 A 
ATOM      3  C   UNL     1       4.946   5.310  18.401  0.00  0.00    +0.000 A 
ATOM      4  C   UNL     1       4.019   4.868  19.351  0.00  0.00    +0.000 A 
ATOM      5  C   UNL     1       3.264   3.737  19.069  0.00  0.00    +0.000 A 
ATOM      6  C   UNL     1       3.484   3.068  17.880  0.00  0.00    +0.000 A 
ATOM      7  N   UNL     1       4.381   3.481  16.958  0.00  0.00    +0.000 NA
ATOM      8  H   UNL     1       5.368   5.662  15.650  0.00  0.00    +0.000 HD
ENDROOT
BRANCH   5   9
ATOM      9  S   UNL     1       2.116   3.070  20.222  0.00  0.00    +0.000 S 
ATOM     10  C   UNL     1       1.101   4.437  20.702  0.00  0.00    +0.000 C 
ATOM     11  O   UNL     1       1.283   2.121  19.506  0.00  0.00    +0.000 OA
ATOM     12  O   UNL     1       2.881   2.647  21.389  0.00  0.00    +0.000 OA
ENDBRANCH   5   9
BRANCH   1  13
ATOM     13  C   UNL     1       6.542   4.031  15.331  0.00  0.00    +0.000 C 
BRANCH  13  19
ATOM     14  C   UNL     1       5.743   3.140  12.237  0.00  0.00    +0.000 C 
ATOM     15  C   UNL     1       6.704   4.170  12.684  0.00  0.00    +0.000 A 
ATOM     16  C   UNL     1       7.489   4.977  11.893  0.00  0.00    +0.000 A 
ATOM     17  O   UNL     1       8.247   5.786  12.669  0.00  0.00    +0.000 OA
ATOM     18  N   UNL     1       7.983   5.530  14.000  0.00  0.00    +0.000 NA
ATOM     19  C   UNL     1       7.052   4.563  14.011  0.00  0.00    +0.000 A 
ENDBRANCH  13  19
ENDBRANCH   1  13
TORSDOF 3
ENDMDL
MODEL 8
REMARK VINA RESULT:      -6.7      2.955      6.369
REMARK  Name = 
REMARK  5 active torsions:
REMARK  status: ('A' for Active; 'I' for Inactive)
REMARK    1  A    between atoms: C_1  and  C_2
REMARK    2  A    between atoms: C_6  and  C_7
REMARK    3  A    between atoms: C_7  and  N_8
REMARK    4  A    between atoms: C_12  and  S_13
REMARK    5  A    between atoms: S_13  and  C_14
REMARK                            x       y       z     vdW  Elec       q    Type
REMARK                         _______ _______ _______ _____ _____    ______ ____
ROOT
ATOM      1  N   UNL     1       2.499   6.116  20.110  0.00  0.00    +0.000 N 
ATOM      2  C   UNL     1       3.553   5.939  19.208  0.00  0.00    +0.000 A 
ATOM      3  C   UNL     1       3.585   6.678  18.024  0.00  0.00    +0.000 A 
ATOM      4  C   UNL     1       4.697   6.575  17.182  0.00  0.00    +0.000 A 
ATOM      5  C   UNL     1       5.763   5.779  17.580  0.00  0.00    +0.000 A 
ATOM      6  C   UNL     1       5.668   5.087  18.773  0.00  0.00    +0.000 A 
ATOM      7  N   UNL     1       4.597   5.172  19.591  0.00  0.00    +0.000 NA
ATOM      8  H   UNL     1       2.794   6.889  20.708  0.00  0.00    +0.000 HD
ENDROOT
BRANCH   5   9
ATOM      9  S   UNL     1       7.179   5.540  16.567  0.00  0.00    +0.000 S 
ATOM     10  C   UNL     1       6.540   5.020  15.001  0.00  0.00    +0.000 C 
ATOM     11  O   UNL     1       7.808   6.836  16.387  0.00  0.00    +0.000 OA
ATOM     12  O   UNL     1       7.930   4.428  17.138  0.00  0.00    +0.000 OA
ENDBRANCH   5   9
BRANCH   1  13
ATOM     13  C   UNL     1       2.227   4.955  20.990  0.00  0.00    +0.000 C 
BRANCH  13  19
ATOM     14  C   UNL     1       3.816   2.134  20.266  0.00  0.00    +0.000 C 
ATOM     15  C   UNL     1       2.424   2.519  19.952  0.00  0.00    +0.000 A 
ATOM     16  C   UNL     1       1.487   1.776  19.271  0.00  0.00    +0.000 A 
ATOM     17  O   UNL     1       0.330   2.471  19.173  0.00  0.00    +0.000 OA
ATOM     18  N   UNL     1       0.475   3.699  19.787  0.00  0.00    +0.000 NA
ATOM     19  C   UNL     1       1.730   3.727  20.262  0.00  0.00    +0.000 A 
ENDBRANCH  13  19
ENDBRANCH   1  13
TORSDOF 3
ENDMDL
MODEL 9
REMARK VINA RESULT:      -6.6      2.598      3.474
REMARK  Name = 
REMARK  5 active torsions:
REMARK  status: ('A' for Active; 'I' for Inactive)
REMARK    1  A    between atoms: C_1  and  C_2
REMARK    2  A    between atoms: C_6  and  C_7
REMARK    3  A    between atoms: C_7  and  N_8
REMARK    4  A    between atoms: C_12  and  S_13
REMARK    5  A    between atoms: S_13  and  C_14
REMARK                            x       y       z     vdW  Elec       q    Type
REMARK                         _______ _______ _______ _____ _____    ______ ____
ROOT
ATOM      1  N   UNL     1       5.547   3.587  16.148  0.00  0.00    +0.000 N 
ATOM      2  C   UNL     1       4.696   3.564  17.258  0.00  0.00    +0.000 A 
ATOM      3  C   UNL     1       4.040   2.380  17.604  0.00  0.00    +0.000 A 
ATOM      4  C   UNL     1       3.279   2.337  18.777  0.00  0.00    +0.000 A 
ATOM      5  C   UNL     1       3.245   3.462  19.591  0.00  0.00    +0.000 A 
ATOM      6  C   UNL     1       3.930   4.594  19.193  0.00  0.00    +0.000 A 
ATOM      7  N   UNL     1       4.663   4.650  18.059  0.00  0.00    +0.000 NA
ATOM      8  H   UNL     1       6.456   3.297  16.511  0.00  0.00    +0.000 HD
ENDROOT
BRANCH   5   9
ATOM      9  S   UNL     1       2.272   3.525  21.054  0.00  0.00    +0.000 S 
ATOM     10  C   UNL     1       0.650   3.032  20.549  0.00  0.00    +0.000 C 
ATOM     11  O   UNL     1       2.786   2.515  21.961  0.00  0.00    +0.000 OA
ATOM     12  O   UNL     1       2.210   4.923  21.464  0.00  0.00    +0.000 OA
ENDBRANCH   5   9
BRANCH   1  13
ATOM     13  C   UNL     1       5.725   4.920  15.526  0.00  0.00    +0.000 C 
BRANCH  13  19
ATOM     14  C   UNL     1       5.473   3.391  12.592  0.00  0.00    +0.000 C 
ATOM     15  C   UNL     1       6.554   4.269  13.088  0.00  0.00    +0.000 A 
ATOM     16  C   UNL     1       7.706   4.627  12.427  0.00  0.00    +0.000 A 
ATOM     17  O   UNL     1       8.456   5.435  13.212  0.00  0.00    +0.000 OA
ATOM     18  N   UNL     1       7.816   5.629  14.421  0.00  0.00    +0.000 NA
ATOM     19  C   UNL     1       6.670   4.933  14.346  0.00  0.00    +0.000 A 
ENDBRANCH  13  19
ENDBRANCH   1  13
TORSDOF 3
ENDMDL
