MODEL 1
REMARK VINA RESULT:      -8.3      0.000      0.000
REMARK  Name = 
REMARK  1 active torsions:
REMARK  status: ('A' for Active; 'I' for Inactive)
REMARK    1  A    between atoms: C_5  and  C_6
REMARK                            x       y       z     vdW  Elec       q    Type
REMARK                         _______ _______ _______ _____ _____    ______ ____
ROOT
ATOM      1  C   UNL     1       4.659   4.857  17.556  0.00  0.00    +0.000 A 
ATOM      2  N   UNL     1       4.555   3.769  18.268  0.00  0.00    +0.000 NA
ATOM      3  C   UNL     1       3.705   3.744  19.398  0.00  0.00    +0.000 A 
ATOM      4  C   UNL     1       3.617   2.571  20.149  0.00  0.00    +0.000 A 
ATOM      5  C   UNL     1       2.791   2.505  21.277  0.00  0.00    +0.000 A 
ATOM      6  C   UNL     1       2.043   3.617  21.668  0.00  0.00    +0.000 A 
ATOM      7  C   UNL     1       2.112   4.801  20.935  0.00  0.00    +0.000 A 
ATOM      8  C   UNL     1       2.943   4.850  19.811  0.00  0.00    +0.000 A 
ATOM      9  N   UNL     1       3.062   5.995  19.014  0.00  0.00    +0.000 N 
ATOM     10  C   UNL     1       2.458   7.217  19.110  0.00  0.00    +0.000 A 
ATOM     11  N   UNL     1       2.799   8.008  18.116  0.00  0.00    +0.000 NA
ATOM     12  C   UNL     1       3.657   7.264  17.348  0.00  0.00    +0.000 A 
ATOM     13  C   UNL     1       3.875   6.020  17.904  0.00  0.00    +0.000 A 
ENDROOT
BRANCH   1  18
ATOM     14  C   UNL     1       6.092   4.178  14.129  0.00  0.00    +0.000 A 
ATOM     15  C   UNL     1       7.235   4.959  14.203  0.00  0.00    +0.000 A 
ATOM     16  N   UNL     1       7.596   5.650  15.305  0.00  0.00    +0.000 NA
ATOM     17  C   UNL     1       6.766   5.570  16.373  0.00  0.00    +0.000 A 
ATOM     18  C   UNL     1       5.569   4.864  16.382  0.00  0.00    +0.000 A 
ATOM     19  C   UNL     1       5.249   4.127  15.239  0.00  0.00    +0.000 A 
ENDBRANCH   1  18
TORSDOF 1
ENDMDL
MODEL 2
REMARK VINA RESULT:      -7.4      2.201      5.827
REMARK  Name = 
REMARK  1 active torsions:
REMARK  status: ('A' for Active; 'I' for Inactive)
REMARK    1  A    between atoms: C_5  and  C_6
REMARK                            x       y       z     vdW  Elec       q    Type
REMARK                         _______ _______ _______ _____ _____    ______ ____
ROOT
ATOM      1  C   UNL     1       3.126   6.510  17.972  0.00  0.00    +0.000 A 
ATOM      2  N   UNL     1       4.266   6.822  17.420  0.00  0.00    +0.000 NA
ATOM      3  C   UNL     1       5.033   5.826  16.773  0.00  0.00    +0.000 A 
ATOM      4  C   UNL     1       6.253   6.183  16.197  0.00  0.00    +0.000 A 
ATOM      5  C   UNL     1       7.045   5.226  15.551  0.00  0.00    +0.000 A 
ATOM      6  C   UNL     1       6.623   3.898  15.475  0.00  0.00    +0.000 A 
ATOM      7  C   UNL     1       5.408   3.515  16.042  0.00  0.00    +0.000 A 
ATOM      8  C   UNL     1       4.629   4.482  16.684  0.00  0.00    +0.000 A 
ATOM      9  N   UNL     1       3.392   4.185  17.269  0.00  0.00    +0.000 N 
ATOM     10  C   UNL     1       2.700   3.009  17.345  0.00  0.00    +0.000 A 
ATOM     11  N   UNL     1       1.534   3.169  17.932  0.00  0.00    +0.000 NA
ATOM     12  C   UNL     1       1.474   4.502  18.248  0.00  0.00    +0.000 A 
ATOM     13  C   UNL     1       2.634   5.154  17.886  0.00  0.00    +0.000 A 
ENDROOT
BRANCH   1  18
ATOM     14  C   UNL     1       1.103   9.638  18.591  0.00  0.00    +0.000 A 
ATOM     15  C   UNL     1       0.842   9.474  19.943  0.00  0.00    +0.000 A 
ATOM     16  N   UNL     1       1.317   8.446  20.675  0.00  0.00    +0.000 NA
ATOM     17  C   UNL     1       2.073   7.530  20.021  0.00  0.00    +0.000 A 
ATOM     18  C   UNL     1       2.345   7.571  18.659  0.00  0.00    +0.000 A 
ATOM     19  C   UNL     1       1.872   8.672  17.941  0.00  0.00    +0.000 A 
ENDBRANCH   1  18
TORSDOF 1
ENDMDL
MODEL 3
REMARK VINA RESULT:      -7.4      1.227      3.174
REMARK  Name = 
REMARK  1 active torsions:
REMARK  status: ('A' for Active; 'I' for Inactive)
REMARK    1  A    between atoms: C_5  and  C_6
REMARK                            x       y       z     vdW  Elec       q    Type
REMARK                         _______ _______ _______ _____ _____    ______ ____
ROOT
ATOM      1  C   UNL     1       4.336   5.456  17.683  0.00  0.00    +0.000 A 
ATOM      2  N   UNL     1       3.792   6.639  17.768  0.00  0.00    +0.000 NA
ATOM      3  C   UNL     1       2.869   6.918  18.802  0.00  0.00    +0.000 A 
ATOM      4  C   UNL     1       2.295   8.188  18.867  0.00  0.00    +0.000 A 
ATOM      5  C   UNL     1       1.373   8.505  19.872  0.00  0.00    +0.000 A 
ATOM      6  C   UNL     1       1.015   7.550  20.825  0.00  0.00    +0.000 A 
ATOM      7  C   UNL     1       1.574   6.273  20.783  0.00  0.00    +0.000 A 
ATOM      8  C   UNL     1       2.492   5.973  19.772  0.00  0.00    +0.000 A 
ATOM      9  N   UNL     1       3.109   4.721  19.664  0.00  0.00    +0.000 N 
ATOM     10  C   UNL     1       2.994   3.599  20.437  0.00  0.00    +0.000 A 
ATOM     11  N   UNL     1       3.799   2.643  20.028  0.00  0.00    +0.000 NA
ATOM     12  C   UNL     1       4.459   3.170  18.947  0.00  0.00    +0.000 A 
ATOM     13  C   UNL     1       4.020   4.448  18.669  0.00  0.00    +0.000 A 
ENDROOT
BRANCH   1  18
ATOM     14  C   UNL     1       5.812   4.138  14.467  0.00  0.00    +0.000 A 
ATOM     15  C   UNL     1       7.052   4.756  14.517  0.00  0.00    +0.000 A 
ATOM     16  N   UNL     1       7.459   5.530  15.545  0.00  0.00    +0.000 NA
ATOM     17  C   UNL     1       6.577   5.708  16.560  0.00  0.00    +0.000 A 
ATOM     18  C   UNL     1       5.291   5.181  16.579  0.00  0.00    +0.000 A 
ATOM     19  C   UNL     1       4.920   4.352  15.518  0.00  0.00    +0.000 A 
ENDBRANCH   1  18
TORSDOF 1
ENDMDL
MODEL 4
REMARK VINA RESULT:      -7.4      1.970      2.793
REMARK  Name = 
REMARK  1 active torsions:
REMARK  status: ('A' for Active; 'I' for Inactive)
REMARK    1  A    between atoms: C_5  and  C_6
REMARK                            x       y       z     vdW  Elec       q    Type
REMARK                         _______ _______ _______ _____ _____    ______ ____
ROOT
ATOM      1  C   UNL     1       5.416   4.464  16.096  0.00  0.00    +0.000 A 
ATOM      2  N   UNL     1       4.140   4.203  16.169  0.00  0.00    +0.000 NA
ATOM      3  C   UNL     1       3.488   4.213  17.423  0.00  0.00    +0.000 A 
ATOM      4  C   UNL     1       2.124   3.924  17.476  0.00  0.00    +0.000 A 
ATOM      5  C   UNL     1       1.441   3.918  18.698  0.00  0.00    +0.000 A 
ATOM      6  C   UNL     1       2.119   4.204  19.884  0.00  0.00    +0.000 A 
ATOM      7  C   UNL     1       3.482   4.497  19.860  0.00  0.00    +0.000 A 
ATOM      8  C   UNL     1       4.149   4.497  18.631  0.00  0.00    +0.000 A 
ATOM      9  N   UNL     1       5.513   4.792  18.516  0.00  0.00    +0.000 N 
ATOM     10  C   UNL     1       6.437   5.129  19.465  0.00  0.00    +0.000 A 
ATOM     11  N   UNL     1       7.610   5.390  18.930  0.00  0.00    +0.000 NA
ATOM     12  C   UNL     1       7.434   5.213  17.582  0.00  0.00    +0.000 A 
ATOM     13  C   UNL     1       6.150   4.799  17.296  0.00  0.00    +0.000 A 
ENDROOT
BRANCH   1  18
ATOM     14  C   UNL     1       6.244   3.565  12.523  0.00  0.00    +0.000 A 
ATOM     15  C   UNL     1       7.286   4.452  12.303  0.00  0.00    +0.000 A 
ATOM     16  N   UNL     1       7.769   5.285  13.248  0.00  0.00    +0.000 NA
ATOM     17  C   UNL     1       7.170   5.242  14.463  0.00  0.00    +0.000 A 
ATOM     18  C   UNL     1       6.083   4.432  14.769  0.00  0.00    +0.000 A 
ATOM     19  C   UNL     1       5.636   3.553  13.779  0.00  0.00    +0.000 A 
ENDBRANCH   1  18
TORSDOF 1
ENDMDL
MODEL 5
REMARK VINA RESULT:      -7.4      1.245      3.026
REMARK  Name = 
REMARK  1 active torsions:
REMARK  status: ('A' for Active; 'I' for Inactive)
REMARK    1  A    between atoms: C_5  and  C_6
REMARK                            x       y       z     vdW  Elec       q    Type
REMARK                         _______ _______ _______ _____ _____    ______ ____
ROOT
ATOM      1  C   UNL     1       4.393   4.897  17.305  0.00  0.00    +0.000 A 
ATOM      2  N   UNL     1       4.020   6.066  17.749  0.00  0.00    +0.000 NA
ATOM      3  C   UNL     1       3.084   6.154  18.804  0.00  0.00    +0.000 A 
ATOM      4  C   UNL     1       2.696   7.416  19.257  0.00  0.00    +0.000 A 
ATOM      5  C   UNL     1       1.767   7.547  20.296  0.00  0.00    +0.000 A 
ATOM      6  C   UNL     1       1.216   6.414  20.896  0.00  0.00    +0.000 A 
ATOM      7  C   UNL     1       1.587   5.141  20.464  0.00  0.00    +0.000 A 
ATOM      8  C   UNL     1       2.514   5.027  19.423  0.00  0.00    +0.000 A 
ATOM      9  N   UNL     1       2.950   3.789  18.937  0.00  0.00    +0.000 N 
ATOM     10  C   UNL     1       2.627   2.516  19.317  0.00  0.00    +0.000 A 
ATOM     11  N   UNL     1       3.310   1.618  18.640  0.00  0.00    +0.000 NA
ATOM     12  C   UNL     1       4.106   2.343  17.790  0.00  0.00    +0.000 A 
ATOM     13  C   UNL     1       3.873   3.696  17.920  0.00  0.00    +0.000 A 
ENDROOT
BRANCH   1  18
ATOM     14  C   UNL     1       5.954   4.113  13.958  0.00  0.00    +0.000 A 
ATOM     15  C   UNL     1       7.156   4.789  14.105  0.00  0.00    +0.000 A 
ATOM     16  N   UNL     1       7.513   5.438  15.233  0.00  0.00    +0.000 NA
ATOM     17  C   UNL     1       6.619   5.427  16.252  0.00  0.00    +0.000 A 
ATOM     18  C   UNL     1       5.366   4.829  16.185  0.00  0.00    +0.000 A 
ATOM     19  C   UNL     1       5.048   4.131  15.018  0.00  0.00    +0.000 A 
ENDBRANCH   1  18
TORSDOF 1
ENDMDL
MODEL 6
REMARK VINA RESULT:      -7.3      2.197      5.871
REMARK  Name = 
REMARK  1 active torsions:
REMARK  status: ('A' for Active; 'I' for Inactive)
REMARK    1  A    between atoms: C_5  and  C_6
REMARK                            x       y       z     vdW  Elec       q    Type
REMARK                         _______ _______ _______ _____ _____    ______ ____
ROOT
ATOM      1  C   UNL     1       3.087   6.508  18.110  0.00  0.00    +0.000 A 
ATOM      2  N   UNL     1       4.233   6.849  17.589  0.00  0.00    +0.000 NA
ATOM      3  C   UNL     1       5.012   5.885  16.908  0.00  0.00    +0.000 A 
ATOM      4  C   UNL     1       6.238   6.272  16.366  0.00  0.00    +0.000 A 
ATOM      5  C   UNL     1       7.043   5.348  15.688  0.00  0.00    +0.000 A 
ATOM      6  C   UNL     1       6.627   4.024  15.546  0.00  0.00    +0.000 A 
ATOM      7  C   UNL     1       5.407   3.611  16.078  0.00  0.00    +0.000 A 
ATOM      8  C   UNL     1       4.616   4.546  16.753  0.00  0.00    +0.000 A 
ATOM      9  N   UNL     1       3.372   4.218  17.307  0.00  0.00    +0.000 N 
ATOM     10  C   UNL     1       2.683   3.038  17.320  0.00  0.00    +0.000 A 
ATOM     11  N   UNL     1       1.509   3.166  17.898  0.00  0.00    +0.000 NA
ATOM     12  C   UNL     1       1.439   4.484  18.273  0.00  0.00    +0.000 A 
ATOM     13  C   UNL     1       2.602   5.155  17.957  0.00  0.00    +0.000 A 
ENDROOT
BRANCH   1  18
ATOM     14  C   UNL     1       1.287   8.359  20.866  0.00  0.00    +0.000 A 
ATOM     15  C   UNL     1       0.889   9.484  20.161  0.00  0.00    +0.000 A 
ATOM     16  N   UNL     1       1.122   9.659  18.843  0.00  0.00    +0.000 NA
ATOM     17  C   UNL     1       1.801   8.672  18.207  0.00  0.00    +0.000 A 
ATOM     18  C   UNL     1       2.292   7.534  18.834  0.00  0.00    +0.000 A 
ATOM     19  C   UNL     1       1.996   7.366  20.189  0.00  0.00    +0.000 A 
ENDBRANCH   1  18
TORSDOF 1
ENDMDL
MODEL 7
REMARK VINA RESULT:      -7.2      2.028      5.972
REMARK  Name = 
REMARK  1 active torsions:
REMARK  status: ('A' for Active; 'I' for Inactive)
REMARK    1  A    between atoms: C_5  and  C_6
REMARK                            x       y       z     vdW  Elec       q    Type
REMARK                         _______ _______ _______ _____ _____    ______ ____
ROOT
ATOM      1  C   UNL     1       4.257   4.113  17.893  0.00  0.00    +0.000 A 
ATOM      2  N   UNL     1       4.160   3.851  16.618  0.00  0.00    +0.000 NA
ATOM      3  C   UNL     1       5.231   4.166  15.750  0.00  0.00    +0.000 A 
ATOM      4  C   UNL     1       5.100   3.882  14.390  0.00  0.00    +0.000 A 
ATOM      5  C   UNL     1       6.134   4.183  13.495  0.00  0.00    +0.000 A 
ATOM      6  C   UNL     1       7.313   4.772  13.954  0.00  0.00    +0.000 A 
ATOM      7  C   UNL     1       7.469   5.066  15.308  0.00  0.00    +0.000 A 
ATOM      8  C   UNL     1       6.426   4.761  16.188  0.00  0.00    +0.000 A 
ATOM      9  N   UNL     1       6.506   5.011  17.563  0.00  0.00    +0.000 N 
ATOM     10  C   UNL     1       7.512   5.548  18.317  0.00  0.00    +0.000 A 
ATOM     11  N   UNL     1       7.209   5.556  19.597  0.00  0.00    +0.000 NA
ATOM     12  C   UNL     1       5.957   5.002  19.670  0.00  0.00    +0.000 A 
ATOM     13  C   UNL     1       5.474   4.692  18.416  0.00  0.00    +0.000 A 
ENDROOT
BRANCH   1  18
ATOM     14  C   UNL     1       1.281   4.490  20.186  0.00  0.00    +0.000 A 
ATOM     15  C   UNL     1       0.959   3.153  20.361  0.00  0.00    +0.000 A 
ATOM     16  N   UNL     1       1.671   2.139  19.826  0.00  0.00    +0.000 NA
ATOM     17  C   UNL     1       2.741   2.479  19.066  0.00  0.00    +0.000 A 
ATOM     18  C   UNL     1       3.113   3.787  18.783  0.00  0.00    +0.000 A 
ATOM     19  C   UNL     1       2.379   4.811  19.388  0.00  0.00    +0.000 A 
ENDBRANCH   1  18
TORSDOF 1
ENDMDL
MODEL 8
REMARK VINA RESULT:      -7.2      1.477      3.680
REMARK  Name = 
REMARK  1 active torsions:
REMARK  status: ('A' for Active; 'I' for Inactive)
REMARK    1  A    between atoms: C_5  and  C_6
REMARK                            x       y       z     vdW  Elec       q    Type
REMARK                         _______ _______ _______ _____ _____    ______ ____
ROOT
ATOM      1  C   UNL     1       4.103   6.260  17.665  0.00  0.00    +0.000 A 
ATOM      2  N   UNL     1       3.667   7.465  17.415  0.00  0.00    +0.000 NA
ATOM      3  C   UNL     1       2.698   8.053  18.259  0.00  0.00    +0.000 A 
ATOM      4  C   UNL     1       2.242   9.339  17.967  0.00  0.00    +0.000 A 
ATOM      5  C   UNL     1       1.279   9.956  18.774  0.00  0.00    +0.000 A 
ATOM      6  C   UNL     1       0.761   9.290  19.886  0.00  0.00    +0.000 A 
ATOM      7  C   UNL     1       1.199   8.005  20.201  0.00  0.00    +0.000 A 
ATOM      8  C   UNL     1       2.160   7.402  19.383  0.00  0.00    +0.000 A 
ATOM      9  N   UNL     1       2.663   6.119  19.634  0.00  0.00    +0.000 N 
ATOM     10  C   UNL     1       2.385   5.231  20.635  0.00  0.00    +0.000 A 
ATOM     11  N   UNL     1       3.126   4.148  20.543  0.00  0.00    +0.000 NA
ATOM     12  C   UNL     1       3.914   4.348  19.438  0.00  0.00    +0.000 A 
ATOM     13  C   UNL     1       3.619   5.548  18.825  0.00  0.00    +0.000 A 
ENDROOT
BRANCH   1  18
ATOM     14  C   UNL     1       5.724   4.011  15.101  0.00  0.00    +0.000 A 
ATOM     15  C   UNL     1       6.970   4.614  15.028  0.00  0.00    +0.000 A 
ATOM     16  N   UNL     1       7.336   5.667  15.788  0.00  0.00    +0.000 NA
ATOM     17  C   UNL     1       6.405   6.151  16.647  0.00  0.00    +0.000 A 
ATOM     18  C   UNL     1       5.111   5.657  16.755  0.00  0.00    +0.000 A 
ATOM     19  C   UNL     1       4.782   4.540  15.983  0.00  0.00    +0.000 A 
ENDBRANCH   1  18
TORSDOF 1
ENDMDL
MODEL 9
REMARK VINA RESULT:      -7.1      2.023      5.891
REMARK  Name = 
REMARK  1 active torsions:
REMARK  status: ('A' for Active; 'I' for Inactive)
REMARK    1  A    between atoms: C_5  and  C_6
REMARK                            x       y       z     vdW  Elec       q    Type
REMARK                         _______ _______ _______ _____ _____    ______ ____
ROOT
ATOM      1  C   UNL     1       4.111   4.212  17.733  0.00  0.00    +0.000 A 
ATOM      2  N   UNL     1       4.073   3.965  16.453  0.00  0.00    +0.000 NA
ATOM      3  C   UNL     1       5.206   4.229  15.649  0.00  0.00    +0.000 A 
ATOM      4  C   UNL     1       5.138   3.963  14.281  0.00  0.00    +0.000 A 
ATOM      5  C   UNL     1       6.235   4.215  13.449  0.00  0.00    +0.000 A 
ATOM      6  C   UNL     1       7.416   4.736  13.980  0.00  0.00    +0.000 A 
ATOM      7  C   UNL     1       7.511   5.009  15.344  0.00  0.00    +0.000 A 
ATOM      8  C   UNL     1       6.405   4.754  16.161  0.00  0.00    +0.000 A 
ATOM      9  N   UNL     1       6.420   4.989  17.541  0.00  0.00    +0.000 N 
ATOM     10  C   UNL     1       7.409   5.464  18.356  0.00  0.00    +0.000 A 
ATOM     11  N   UNL     1       7.035   5.478  19.617  0.00  0.00    +0.000 NA
ATOM     12  C   UNL     1       5.753   4.993  19.613  0.00  0.00    +0.000 A 
ATOM     13  C   UNL     1       5.325   4.720  18.331  0.00  0.00    +0.000 A 
ENDROOT
BRANCH   1  18
ATOM     14  C   UNL     1       0.990   2.569  19.082  0.00  0.00    +0.000 A 
ATOM     15  C   UNL     1       0.722   3.426  20.138  0.00  0.00    +0.000 A 
ATOM     16  N   UNL     1       1.455   4.526  20.411  0.00  0.00    +0.000 NA
ATOM     17  C   UNL     1       2.515   4.768  19.602  0.00  0.00    +0.000 A 
ATOM     18  C   UNL     1       2.903   3.941  18.554  0.00  0.00    +0.000 A 
ATOM     19  C   UNL     1       2.097   2.835  18.275  0.00  0.00    +0.000 A 
ENDBRANCH   1  18
TORSDOF 1
ENDMDL
