MODEL 1
REMARK VINA RESULT:      -7.4      0.000      0.000
REMARK  Name = 
REMARK  8 active torsions:
REMARK  status: ('A' for Active; 'I' for Inactive)
REMARK    1  A    between atoms: C_2  and  C_3
REMARK    2  A    between atoms: C_2  and  C_11
REMARK    3  A    between atoms: C_4  and  C_5
REMARK    4  A    between atoms: C_14  and  O_15
REMARK    5  A    between atoms: O_15  and  C_16
REMARK    6  A    between atoms: C_16  and  C_17
REMARK    7  A    between atoms: C_17  and  C_18
REMARK    8  A    between atoms: C_18  and  N_19
REMARK                            x       y       z     vdW  Elec       q    Type
REMARK                         _______ _______ _______ _____ _____    ______ ____
ROOT
ATOM      1  C   UNL     1       1.290   8.857  19.905  0.00  0.00    +0.000 A 
ATOM      2  C   UNL     1       1.321   7.832  20.864  0.00  0.00    +0.000 A 
ATOM      3  C   UNL     1       1.937   6.620  20.579  0.00  0.00    +0.000 A 
ATOM      4  C   UNL     1       2.476   6.364  19.302  0.00  0.00    +0.000 A 
ATOM      5  C   UNL     1       2.529   7.404  18.378  0.00  0.00    +0.000 A 
ATOM      6  C   UNL     1       1.954   8.638  18.672  0.00  0.00    +0.000 A 
ENDROOT
BRANCH   1   8
ATOM      7  O   UNL     1       1.008  10.905  21.037  0.00  0.00    +0.000 OA
ATOM      8  C   UNL     1       0.547  10.117  20.222  0.00  0.00    +0.000 C 
BRANCH   8   9
ATOM      9  C   UNL     1      -0.751  10.425  19.574  0.00  0.00    +0.000 C 
ATOM     10  C   UNL     1      -0.912  10.600  18.257  0.00  0.00    +0.000 C 
BRANCH  10  11
ATOM     11  C   UNL     1      -2.242  10.876  17.649  0.00  0.00    +0.000 A 
ATOM     12  C   UNL     1      -2.568  10.539  16.309  0.00  0.00    +0.000 A 
ATOM     13  C   UNL     1      -3.832  10.832  15.803  0.00  0.00    +0.000 A 
ATOM     14  C   UNL     1      -4.769  11.454  16.622  0.00  0.00    +0.000 A 
ATOM     15  N   UNL     1      -4.451  11.773  17.902  0.00  0.00    +0.000 NA
ATOM     16  C   UNL     1      -3.225  11.506  18.426  0.00  0.00    +0.000 A 
ENDBRANCH  10  11
ENDBRANCH   8   9
ENDBRANCH   1   8
BRANCH   4  17
ATOM     17  O   UNL     1       2.873   5.123  18.918  0.00  0.00    +0.000 OA
BRANCH  17  18
ATOM     18  C   UNL     1       2.435   4.420  17.798  0.00  0.00    +0.000 C 
BRANCH  18  19
ATOM     19  C   UNL     1       3.504   3.475  17.140  0.00  0.00    +0.000 C 
BRANCH  19  20
ATOM     20  C   UNL     1       4.961   3.817  17.528  0.00  0.00    +0.000 C 
BRANCH  20  21
ATOM     21  N   UNL     1       5.912   4.139  16.442  0.00  0.00    +0.000 NA
ATOM     22  C   UNL     1       7.179   4.655  17.026  0.00  0.00    +0.000 C 
ATOM     23  C   UNL     1       7.023   6.102  17.559  0.00  0.00    +0.000 C 
ATOM     24  O   UNL     1       6.578   6.966  16.534  0.00  0.00    +0.000 OA
ATOM     25  C   UNL     1       5.313   6.535  16.067  0.00  0.00    +0.000 C 
ATOM     26  C   UNL     1       5.412   5.124  15.458  0.00  0.00    +0.000 C 
ENDBRANCH  20  21
ENDBRANCH  19  20
ENDBRANCH  18  19
ENDBRANCH  17  18
ENDBRANCH   4  17
TORSDOF 8
ENDMDL
MODEL 2
REMARK VINA RESULT:      -7.2      1.728      3.343
REMARK  Name = 
REMARK  8 active torsions:
REMARK  status: ('A' for Active; 'I' for Inactive)
REMARK    1  A    between atoms: C_2  and  C_3
REMARK    2  A    between atoms: C_2  and  C_11
REMARK    3  A    between atoms: C_4  and  C_5
REMARK    4  A    between atoms: C_14  and  O_15
REMARK    5  A    between atoms: O_15  and  C_16
REMARK    6  A    between atoms: C_16  and  C_17
REMARK    7  A    between atoms: C_17  and  C_18
REMARK    8  A    between atoms: C_18  and  N_19
REMARK                            x       y       z     vdW  Elec       q    Type
REMARK                         _______ _______ _______ _____ _____    ______ ____
ROOT
ATOM      1  C   UNL     1       1.479   8.870  19.121  0.00  0.00    +0.000 A 
ATOM      2  C   UNL     1       2.088   8.820  17.857  0.00  0.00    +0.000 A 
ATOM      3  C   UNL     1       2.933   7.770  17.523  0.00  0.00    +0.000 A 
ATOM      4  C   UNL     1       3.259   6.775  18.467  0.00  0.00    +0.000 A 
ATOM      5  C   UNL     1       2.591   6.767  19.689  0.00  0.00    +0.000 A 
ATOM      6  C   UNL     1       1.707   7.792  20.014  0.00  0.00    +0.000 A 
ENDROOT
BRANCH   1   8
ATOM      7  O   UNL     1       1.030  10.851  20.317  0.00  0.00    +0.000 OA
ATOM      8  C   UNL     1       0.639  10.058  19.470  0.00  0.00    +0.000 C 
BRANCH   8   9
ATOM      9  C   UNL     1      -0.673  10.288  18.815  0.00  0.00    +0.000 C 
ATOM     10  C   UNL     1      -1.538  11.239  19.180  0.00  0.00    +0.000 C 
BRANCH  10  11
ATOM     11  C   UNL     1      -2.831  11.452  18.471  0.00  0.00    +0.000 A 
ATOM     12  C   UNL     1      -3.046  11.077  17.120  0.00  0.00    +0.000 A 
ATOM     13  C   UNL     1      -4.280  11.311  16.518  0.00  0.00    +0.000 A 
ATOM     14  C   UNL     1      -5.297  11.912  17.254  0.00  0.00    +0.000 A 
ATOM     15  N   UNL     1      -5.084  12.267  18.546  0.00  0.00    +0.000 NA
ATOM     16  C   UNL     1      -3.890  12.058  19.162  0.00  0.00    +0.000 A 
ENDBRANCH  10  11
ENDBRANCH   8   9
ENDBRANCH   1   8
BRANCH   4  17
ATOM     17  O   UNL     1       4.252   5.872  18.256  0.00  0.00    +0.000 OA
BRANCH  17  18
ATOM     18  C   UNL     1       4.560   5.242  17.052  0.00  0.00    +0.000 C 
BRANCH  18  19
ATOM     19  C   UNL     1       4.125   3.735  16.955  0.00  0.00    +0.000 C 
BRANCH  19  20
ATOM     20  C   UNL     1       2.645   3.489  17.326  0.00  0.00    +0.000 C 
BRANCH  20  21
ATOM     21  N   UNL     1       2.315   2.270  18.096  0.00  0.00    +0.000 NA
ATOM     22  C   UNL     1       0.958   2.406  18.689  0.00  0.00    +0.000 C 
ATOM     23  C   UNL     1       0.948   3.383  19.892  0.00  0.00    +0.000 C 
ATOM     24  O   UNL     1       1.866   2.964  20.882  0.00  0.00    +0.000 OA
ATOM     25  C   UNL     1       3.174   2.953  20.340  0.00  0.00    +0.000 C 
ATOM     26  C   UNL     1       3.270   1.947  19.178  0.00  0.00    +0.000 C 
ENDBRANCH  20  21
ENDBRANCH  19  20
ENDBRANCH  18  19
ENDBRANCH  17  18
ENDBRANCH   4  17
TORSDOF 8
ENDMDL
MODEL 3
REMARK VINA RESULT:      -7.2      1.112      1.661
REMARK  Name = 
REMARK  8 active torsions:
REMARK  status: ('A' for Active; 'I' for Inactive)
REMARK    1  A    between atoms: C_2  and  C_3
REMARK    2  A    between atoms: C_2  and  C_11
REMARK    3  A    between atoms: C_4  and  C_5
REMARK    4  A    between atoms: C_14  and  O_15
REMARK    5  A    between atoms: O_15  and  C_16
REMARK    6  A    between atoms: C_16  and  C_17
REMARK    7  A    between atoms: C_17  and  C_18
REMARK    8  A    between atoms: C_18  and  N_19
REMARK                            x       y       z     vdW  Elec       q    Type
REMARK                         _______ _______ _______ _____ _____    ______ ____
ROOT
ATOM      1  C   UNL     1       1.410   9.122  19.630  0.00  0.00    +0.000 A 
ATOM      2  C   UNL     1       1.280   8.360  20.802  0.00  0.00    +0.000 A 
ATOM      3  C   UNL     1       1.752   7.055  20.849  0.00  0.00    +0.000 A 
ATOM      4  C   UNL     1       2.303   6.442  19.706  0.00  0.00    +0.000 A 
ATOM      5  C   UNL     1       2.519   7.217  18.569  0.00  0.00    +0.000 A 
ATOM      6  C   UNL     1       2.088   8.541  18.528  0.00  0.00    +0.000 A 
ENDROOT
BRANCH   1   8
ATOM      7  O   UNL     1       1.224  11.354  20.365  0.00  0.00    +0.000 OA
ATOM      8  C   UNL     1       0.817  10.496  19.593  0.00  0.00    +0.000 C 
BRANCH   8   9
ATOM      9  C   UNL     1      -0.270  10.835  18.643  0.00  0.00    +0.000 C 
ATOM     10  C   UNL     1      -1.330  10.056  18.403  0.00  0.00    +0.000 C 
BRANCH  10  11
ATOM     11  C   UNL     1      -2.414  10.454  17.463  0.00  0.00    +0.000 A 
ATOM     12  C   UNL     1      -3.487  11.306  17.831  0.00  0.00    +0.000 A 
ATOM     13  C   UNL     1      -4.470  11.633  16.901  0.00  0.00    +0.000 A 
ATOM     14  C   UNL     1      -4.388  11.121  15.610  0.00  0.00    +0.000 A 
ATOM     15  N   UNL     1      -3.358  10.308  15.264  0.00  0.00    +0.000 NA
ATOM     16  C   UNL     1      -2.385   9.964  16.149  0.00  0.00    +0.000 A 
ENDBRANCH  10  11
ENDBRANCH   8   9
ENDBRANCH   1   8
BRANCH   4  17
ATOM     17  O   UNL     1       2.559   5.109  19.650  0.00  0.00    +0.000 OA
BRANCH  17  18
ATOM     18  C   UNL     1       2.430   4.285  18.534  0.00  0.00    +0.000 C 
BRANCH  18  19
ATOM     19  C   UNL     1       3.763   3.620  18.035  0.00  0.00    +0.000 C 
BRANCH  19  20
ATOM     20  C   UNL     1       4.222   4.111  16.644  0.00  0.00    +0.000 C 
BRANCH  20  21
ATOM     21  N   UNL     1       4.995   5.370  16.571  0.00  0.00    +0.000 NA
ATOM     22  C   UNL     1       5.661   5.471  15.244  0.00  0.00    +0.000 C 
ATOM     23  C   UNL     1       6.873   4.512  15.131  0.00  0.00    +0.000 C 
ATOM     24  O   UNL     1       7.808   4.767  16.159  0.00  0.00    +0.000 OA
ATOM     25  C   UNL     1       7.198   4.551  17.419  0.00  0.00    +0.000 C 
ATOM     26  C   UNL     1       6.021   5.524  17.624  0.00  0.00    +0.000 C 
ENDBRANCH  20  21
ENDBRANCH  19  20
ENDBRANCH  18  19
ENDBRANCH  17  18
ENDBRANCH   4  17
TORSDOF 8
ENDMDL
MODEL 4
REMARK VINA RESULT:      -7.1      1.937      8.981
REMARK  Name = 
REMARK  8 active torsions:
REMARK  status: ('A' for Active; 'I' for Inactive)
REMARK    1  A    between atoms: C_2  and  C_3
REMARK    2  A    between atoms: C_2  and  C_11
REMARK    3  A    between atoms: C_4  and  C_5
REMARK    4  A    between atoms: C_14  and  O_15
REMARK    5  A    between atoms: O_15  and  C_16
REMARK    6  A    between atoms: C_16  and  C_17
REMARK    7  A    between atoms: C_17  and  C_18
REMARK    8  A    between atoms: C_18  and  N_19
REMARK                            x       y       z     vdW  Elec       q    Type
REMARK                         _______ _______ _______ _____ _____    ______ ____
ROOT
ATOM      1  C   UNL     1       2.150   7.170  19.822  0.00  0.00    +0.000 A 
ATOM      2  C   UNL     1       2.048   8.136  18.808  0.00  0.00    +0.000 A 
ATOM      3  C   UNL     1       1.354   9.318  19.029  0.00  0.00    +0.000 A 
ATOM      4  C   UNL     1       0.675   9.543  20.244  0.00  0.00    +0.000 A 
ATOM      5  C   UNL     1       0.846   8.634  21.285  0.00  0.00    +0.000 A 
ATOM      6  C   UNL     1       1.579   7.466  21.086  0.00  0.00    +0.000 A 
ENDROOT
BRANCH   1   8
ATOM      7  O   UNL     1       2.791   4.958  20.327  0.00  0.00    +0.000 OA
ATOM      8  C   UNL     1       2.838   5.876  19.518  0.00  0.00    +0.000 C 
BRANCH   8   9
ATOM      9  C   UNL     1       3.592   5.687  18.254  0.00  0.00    +0.000 C 
ATOM     10  C   UNL     1       4.900   5.416  18.193  0.00  0.00    +0.000 C 
BRANCH  10  11
ATOM     11  C   UNL     1       5.608   5.203  16.900  0.00  0.00    +0.000 A 
ATOM     12  C   UNL     1       5.091   4.394  15.855  0.00  0.00    +0.000 A 
ATOM     13  C   UNL     1       5.809   4.235  14.674  0.00  0.00    +0.000 A 
ATOM     14  C   UNL     1       7.035   4.877  14.527  0.00  0.00    +0.000 A 
ATOM     15  N   UNL     1       7.524   5.649  15.530  0.00  0.00    +0.000 NA
ATOM     16  C   UNL     1       6.850   5.822  16.698  0.00  0.00    +0.000 A 
ENDBRANCH  10  11
ENDBRANCH   8   9
ENDBRANCH   1   8
BRANCH   4  17
ATOM     17  O   UNL     1      -0.197  10.571  20.408  0.00  0.00    +0.000 OA
BRANCH  17  18
ATOM     18  C   UNL     1      -0.011  11.891  20.004  0.00  0.00    +0.000 C 
BRANCH  18  19
ATOM     19  C   UNL     1      -0.211  12.155  18.468  0.00  0.00    +0.000 C 
BRANCH  19  20
ATOM     20  C   UNL     1      -1.692  12.178  18.027  0.00  0.00    +0.000 C 
BRANCH  20  21
ATOM     21  N   UNL     1      -2.469  10.924  18.137  0.00  0.00    +0.000 NA
ATOM     22  C   UNL     1      -2.074   9.994  17.046  0.00  0.00    +0.000 C 
ATOM     23  C   UNL     1      -2.645  10.435  15.675  0.00  0.00    +0.000 C 
ATOM     24  O   UNL     1      -4.053  10.540  15.731  0.00  0.00    +0.000 OA
ATOM     25  C   UNL     1      -4.417  11.517  16.689  0.00  0.00    +0.000 C 
ATOM     26  C   UNL     1      -3.937  11.104  18.093  0.00  0.00    +0.000 C 
ENDBRANCH  20  21
ENDBRANCH  19  20
ENDBRANCH  18  19
ENDBRANCH  17  18
ENDBRANCH   4  17
TORSDOF 8
ENDMDL
MODEL 5
REMARK VINA RESULT:      -7.1      1.334      1.659
REMARK  Name = 
REMARK  8 active torsions:
REMARK  status: ('A' for Active; 'I' for Inactive)
REMARK    1  A    between atoms: C_2  and  C_3
REMARK    2  A    between atoms: C_2  and  C_11
REMARK    3  A    between atoms: C_4  and  C_5
REMARK    4  A    between atoms: C_14  and  O_15
REMARK    5  A    between atoms: O_15  and  C_16
REMARK    6  A    between atoms: C_16  and  C_17
REMARK    7  A    between atoms: C_17  and  C_18
REMARK    8  A    between atoms: C_18  and  N_19
REMARK                            x       y       z     vdW  Elec       q    Type
REMARK                         _______ _______ _______ _____ _____    ______ ____
ROOT
ATOM      1  C   UNL     1       1.647   7.714  20.247  0.00  0.00    +0.000 A 
ATOM      2  C   UNL     1       1.566   6.433  20.815  0.00  0.00    +0.000 A 
ATOM      3  C   UNL     1       2.072   5.330  20.140  0.00  0.00    +0.000 A 
ATOM      4  C   UNL     1       2.609   5.458  18.843  0.00  0.00    +0.000 A 
ATOM      5  C   UNL     1       2.775   6.735  18.311  0.00  0.00    +0.000 A 
ATOM      6  C   UNL     1       2.311   7.851  19.001  0.00  0.00    +0.000 A 
ENDROOT
BRANCH   1   8
ATOM      7  O   UNL     1       1.560   9.325  21.965  0.00  0.00    +0.000 OA
ATOM      8  C   UNL     1       1.018   8.864  20.970  0.00  0.00    +0.000 C 
BRANCH   8   9
ATOM      9  C   UNL     1      -0.264   9.451  20.508  0.00  0.00    +0.000 C 
ATOM     10  C   UNL     1      -0.417  10.110  19.354  0.00  0.00    +0.000 C 
BRANCH  10  11
ATOM     11  C   UNL     1      -1.733  10.654  18.918  0.00  0.00    +0.000 A 
ATOM     12  C   UNL     1      -2.509  10.072  17.882  0.00  0.00    +0.000 A 
ATOM     13  C   UNL     1      -3.729  10.637  17.522  0.00  0.00    +0.000 A 
ATOM     14  C   UNL     1      -4.180  11.773  18.187  0.00  0.00    +0.000 A 
ATOM     15  N   UNL     1      -3.433  12.323  19.177  0.00  0.00    +0.000 NA
ATOM     16  C   UNL     1      -2.235  11.800  19.551  0.00  0.00    +0.000 A 
ENDBRANCH  10  11
ENDBRANCH   8   9
ENDBRANCH   1   8
BRANCH   4  17
ATOM     17  O   UNL     1       2.897   4.381  18.067  0.00  0.00    +0.000 OA
BRANCH  17  18
ATOM     18  C   UNL     1       3.672   3.281  18.427  0.00  0.00    +0.000 C 
BRANCH  18  19
ATOM     19  C   UNL     1       4.915   3.606  19.331  0.00  0.00    +0.000 C 
BRANCH  19  20
ATOM     20  C   UNL     1       5.683   4.878  18.902  0.00  0.00    +0.000 C 
BRANCH  20  21
ATOM     21  N   UNL     1       7.086   4.727  18.460  0.00  0.00    +0.000 NA
ATOM     22  C   UNL     1       7.842   5.970  18.768  0.00  0.00    +0.000 C 
ATOM     23  C   UNL     1       7.475   7.125  17.802  0.00  0.00    +0.000 C 
ATOM     24  O   UNL     1       7.702   6.743  16.460  0.00  0.00    +0.000 OA
ATOM     25  C   UNL     1       6.887   5.631  16.140  0.00  0.00    +0.000 C 
ATOM     26  C   UNL     1       7.249   4.422  17.023  0.00  0.00    +0.000 C 
ENDBRANCH  20  21
ENDBRANCH  19  20
ENDBRANCH  18  19
ENDBRANCH  17  18
ENDBRANCH   4  17
TORSDOF 8
ENDMDL
MODEL 6
REMARK VINA RESULT:      -7.0      5.705      8.724
REMARK  Name = 
REMARK  8 active torsions:
REMARK  status: ('A' for Active; 'I' for Inactive)
REMARK    1  A    between atoms: C_2  and  C_3
REMARK    2  A    between atoms: C_2  and  C_11
REMARK    3  A    between atoms: C_4  and  C_5
REMARK    4  A    between atoms: C_14  and  O_15
REMARK    5  A    between atoms: O_15  and  C_16
REMARK    6  A    between atoms: C_16  and  C_17
REMARK    7  A    between atoms: C_17  and  C_18
REMARK    8  A    between atoms: C_18  and  N_19
REMARK                            x       y       z     vdW  Elec       q    Type
REMARK                         _______ _______ _______ _____ _____    ______ ____
ROOT
ATOM      1  C   UNL     1       6.699   5.652  17.268  0.00  0.00    +0.000 A 
ATOM      2  C   UNL     1       7.470   5.447  18.423  0.00  0.00    +0.000 A 
ATOM      3  C   UNL     1       8.172   6.498  18.997  0.00  0.00    +0.000 A 
ATOM      4  C   UNL     1       8.189   7.772  18.395  0.00  0.00    +0.000 A 
ATOM      5  C   UNL     1       7.357   8.007  17.303  0.00  0.00    +0.000 A 
ATOM      6  C   UNL     1       6.614   6.968  16.748  0.00  0.00    +0.000 A 
ENDROOT
BRANCH   1   8
ATOM      7  O   UNL     1       6.489   3.983  15.616  0.00  0.00    +0.000 OA
ATOM      8  C   UNL     1       6.022   4.477  16.635  0.00  0.00    +0.000 C 
BRANCH   8   9
ATOM      9  C   UNL     1       4.782   3.904  17.213  0.00  0.00    +0.000 C 
ATOM     10  C   UNL     1       4.013   4.529  18.111  0.00  0.00    +0.000 C 
BRANCH  10  11
ATOM     11  C   UNL     1       2.758   3.926  18.640  0.00  0.00    +0.000 A 
ATOM     12  C   UNL     1       2.191   2.733  18.121  0.00  0.00    +0.000 A 
ATOM     13  C   UNL     1       1.011   2.228  18.661  0.00  0.00    +0.000 A 
ATOM     14  C   UNL     1       0.397   2.902  19.713  0.00  0.00    +0.000 A 
ATOM     15  N   UNL     1       0.945   4.042  20.204  0.00  0.00    +0.000 NA
ATOM     16  C   UNL     1       2.093   4.565  19.697  0.00  0.00    +0.000 A 
ENDBRANCH  10  11
ENDBRANCH   8   9
ENDBRANCH   1   8
BRANCH   4  17
ATOM     17  O   UNL     1       9.042   8.752  18.793  0.00  0.00    +0.000 OA
BRANCH  17  18
ATOM     18  C   UNL     1       8.780  10.120  18.820  0.00  0.00    +0.000 C 
BRANCH  18  19
ATOM     19  C   UNL     1       9.674  10.953  19.808  0.00  0.00    +0.000 C 
BRANCH  19  20
ATOM     20  C   UNL     1      10.821  11.723  19.113  0.00  0.00    +0.000 C 
BRANCH  20  21
ATOM     21  N   UNL     1      10.530  12.389  17.825  0.00  0.00    +0.000 NA
ATOM     22  C   UNL     1      11.795  12.891  17.226  0.00  0.00    +0.000 C 
ATOM     23  C   UNL     1      12.324  14.150  17.961  0.00  0.00    +0.000 C 
ATOM     24  O   UNL     1      11.350  15.174  17.959  0.00  0.00    +0.000 OA
ATOM     25  C   UNL     1      10.191  14.727  18.637  0.00  0.00    +0.000 C 
ATOM     26  C   UNL     1       9.574  13.514  17.916  0.00  0.00    +0.000 C 
ENDBRANCH  20  21
ENDBRANCH  19  20
ENDBRANCH  18  19
ENDBRANCH  17  18
ENDBRANCH   4  17
TORSDOF 8
ENDMDL
MODEL 7
REMARK VINA RESULT:      -7.0      0.962      1.408
REMARK  Name = 
REMARK  8 active torsions:
REMARK  status: ('A' for Active; 'I' for Inactive)
REMARK    1  A    between atoms: C_2  and  C_3
REMARK    2  A    between atoms: C_2  and  C_11
REMARK    3  A    between atoms: C_4  and  C_5
REMARK    4  A    between atoms: C_14  and  O_15
REMARK    5  A    between atoms: O_15  and  C_16
REMARK    6  A    between atoms: C_16  and  C_17
REMARK    7  A    between atoms: C_17  and  C_18
REMARK    8  A    between atoms: C_18  and  N_19
REMARK                            x       y       z     vdW  Elec       q    Type
REMARK                         _______ _______ _______ _____ _____    ______ ____
ROOT
ATOM      1  C   UNL     1       1.323   9.284  19.821  0.00  0.00    +0.000 A 
ATOM      2  C   UNL     1       1.093   8.523  20.978  0.00  0.00    +0.000 A 
ATOM      3  C   UNL     1       1.484   7.192  21.035  0.00  0.00    +0.000 A 
ATOM      4  C   UNL     1       2.049   6.554  19.911  0.00  0.00    +0.000 A 
ATOM      5  C   UNL     1       2.363   7.323  18.793  0.00  0.00    +0.000 A 
ATOM      6  C   UNL     1       2.015   8.671  18.746  0.00  0.00    +0.000 A 
ENDROOT
BRANCH   1   8
ATOM      7  O   UNL     1       1.349  11.554  20.455  0.00  0.00    +0.000 OA
ATOM      8  C   UNL     1       0.815  10.691  19.771  0.00  0.00    +0.000 C 
BRANCH   8   9
ATOM      9  C   UNL     1      -0.339  11.059  18.914  0.00  0.00    +0.000 C 
ATOM     10  C   UNL     1      -1.247  10.188  18.462  0.00  0.00    +0.000 C 
BRANCH  10  11
ATOM     11  C   UNL     1      -2.408  10.610  17.630  0.00  0.00    +0.000 A 
ATOM     12  C   UNL     1      -2.522  10.311  16.247  0.00  0.00    +0.000 A 
ATOM     13  C   UNL     1      -3.633  10.743  15.529  0.00  0.00    +0.000 A 
ATOM     14  C   UNL     1      -4.629  11.465  16.178  0.00  0.00    +0.000 A 
ATOM     15  N   UNL     1      -4.514  11.747  17.500  0.00  0.00    +0.000 NA
ATOM     16  C   UNL     1      -3.440  11.345  18.230  0.00  0.00    +0.000 A 
ENDBRANCH  10  11
ENDBRANCH   8   9
ENDBRANCH   1   8
BRANCH   4  17
ATOM     17  O   UNL     1       2.227   5.209  19.854  0.00  0.00    +0.000 OA
BRANCH  17  18
ATOM     18  C   UNL     1       3.328   4.538  19.325  0.00  0.00    +0.000 C 
BRANCH  18  19
ATOM     19  C   UNL     1       3.124   3.952  17.882  0.00  0.00    +0.000 C 
BRANCH  19  20
ATOM     20  C   UNL     1       4.423   3.886  17.046  0.00  0.00    +0.000 C 
BRANCH  20  21
ATOM     21  N   UNL     1       5.055   5.160  16.642  0.00  0.00    +0.000 NA
ATOM     22  C   UNL     1       5.471   5.081  15.216  0.00  0.00    +0.000 C 
ATOM     23  C   UNL     1       6.728   4.193  15.029  0.00  0.00    +0.000 C 
ATOM     24  O   UNL     1       7.798   4.673  15.816  0.00  0.00    +0.000 OA
ATOM     25  C   UNL     1       7.435   4.632  17.184  0.00  0.00    +0.000 C 
ATOM     26  C   UNL     1       6.229   5.550  17.452  0.00  0.00    +0.000 C 
ENDBRANCH  20  21
ENDBRANCH  19  20
ENDBRANCH  18  19
ENDBRANCH  17  18
ENDBRANCH   4  17
TORSDOF 8
ENDMDL
MODEL 8
REMARK VINA RESULT:      -7.0      5.641      8.386
REMARK  Name = 
REMARK  8 active torsions:
REMARK  status: ('A' for Active; 'I' for Inactive)
REMARK    1  A    between atoms: C_2  and  C_3
REMARK    2  A    between atoms: C_2  and  C_11
REMARK    3  A    between atoms: C_4  and  C_5
REMARK    4  A    between atoms: C_14  and  O_15
REMARK    5  A    between atoms: O_15  and  C_16
REMARK    6  A    between atoms: C_16  and  C_17
REMARK    7  A    between atoms: C_17  and  C_18
REMARK    8  A    between atoms: C_18  and  N_19
REMARK                            x       y       z     vdW  Elec       q    Type
REMARK                         _______ _______ _______ _____ _____    ______ ____
ROOT
ATOM      1  C   UNL     1       6.950   6.413  17.646  0.00  0.00    +0.000 A 
ATOM      2  C   UNL     1       7.051   5.013  17.659  0.00  0.00    +0.000 A 
ATOM      3  C   UNL     1       6.091   4.232  17.028  0.00  0.00    +0.000 A 
ATOM      4  C   UNL     1       4.959   4.821  16.428  0.00  0.00    +0.000 A 
ATOM      5  C   UNL     1       4.898   6.209  16.332  0.00  0.00    +0.000 A 
ATOM      6  C   UNL     1       5.880   6.999  16.924  0.00  0.00    +0.000 A 
ENDROOT
BRANCH   1   8
ATOM      7  O   UNL     1       8.537   6.716  19.363  0.00  0.00    +0.000 OA
ATOM      8  C   UNL     1       7.961   7.215  18.405  0.00  0.00    +0.000 C 
BRANCH   8   9
ATOM      9  C   UNL     1       8.268   8.616  18.027  0.00  0.00    +0.000 C 
ATOM     10  C   UNL     1       8.989   9.457  18.776  0.00  0.00    +0.000 C 
BRANCH  10  11
ATOM     11  C   UNL     1       9.298  10.846  18.339  0.00  0.00    +0.000 A 
ATOM     12  C   UNL     1      10.609  11.390  18.351  0.00  0.00    +0.000 A 
ATOM     13  C   UNL     1      10.825  12.701  17.933  0.00  0.00    +0.000 A 
ATOM     14  C   UNL     1       9.747  13.468  17.502  0.00  0.00    +0.000 A 
ATOM     15  N   UNL     1       8.497  12.940  17.492  0.00  0.00    +0.000 NA
ATOM     16  C   UNL     1       8.250  11.667  17.898  0.00  0.00    +0.000 A 
ENDBRANCH  10  11
ENDBRANCH   8   9
ENDBRANCH   1   8
BRANCH   4  17
ATOM     17  O   UNL     1       3.895   4.086  16.010  0.00  0.00    +0.000 OA
BRANCH  17  18
ATOM     18  C   UNL     1       2.965   3.437  16.818  0.00  0.00    +0.000 C 
BRANCH  18  19
ATOM     19  C   UNL     1       1.940   4.378  17.548  0.00  0.00    +0.000 C 
BRANCH  19  20
ATOM     20  C   UNL     1       1.596   3.929  18.986  0.00  0.00    +0.000 C 
BRANCH  20  21
ATOM     21  N   UNL     1       2.433   4.441  20.093  0.00  0.00    +0.000 NA
ATOM     22  C   UNL     1       3.837   3.986  19.908  0.00  0.00    +0.000 C 
ATOM     23  C   UNL     1       4.006   2.481  20.240  0.00  0.00    +0.000 C 
ATOM     24  O   UNL     1       3.583   2.211  21.560  0.00  0.00    +0.000 OA
ATOM     25  C   UNL     1       2.211   2.536  21.694  0.00  0.00    +0.000 C 
ATOM     26  C   UNL     1       1.983   4.038  21.443  0.00  0.00    +0.000 C 
ENDBRANCH  20  21
ENDBRANCH  19  20
ENDBRANCH  18  19
ENDBRANCH  17  18
ENDBRANCH   4  17
TORSDOF 8
ENDMDL
MODEL 9
REMARK VINA RESULT:      -6.9      3.240      4.055
REMARK  Name = 
REMARK  8 active torsions:
REMARK  status: ('A' for Active; 'I' for Inactive)
REMARK    1  A    between atoms: C_2  and  C_3
REMARK    2  A    between atoms: C_2  and  C_11
REMARK    3  A    between atoms: C_4  and  C_5
REMARK    4  A    between atoms: C_14  and  O_15
REMARK    5  A    between atoms: O_15  and  C_16
REMARK    6  A    between atoms: C_16  and  C_17
REMARK    7  A    between atoms: C_17  and  C_18
REMARK    8  A    between atoms: C_18  and  N_19
REMARK                            x       y       z     vdW  Elec       q    Type
REMARK                         _______ _______ _______ _____ _____    ______ ____
ROOT
ATOM      1  C   UNL     1       1.178   9.357  19.548  0.00  0.00    +0.000 A 
ATOM      2  C   UNL     1       1.485   9.264  18.181  0.00  0.00    +0.000 A 
ATOM      3  C   UNL     1       2.147   8.150  17.682  0.00  0.00    +0.000 A 
ATOM      4  C   UNL     1       2.591   7.126  18.543  0.00  0.00    +0.000 A 
ATOM      5  C   UNL     1       2.212   7.166  19.882  0.00  0.00    +0.000 A 
ATOM      6  C   UNL     1       1.508   8.259  20.382  0.00  0.00    +0.000 A 
ENDROOT
BRANCH   1   8
ATOM      7  O   UNL     1      -0.560  10.552  20.600  0.00  0.00    +0.000 OA
ATOM      8  C   UNL     1       0.536  10.609  20.059  0.00  0.00    +0.000 C 
BRANCH   8   9
ATOM      9  C   UNL     1       1.201  11.927  19.908  0.00  0.00    +0.000 C 
ATOM     10  C   UNL     1       1.055  12.726  18.846  0.00  0.00    +0.000 C 
BRANCH  10  11
ATOM     11  C   UNL     1       1.718  14.056  18.754  0.00  0.00    +0.000 A 
ATOM     12  C   UNL     1       2.883  14.291  17.980  0.00  0.00    +0.000 A 
ATOM     13  C   UNL     1       3.454  15.561  17.944  0.00  0.00    +0.000 A 
ATOM     14  C   UNL     1       2.870  16.594  18.670  0.00  0.00    +0.000 A 
ATOM     15  N   UNL     1       1.754  16.362  19.407  0.00  0.00    +0.000 NA
ATOM     16  C   UNL     1       1.175  15.134  19.469  0.00  0.00    +0.000 A 
ENDBRANCH  10  11
ENDBRANCH   8   9
ENDBRANCH   1   8
BRANCH   4  17
ATOM     17  O   UNL     1       3.435   6.145  18.129  0.00  0.00    +0.000 OA
BRANCH  17  18
ATOM     18  C   UNL     1       3.416   4.810  18.526  0.00  0.00    +0.000 C 
BRANCH  18  19
ATOM     19  C   UNL     1       4.801   4.227  18.984  0.00  0.00    +0.000 C 
BRANCH  19  20
ATOM     20  C   UNL     1       5.865   5.309  19.279  0.00  0.00    +0.000 C 
BRANCH  20  21
ATOM     21  N   UNL     1       7.235   5.095  18.762  0.00  0.00    +0.000 NA
ATOM     22  C   UNL     1       7.976   6.385  18.765  0.00  0.00    +0.000 C 
ATOM     23  C   UNL     1       7.503   7.326  17.628  0.00  0.00    +0.000 C 
ATOM     24  O   UNL     1       7.638   6.697  16.371  0.00  0.00    +0.000 OA
ATOM     25  C   UNL     1       6.834   5.532  16.335  0.00  0.00    +0.000 C 
ATOM     26  C   UNL     1       7.297   4.521  17.401  0.00  0.00    +0.000 C 
ENDBRANCH  20  21
ENDBRANCH  19  20
ENDBRANCH  18  19
ENDBRANCH  17  18
ENDBRANCH   4  17
TORSDOF 8
ENDMDL
