MODEL 1
REMARK VINA RESULT:      -7.2      0.000      0.000
REMARK  Name = 
REMARK  5 active torsions:
REMARK  status: ('A' for Active; 'I' for Inactive)
REMARK    1  A    between atoms: C_1  and  C_2
REMARK    2  A    between atoms: N_10  and  C_11
REMARK    3  A    between atoms: C_11  and  C_12
REMARK    4  A    between atoms: C_12  and  O_14
REMARK    5  A    between atoms: C_17  and  C_18
REMARK                            x       y       z     vdW  Elec       q    Type
REMARK                         _______ _______ _______ _____ _____    ______ ____
ROOT
ATOM      1  C   UNL     1       1.020   2.917  18.793  0.00  0.00    +0.000 C 
ATOM      2  C   UNL     1       2.372   3.526  18.537  0.00  0.00    +0.000 A 
ATOM      3  C   UNL     1       2.968   3.361  17.280  0.00  0.00    +0.000 A 
ATOM      4  C   UNL     1       4.174   3.998  16.975  0.00  0.00    +0.000 A 
ATOM      5  N   UNL     1       4.686   3.846  15.689  0.00  0.00    +0.000 N 
ATOM      6  C   UNL     1       5.815   4.480  15.244  0.00  0.00    +0.000 A 
ATOM      7  O   UNL     1       6.231   4.321  14.105  0.00  0.00    +0.000 OA
ATOM      8  C   UNL     1       6.531   5.411  16.240  0.00  0.00    +0.000 A 
ATOM      9  O   UNL     1       7.487   6.075  15.857  0.00  0.00    +0.000 OA
ATOM     10  N   UNL     1       6.039   5.466  17.552  0.00  0.00    +0.000 N 
ATOM     11  C   UNL     1       4.839   4.786  17.924  0.00  0.00    +0.000 A 
ATOM     12  C   UNL     1       4.266   4.909  19.197  0.00  0.00    +0.000 A 
ATOM     13  C   UNL     1       3.032   4.301  19.509  0.00  0.00    +0.000 A 
ATOM     14  C   UNL     1       2.416   4.534  20.864  0.00  0.00    +0.000 C 
ATOM     15  H   UNL     1       4.222   3.253  15.012  0.00  0.00    +0.000 HD
ENDROOT
BRANCH  10  16
ATOM     16  C   UNL     1       6.858   6.180  18.540  0.00  0.00    +0.000 C 
BRANCH  16  17
ATOM     17  C   UNL     1       7.895   5.345  19.285  0.00  0.00    +0.000 C 
ATOM     18  O   UNL     1       8.590   4.501  18.734  0.00  0.00    +0.000 OA
BRANCH  17  19
ATOM     19  O   UNL     1       7.989   5.592  20.610  0.00  0.00    +0.000 OA
ATOM     20  H   UNL     1       7.136   5.866  20.995  0.00  0.00    +0.000 HD
ENDBRANCH  17  19
ENDBRANCH  16  17
ENDBRANCH  10  16
TORSDOF 3
ENDMDL
MODEL 2
REMARK VINA RESULT:      -7.0      3.444      5.015
REMARK  Name = 
REMARK  5 active torsions:
REMARK  status: ('A' for Active; 'I' for Inactive)
REMARK    1  A    between atoms: C_1  and  C_2
REMARK    2  A    between atoms: N_10  and  C_11
REMARK    3  A    between atoms: C_11  and  C_12
REMARK    4  A    between atoms: C_12  and  O_14
REMARK    5  A    between atoms: C_17  and  C_18
REMARK                            x       y       z     vdW  Elec       q    Type
REMARK                         _______ _______ _______ _____ _____    ______ ____
ROOT
ATOM      1  C   UNL     1       0.967   9.228  20.366  0.00  0.00    +0.000 C 
ATOM      2  C   UNL     1       1.674   7.965  19.953  0.00  0.00    +0.000 A 
ATOM      3  C   UNL     1       1.736   6.892  20.851  0.00  0.00    +0.000 A 
ATOM      4  C   UNL     1       2.293   5.671  20.463  0.00  0.00    +0.000 A 
ATOM      5  N   UNL     1       2.270   4.623  21.380  0.00  0.00    +0.000 N 
ATOM      6  C   UNL     1       2.713   3.359  21.095  0.00  0.00    +0.000 A 
ATOM      7  O   UNL     1       2.674   2.465  21.928  0.00  0.00    +0.000 OA
ATOM      8  C   UNL     1       3.254   3.112  19.675  0.00  0.00    +0.000 A 
ATOM      9  O   UNL     1       3.568   1.975  19.343  0.00  0.00    +0.000 OA
ATOM     10  N   UNL     1       3.346   4.213  18.811  0.00  0.00    +0.000 N 
ATOM     11  C   UNL     1       2.839   5.495  19.185  0.00  0.00    +0.000 A 
ATOM     12  C   UNL     1       2.821   6.585  18.304  0.00  0.00    +0.000 A 
ATOM     13  C   UNL     1       2.231   7.814  18.669  0.00  0.00    +0.000 A 
ATOM     14  C   UNL     1       2.160   8.928  17.657  0.00  0.00    +0.000 C 
ATOM     15  H   UNL     1       1.904   4.758  22.314  0.00  0.00    +0.000 HD
ENDROOT
BRANCH  10  16
ATOM     16  C   UNL     1       4.064   4.007  17.546  0.00  0.00    +0.000 C 
BRANCH  16  17
ATOM     17  C   UNL     1       5.540   4.395  17.538  0.00  0.00    +0.000 C 
ATOM     18  O   UNL     1       6.047   5.064  16.647  0.00  0.00    +0.000 OA
BRANCH  17  19
ATOM     19  O   UNL     1       6.262   3.934  18.582  0.00  0.00    +0.000 OA
ATOM     20  H   UNL     1       5.823   4.105  19.438  0.00  0.00    +0.000 HD
ENDBRANCH  17  19
ENDBRANCH  16  17
ENDBRANCH  10  16
TORSDOF 3
ENDMDL
MODEL 3
REMARK VINA RESULT:      -6.9      2.664      5.498
REMARK  Name = 
REMARK  5 active torsions:
REMARK  status: ('A' for Active; 'I' for Inactive)
REMARK    1  A    between atoms: C_1  and  C_2
REMARK    2  A    between atoms: N_10  and  C_11
REMARK    3  A    between atoms: C_11  and  C_12
REMARK    4  A    between atoms: C_12  and  O_14
REMARK    5  A    between atoms: C_17  and  C_18
REMARK                            x       y       z     vdW  Elec       q    Type
REMARK                         _______ _______ _______ _____ _____    ______ ____
ROOT
ATOM      1  C   UNL     1       7.836   5.006  12.850  0.00  0.00    +0.000 C 
ATOM      2  C   UNL     1       6.989   4.681  14.050  0.00  0.00    +0.000 A 
ATOM      3  C   UNL     1       7.465   4.997  15.329  0.00  0.00    +0.000 A 
ATOM      4  C   UNL     1       6.661   4.803  16.455  0.00  0.00    +0.000 A 
ATOM      5  N   UNL     1       7.167   5.194  17.693  0.00  0.00    +0.000 N 
ATOM      6  C   UNL     1       6.450   5.128  18.857  0.00  0.00    +0.000 A 
ATOM      7  O   UNL     1       6.930   5.485  19.924  0.00  0.00    +0.000 OA
ATOM      8  C   UNL     1       5.009   4.595  18.761  0.00  0.00    +0.000 A 
ATOM      9  O   UNL     1       4.297   4.611  19.759  0.00  0.00    +0.000 OA
ATOM     10  N   UNL     1       4.568   4.125  17.516  0.00  0.00    +0.000 N 
ATOM     11  C   UNL     1       5.377   4.253  16.346  0.00  0.00    +0.000 A 
ATOM     12  C   UNL     1       4.922   3.890  15.070  0.00  0.00    +0.000 A 
ATOM     13  C   UNL     1       5.708   4.112  13.920  0.00  0.00    +0.000 A 
ATOM     14  C   UNL     1       5.139   3.784  12.564  0.00  0.00    +0.000 C 
ATOM     15  H   UNL     1       8.105   5.564  17.777  0.00  0.00    +0.000 HD
ENDROOT
BRANCH  10  16
ATOM     16  C   UNL     1       3.280   3.420  17.489  0.00  0.00    +0.000 C 
BRANCH  16  17
ATOM     17  C   UNL     1       3.236   2.068  18.194  0.00  0.00    +0.000 C 
ATOM     18  O   UNL     1       2.370   1.769  19.006  0.00  0.00    +0.000 OA
BRANCH  17  19
ATOM     19  O   UNL     1       4.234   1.218  17.871  0.00  0.00    +0.000 OA
ATOM     20  H   UNL     1       4.932   1.651  17.344  0.00  0.00    +0.000 HD
ENDBRANCH  17  19
ENDBRANCH  16  17
ENDBRANCH  10  16
TORSDOF 3
ENDMDL
MODEL 4
REMARK VINA RESULT:      -6.9      1.194      3.686
REMARK  Name = 
REMARK  5 active torsions:
REMARK  status: ('A' for Active; 'I' for Inactive)
REMARK    1  A    between atoms: C_1  and  C_2
REMARK    2  A    between atoms: N_10  and  C_11
REMARK    3  A    between atoms: C_11  and  C_12
REMARK    4  A    between atoms: C_12  and  O_14
REMARK    5  A    between atoms: C_17  and  C_18
REMARK                            x       y       z     vdW  Elec       q    Type
REMARK                         _______ _______ _______ _____ _____    ______ ____
ROOT
ATOM      1  C   UNL     1       1.369   4.115  20.814  0.00  0.00    +0.000 C 
ATOM      2  C   UNL     1       2.461   4.124  19.779  0.00  0.00    +0.000 A 
ATOM      3  C   UNL     1       3.604   4.902  19.999  0.00  0.00    +0.000 A 
ATOM      4  C   UNL     1       4.681   4.854  19.109  0.00  0.00    +0.000 A 
ATOM      5  N   UNL     1       5.814   5.603  19.415  0.00  0.00    +0.000 N 
ATOM      6  C   UNL     1       6.960   5.580  18.666  0.00  0.00    +0.000 A 
ATOM      7  O   UNL     1       7.936   6.251  18.970  0.00  0.00    +0.000 OA
ATOM      8  C   UNL     1       6.968   4.663  17.429  0.00  0.00    +0.000 A 
ATOM      9  O   UNL     1       8.003   4.535  16.786  0.00  0.00    +0.000 OA
ATOM     10  N   UNL     1       5.778   3.998  17.103  0.00  0.00    +0.000 N 
ATOM     11  C   UNL     1       4.633   4.062  17.955  0.00  0.00    +0.000 A 
ATOM     12  C   UNL     1       3.468   3.322  17.710  0.00  0.00    +0.000 A 
ATOM     13  C   UNL     1       2.387   3.333  18.617  0.00  0.00    +0.000 A 
ATOM     14  C   UNL     1       1.192   2.455  18.351  0.00  0.00    +0.000 C 
ATOM     15  H   UNL     1       5.838   6.200  20.233  0.00  0.00    +0.000 HD
ENDROOT
BRANCH  10  16
ATOM     16  C   UNL     1       5.736   3.308  15.807  0.00  0.00    +0.000 C 
BRANCH  16  17
ATOM     17  C   UNL     1       5.841   4.193  14.568  0.00  0.00    +0.000 C 
ATOM     18  O   UNL     1       5.429   5.345  14.537  0.00  0.00    +0.000 OA
BRANCH  17  19
ATOM     19  O   UNL     1       6.412   3.611  13.492  0.00  0.00    +0.000 OA
ATOM     20  H   UNL     1       6.350   2.637  13.521  0.00  0.00    +0.000 HD
ENDBRANCH  17  19
ENDBRANCH  16  17
ENDBRANCH  10  16
TORSDOF 3
ENDMDL
MODEL 5
REMARK VINA RESULT:      -6.9      1.395      3.676
REMARK  Name = 
REMARK  5 active torsions:
REMARK  status: ('A' for Active; 'I' for Inactive)
REMARK    1  A    between atoms: C_1  and  C_2
REMARK    2  A    between atoms: N_10  and  C_11
REMARK    3  A    between atoms: C_11  and  C_12
REMARK    4  A    between atoms: C_12  and  O_14
REMARK    5  A    between atoms: C_17  and  C_18
REMARK                            x       y       z     vdW  Elec       q    Type
REMARK                         _______ _______ _______ _____ _____    ______ ____
ROOT
ATOM      1  C   UNL     1       3.007   2.404  20.564  0.00  0.00    +0.000 C 
ATOM      2  C   UNL     1       3.696   3.236  19.516  0.00  0.00    +0.000 A 
ATOM      3  C   UNL     1       4.760   4.064  19.893  0.00  0.00    +0.000 A 
ATOM      4  C   UNL     1       5.488   4.770  18.931  0.00  0.00    +0.000 A 
ATOM      5  N   UNL     1       6.574   5.529  19.361  0.00  0.00    +0.000 N 
ATOM      6  C   UNL     1       7.410   6.202  18.511  0.00  0.00    +0.000 A 
ATOM      7  O   UNL     1       8.355   6.856  18.929  0.00  0.00    +0.000 OA
ATOM      8  C   UNL     1       7.113   6.090  17.005  0.00  0.00    +0.000 A 
ATOM      9  O   UNL     1       7.891   6.592  16.202  0.00  0.00    +0.000 OA
ATOM     10  N   UNL     1       5.959   5.394  16.618  0.00  0.00    +0.000 N 
ATOM     11  C   UNL     1       5.153   4.702  17.572  0.00  0.00    +0.000 A 
ATOM     12  C   UNL     1       4.056   3.911  17.203  0.00  0.00    +0.000 A 
ATOM     13  C   UNL     1       3.334   3.166  18.158  0.00  0.00    +0.000 A 
ATOM     14  C   UNL     1       2.217   2.264  17.699  0.00  0.00    +0.000 C 
ATOM     15  H   UNL     1       6.798   5.603  20.346  0.00  0.00    +0.000 HD
ENDROOT
BRANCH  10  16
ATOM     16  C   UNL     1       5.571   5.484  15.203  0.00  0.00    +0.000 C 
BRANCH  16  17
ATOM     17  C   UNL     1       6.414   4.677  14.220  0.00  0.00    +0.000 C 
ATOM     18  O   UNL     1       6.165   3.514  13.928  0.00  0.00    +0.000 OA
BRANCH  17  19
ATOM     19  O   UNL     1       7.474   5.331  13.698  0.00  0.00    +0.000 OA
ATOM     20  H   UNL     1       7.535   6.251  14.020  0.00  0.00    +0.000 HD
ENDBRANCH  17  19
ENDBRANCH  16  17
ENDBRANCH  10  16
TORSDOF 3
ENDMDL
MODEL 6
REMARK VINA RESULT:      -6.8      2.567      5.556
REMARK  Name = 
REMARK  5 active torsions:
REMARK  status: ('A' for Active; 'I' for Inactive)
REMARK    1  A    between atoms: C_1  and  C_2
REMARK    2  A    between atoms: N_10  and  C_11
REMARK    3  A    between atoms: C_11  and  C_12
REMARK    4  A    between atoms: C_12  and  O_14
REMARK    5  A    between atoms: C_17  and  C_18
REMARK                            x       y       z     vdW  Elec       q    Type
REMARK                         _______ _______ _______ _____ _____    ______ ____
ROOT
ATOM      1  C   UNL     1       7.808   5.118  12.835  0.00  0.00    +0.000 C 
ATOM      2  C   UNL     1       7.030   4.749  14.069  0.00  0.00    +0.000 A 
ATOM      3  C   UNL     1       7.548   5.081  15.327  0.00  0.00    +0.000 A 
ATOM      4  C   UNL     1       6.805   4.846  16.487  0.00  0.00    +0.000 A 
ATOM      5  N   UNL     1       7.347   5.254  17.703  0.00  0.00    +0.000 N 
ATOM      6  C   UNL     1       6.686   5.151  18.898  0.00  0.00    +0.000 A 
ATOM      7  O   UNL     1       7.197   5.523  19.945  0.00  0.00    +0.000 OA
ATOM      8  C   UNL     1       5.267   4.554  18.863  0.00  0.00    +0.000 A 
ATOM      9  O   UNL     1       4.601   4.534  19.891  0.00  0.00    +0.000 OA
ATOM     10  N   UNL     1       4.793   4.071  17.635  0.00  0.00    +0.000 N 
ATOM     11  C   UNL     1       5.543   4.240  16.431  0.00  0.00    +0.000 A 
ATOM     12  C   UNL     1       5.048   3.863  15.175  0.00  0.00    +0.000 A 
ATOM     13  C   UNL     1       5.771   4.124  13.992  0.00  0.00    +0.000 A 
ATOM     14  C   UNL     1       5.157   3.777  12.660  0.00  0.00    +0.000 C 
ATOM     15  H   UNL     1       8.271   5.664  17.748  0.00  0.00    +0.000 HD
ENDROOT
BRANCH  10  16
ATOM     16  C   UNL     1       3.537   3.309  17.660  0.00  0.00    +0.000 C 
BRANCH  16  17
ATOM     17  C   UNL     1       2.251   4.130  17.666  0.00  0.00    +0.000 C 
ATOM     18  O   UNL     1       1.146   3.636  17.480  0.00  0.00    +0.000 OA
BRANCH  17  19
ATOM     19  O   UNL     1       2.413   5.454  17.877  0.00  0.00    +0.000 OA
ATOM     20  H   UNL     1       3.343   5.732  17.779  0.00  0.00    +0.000 HD
ENDBRANCH  17  19
ENDBRANCH  16  17
ENDBRANCH  10  16
TORSDOF 3
ENDMDL
MODEL 7
REMARK VINA RESULT:      -6.8      3.995      5.050
REMARK  Name = 
REMARK  5 active torsions:
REMARK  status: ('A' for Active; 'I' for Inactive)
REMARK    1  A    between atoms: C_1  and  C_2
REMARK    2  A    between atoms: N_10  and  C_11
REMARK    3  A    between atoms: C_11  and  C_12
REMARK    4  A    between atoms: C_12  and  O_14
REMARK    5  A    between atoms: C_17  and  C_18
REMARK                            x       y       z     vdW  Elec       q    Type
REMARK                         _______ _______ _______ _____ _____    ______ ____
ROOT
ATOM      1  C   UNL     1       1.645   9.983  18.323  0.00  0.00    +0.000 C 
ATOM      2  C   UNL     1       1.940   8.576  18.770  0.00  0.00    +0.000 A 
ATOM      3  C   UNL     1       2.652   7.723  17.917  0.00  0.00    +0.000 A 
ATOM      4  C   UNL     1       3.031   6.447  18.341  0.00  0.00    +0.000 A 
ATOM      5  N   UNL     1       3.791   5.669  17.472  0.00  0.00    +0.000 N 
ATOM      6  C   UNL     1       4.288   4.436  17.798  0.00  0.00    +0.000 A 
ATOM      7  O   UNL     1       4.954   3.784  17.006  0.00  0.00    +0.000 OA
ATOM      8  C   UNL     1       3.980   3.910  19.213  0.00  0.00    +0.000 A 
ATOM      9  O   UNL     1       4.486   2.858  19.584  0.00  0.00    +0.000 OA
ATOM     10  N   UNL     1       3.135   4.681  20.025  0.00  0.00    +0.000 N 
ATOM     11  C   UNL     1       2.678   5.969  19.611  0.00  0.00    +0.000 A 
ATOM     12  C   UNL     1       1.922   6.805  20.443  0.00  0.00    +0.000 A 
ATOM     13  C   UNL     1       1.562   8.109  20.043  0.00  0.00    +0.000 A 
ATOM     14  C   UNL     1       0.822   8.999  21.007  0.00  0.00    +0.000 C 
ATOM     15  H   UNL     1       4.020   6.001  16.543  0.00  0.00    +0.000 HD
ENDROOT
BRANCH  10  16
ATOM     16  C   UNL     1       2.675   4.066  21.277  0.00  0.00    +0.000 C 
BRANCH  16  17
ATOM     17  C   UNL     1       1.493   3.107  21.162  0.00  0.00    +0.000 C 
ATOM     18  O   UNL     1       0.770   3.057  20.176  0.00  0.00    +0.000 OA
BRANCH  17  19
ATOM     19  O   UNL     1       1.286   2.317  22.238  0.00  0.00    +0.000 OA
ATOM     20  H   UNL     1       0.580   2.661  22.818  0.00  0.00    +0.000 HD
ENDBRANCH  17  19
ENDBRANCH  16  17
ENDBRANCH  10  16
TORSDOF 3
ENDMDL
MODEL 8
REMARK VINA RESULT:      -6.7      1.808      3.680
REMARK  Name = 
REMARK  5 active torsions:
REMARK  status: ('A' for Active; 'I' for Inactive)
REMARK    1  A    between atoms: C_1  and  C_2
REMARK    2  A    between atoms: N_10  and  C_11
REMARK    3  A    between atoms: C_11  and  C_12
REMARK    4  A    between atoms: C_12  and  O_14
REMARK    5  A    between atoms: C_17  and  C_18
REMARK                            x       y       z     vdW  Elec       q    Type
REMARK                         _______ _______ _______ _____ _____    ______ ____
ROOT
ATOM      1  C   UNL     1       1.331   4.483  19.979  0.00  0.00    +0.000 C 
ATOM      2  C   UNL     1       2.422   4.519  18.942  0.00  0.00    +0.000 A 
ATOM      3  C   UNL     1       3.215   5.667  18.825  0.00  0.00    +0.000 A 
ATOM      4  C   UNL     1       4.300   5.696  17.945  0.00  0.00    +0.000 A 
ATOM      5  N   UNL     1       5.089   6.843  17.918  0.00  0.00    +0.000 N 
ATOM      6  C   UNL     1       6.222   6.965  17.159  0.00  0.00    +0.000 A 
ATOM      7  O   UNL     1       6.889   7.989  17.165  0.00  0.00    +0.000 OA
ATOM      8  C   UNL     1       6.623   5.748  16.304  0.00  0.00    +0.000 A 
ATOM      9  O   UNL     1       7.681   5.775  15.685  0.00  0.00    +0.000 OA
ATOM     10  N   UNL     1       5.755   4.648  16.287  0.00  0.00    +0.000 N 
ATOM     11  C   UNL     1       4.603   4.597  17.129  0.00  0.00    +0.000 A 
ATOM     12  C   UNL     1       3.777   3.468  17.212  0.00  0.00    +0.000 A 
ATOM     13  C   UNL     1       2.699   3.411  18.120  0.00  0.00    +0.000 A 
ATOM     14  C   UNL     1       1.894   2.142  18.231  0.00  0.00    +0.000 C 
ATOM     15  H   UNL     1       4.854   7.649  18.485  0.00  0.00    +0.000 HD
ENDROOT
BRANCH  10  16
ATOM     16  C   UNL     1       6.036   3.594  15.303  0.00  0.00    +0.000 C 
BRANCH  16  17
ATOM     17  C   UNL     1       5.908   3.991  13.835  0.00  0.00    +0.000 C 
ATOM     18  O   UNL     1       4.864   3.883  13.205  0.00  0.00    +0.000 OA
BRANCH  17  19
ATOM     19  O   UNL     1       7.039   4.462  13.265  0.00  0.00    +0.000 OA
ATOM     20  H   UNL     1       7.250   4.003  12.430  0.00  0.00    +0.000 HD
ENDBRANCH  17  19
ENDBRANCH  16  17
ENDBRANCH  10  16
TORSDOF 3
ENDMDL
MODEL 9
REMARK VINA RESULT:      -6.6      2.320      3.225
REMARK  Name = 
REMARK  5 active torsions:
REMARK  status: ('A' for Active; 'I' for Inactive)
REMARK    1  A    between atoms: C_1  and  C_2
REMARK    2  A    between atoms: N_10  and  C_11
REMARK    3  A    between atoms: C_11  and  C_12
REMARK    4  A    between atoms: C_12  and  O_14
REMARK    5  A    between atoms: C_17  and  C_18
REMARK                            x       y       z     vdW  Elec       q    Type
REMARK                         _______ _______ _______ _____ _____    ______ ____
ROOT
ATOM      1  C   UNL     1       2.312   2.893  21.725  0.00  0.00    +0.000 C 
ATOM      2  C   UNL     1       2.914   3.479  20.476  0.00  0.00    +0.000 A 
ATOM      3  C   UNL     1       2.462   4.724  20.020  0.00  0.00    +0.000 A 
ATOM      4  C   UNL     1       3.069   5.344  18.925  0.00  0.00    +0.000 A 
ATOM      5  N   UNL     1       2.617   6.609  18.557  0.00  0.00    +0.000 N 
ATOM      6  C   UNL     1       3.180   7.351  17.554  0.00  0.00    +0.000 A 
ATOM      7  O   UNL     1       2.755   8.460  17.263  0.00  0.00    +0.000 OA
ATOM      8  C   UNL     1       4.380   6.730  16.815  0.00  0.00    +0.000 A 
ATOM      9  O   UNL     1       4.978   7.397  15.978  0.00  0.00    +0.000 OA
ATOM     10  N   UNL     1       4.746   5.419  17.151  0.00  0.00    +0.000 N 
ATOM     11  C   UNL     1       4.116   4.725  18.229  0.00  0.00    +0.000 A 
ATOM     12  C   UNL     1       4.533   3.456  18.656  0.00  0.00    +0.000 A 
ATOM     13  C   UNL     1       3.953   2.834  19.781  0.00  0.00    +0.000 A 
ATOM     14  C   UNL     1       4.494   1.508  20.251  0.00  0.00    +0.000 C 
ATOM     15  H   UNL     1       1.841   7.044  19.040  0.00  0.00    +0.000 HD
ENDROOT
BRANCH  10  16
ATOM     16  C   UNL     1       5.742   4.765  16.291  0.00  0.00    +0.000 C 
BRANCH  16  17
ATOM     17  C   UNL     1       7.204   5.088  16.586  0.00  0.00    +0.000 C 
ATOM     18  O   UNL     1       7.925   4.356  17.251  0.00  0.00    +0.000 OA
BRANCH  17  19
ATOM     19  O   UNL     1       7.652   6.253  16.070  0.00  0.00    +0.000 OA
ATOM     20  H   UNL     1       6.970   6.708  15.540  0.00  0.00    +0.000 HD
ENDBRANCH  17  19
ENDBRANCH  16  17
ENDBRANCH  10  16
TORSDOF 3
ENDMDL
