MODEL 1
REMARK VINA RESULT:      -8.2      0.000      0.000
REMARK  Name = 
REMARK  5 active torsions:
REMARK  status: ('A' for Active; 'I' for Inactive)
REMARK    1  A    between atoms: C_2  and  C_4
REMARK    2  A    between atoms: C_5  and  N_6
REMARK    3  A    between atoms: N_9  and  C_10
REMARK    4  A    between atoms: N_22  and  C_23
REMARK    5  A    between atoms: C_23  and  C_24
REMARK                            x       y       z     vdW  Elec       q    Type
REMARK                         _______ _______ _______ _____ _____    ______ ____
ROOT
ATOM      1  C   UNL     1       0.307   9.901  21.103  0.00  0.00    +0.000 A 
ATOM      2  C   UNL     1       0.830   9.230  19.971  0.00  0.00    +0.000 A 
ATOM      3  S   UNL     1       0.191   9.956  18.580  0.00  0.00    +0.000 S 
ATOM      4  C   UNL     1      -0.734  11.091  19.363  0.00  0.00    +0.000 A 
ATOM      5  C   UNL     1      -0.626  10.915  20.733  0.00  0.00    +0.000 A 
ATOM      6  C   UNL     1      -1.433  11.786  21.668  0.00  0.00    +0.000 C 
ATOM      7  C   UNL     1      -2.488  12.605  20.876  0.00  0.00    +0.000 C 
ATOM      8  N   UNL     1      -1.907  13.252  19.676  0.00  0.00    +0.000 NA
ATOM      9  C   UNL     1      -1.529  12.183  18.706  0.00  0.00    +0.000 C 
ENDROOT
BRANCH   2  10
ATOM     10  N   UNL     1       1.657   8.051  19.980  0.00  0.00    +0.000 N 
ATOM     11  C   UNL     1       2.432   7.661  18.918  0.00  0.00    +0.000 C 
ATOM     12  O   UNL     1       2.493   8.371  17.927  0.00  0.00    +0.000 OA
ATOM     13  N   UNL     1       3.096   6.461  18.945  0.00  0.00    +0.000 N 
ATOM     14  H   UNL     1       1.607   7.413  20.782  0.00  0.00    +0.000 HD
ATOM     15  H   UNL     1       2.964   5.867  19.783  0.00  0.00    +0.000 HD
BRANCH  13  16
ATOM     16  C   UNL     1       3.863   5.908  17.857  0.00  0.00    +0.000 A 
ATOM     17  C   UNL     1       4.694   6.680  17.011  0.00  0.00    +0.000 A 
ATOM     18  C   UNL     1       5.365   6.095  15.934  0.00  0.00    +0.000 A 
ATOM     19  C   UNL     1       5.232   4.733  15.680  0.00  0.00    +0.000 A 
ATOM     20 CL   UNL     1       6.057   4.017  14.307  0.00  0.00    +0.000 Cl
ATOM     21  C   UNL     1       4.442   3.944  16.521  0.00  0.00    +0.000 A 
ATOM     22  C   UNL     1       3.765   4.523  17.608  0.00  0.00    +0.000 A 
ENDBRANCH  13  16
ENDBRANCH   2  10
BRANCH   1  24
ATOM     23  N   UNL     1      -0.297   9.369  23.454  0.00  0.00    +0.000 N 
ATOM     24  C   UNL     1       0.658   9.619  22.523  0.00  0.00    +0.000 C 
ATOM     25  O   UNL     1       1.831   9.529  22.847  0.00  0.00    +0.000 OA
ATOM     26  H   UNL     1      -0.030   9.131  24.420  0.00  0.00    +0.000 HD
ATOM     27  H   UNL     1      -1.293   9.321  23.208  0.00  0.00    +0.000 HD
ENDBRANCH   1  24
BRANCH   8  28
ATOM     28  C   UNL     1      -0.803  14.197  20.038  0.00  0.00    +0.000 C 
BRANCH  28  29
ATOM     29  C   UNL     1      -0.007  14.732  18.807  0.00  0.00    +0.000 C 
ATOM     30  C   UNL     1      -0.173  16.254  18.604  0.00  0.00    +0.000 C 
ATOM     31  C   UNL     1       0.606  17.062  19.660  0.00  0.00    +0.000 C 
ATOM     32  C   UNL     1       2.100  16.713  19.589  0.00  0.00    +0.000 C 
ATOM     33  C   UNL     1       2.315  15.214  19.834  0.00  0.00    +0.000 C 
ATOM     34  C   UNL     1       1.505  14.382  18.828  0.00  0.00    +0.000 C 
ENDBRANCH  28  29
ENDBRANCH   8  28
TORSDOF 5
ENDMDL
MODEL 2
REMARK VINA RESULT:      -8.1      3.044      5.017
REMARK  Name = 
REMARK  5 active torsions:
REMARK  status: ('A' for Active; 'I' for Inactive)
REMARK    1  A    between atoms: C_2  and  C_4
REMARK    2  A    between atoms: C_5  and  N_6
REMARK    3  A    between atoms: N_9  and  C_10
REMARK    4  A    between atoms: N_22  and  C_23
REMARK    5  A    between atoms: C_23  and  C_24
REMARK                            x       y       z     vdW  Elec       q    Type
REMARK                         _______ _______ _______ _____ _____    ______ ____
ROOT
ATOM      1  C   UNL     1      -0.176  11.452  20.866  0.00  0.00    +0.000 A 
ATOM      2  C   UNL     1       0.147  10.390  21.746  0.00  0.00    +0.000 A 
ATOM      3  S   UNL     1      -0.857  10.503  23.106  0.00  0.00    +0.000 S 
ATOM      4  C   UNL     1      -1.685  11.858  22.623  0.00  0.00    +0.000 A 
ATOM      5  C   UNL     1      -1.178  12.307  21.414  0.00  0.00    +0.000 A 
ATOM      6  C   UNL     1      -1.722  13.575  20.796  0.00  0.00    +0.000 C 
ATOM      7  C   UNL     1      -2.632  14.326  21.804  0.00  0.00    +0.000 C 
ATOM      8  N   UNL     1      -3.603  13.421  22.464  0.00  0.00    +0.000 NA
ATOM      9  C   UNL     1      -2.844  12.485  23.344  0.00  0.00    +0.000 C 
ENDROOT
BRANCH   2  10
ATOM     10  N   UNL     1       1.224   9.447  21.591  0.00  0.00    +0.000 N 
ATOM     11  C   UNL     1       1.160   8.351  20.770  0.00  0.00    +0.000 C 
ATOM     12  O   UNL     1       0.173   8.182  20.071  0.00  0.00    +0.000 OA
ATOM     13  N   UNL     1       2.171   7.425  20.767  0.00  0.00    +0.000 N 
ATOM     14  H   UNL     1       2.055   9.538  22.187  0.00  0.00    +0.000 HD
ATOM     15  H   UNL     1       2.958   7.581  21.422  0.00  0.00    +0.000 HD
BRANCH  13  16
ATOM     16  C   UNL     1       2.171   6.194  20.016  0.00  0.00    +0.000 A 
ATOM     17  C   UNL     1       1.675   4.968  20.520  0.00  0.00    +0.000 A 
ATOM     18  C   UNL     1       1.758   3.794  19.766  0.00  0.00    +0.000 A 
ATOM     19  C   UNL     1       2.328   3.815  18.496  0.00  0.00    +0.000 A 
ATOM     20 CL   UNL     1       2.453   2.329  17.573  0.00  0.00    +0.000 Cl
ATOM     21  C   UNL     1       2.796   5.019  17.965  0.00  0.00    +0.000 A 
ATOM     22  C   UNL     1       2.715   6.205  18.714  0.00  0.00    +0.000 A 
ENDBRANCH  13  16
ENDBRANCH   2  10
BRANCH   1  24
ATOM     23  N   UNL     1      -0.002  11.015  18.426  0.00  0.00    +0.000 N 
ATOM     24  C   UNL     1       0.428  11.687  19.525  0.00  0.00    +0.000 C 
ATOM     25  O   UNL     1       1.271  12.557  19.387  0.00  0.00    +0.000 OA
ATOM     26  H   UNL     1       0.398  11.225  17.501  0.00  0.00    +0.000 HD
ATOM     27  H   UNL     1      -0.786  10.354  18.468  0.00  0.00    +0.000 HD
ENDBRANCH   1  24
BRANCH   8  28
ATOM     28  C   UNL     1      -4.506  12.759  21.468  0.00  0.00    +0.000 C 
BRANCH  28  29
ATOM     29  C   UNL     1      -5.842  13.529  21.224  0.00  0.00    +0.000 C 
ATOM     30  C   UNL     1      -5.910  14.179  19.825  0.00  0.00    +0.000 C 
ATOM     31  C   UNL     1      -6.126  13.131  18.717  0.00  0.00    +0.000 C 
ATOM     32  C   UNL     1      -7.431  12.363  18.970  0.00  0.00    +0.000 C 
ATOM     33  C   UNL     1      -7.386  11.659  20.332  0.00  0.00    +0.000 C 
ATOM     34  C   UNL     1      -7.117  12.674  21.454  0.00  0.00    +0.000 C 
ENDBRANCH  28  29
ENDBRANCH   8  28
TORSDOF 5
ENDMDL
MODEL 3
REMARK VINA RESULT:      -8.1      3.094      5.175
REMARK  Name = 
REMARK  5 active torsions:
REMARK  status: ('A' for Active; 'I' for Inactive)
REMARK    1  A    between atoms: C_2  and  C_4
REMARK    2  A    between atoms: C_5  and  N_6
REMARK    3  A    between atoms: N_9  and  C_10
REMARK    4  A    between atoms: N_22  and  C_23
REMARK    5  A    between atoms: C_23  and  C_24
REMARK                            x       y       z     vdW  Elec       q    Type
REMARK                         _______ _______ _______ _____ _____    ______ ____
ROOT
ATOM      1  C   UNL     1       0.059  11.345  20.986  0.00  0.00    +0.000 A 
ATOM      2  C   UNL     1       0.283  10.212  21.806  0.00  0.00    +0.000 A 
ATOM      3  S   UNL     1      -0.803  10.275  23.106  0.00  0.00    +0.000 S 
ATOM      4  C   UNL     1      -1.545  11.694  22.669  0.00  0.00    +0.000 A 
ATOM      5  C   UNL     1      -0.944  12.202  21.529  0.00  0.00    +0.000 A 
ATOM      6  C   UNL     1      -1.397  13.531  20.969  0.00  0.00    +0.000 C 
ATOM      7  C   UNL     1      -2.342  14.250  21.969  0.00  0.00    +0.000 C 
ATOM      8  N   UNL     1      -3.388  13.343  22.500  0.00  0.00    +0.000 NA
ATOM      9  C   UNL     1      -2.725  12.318  23.358  0.00  0.00    +0.000 C 
ENDROOT
BRANCH   2  10
ATOM     10  N   UNL     1       1.331   9.237  21.653  0.00  0.00    +0.000 N 
ATOM     11  C   UNL     1       1.246   8.157  20.812  0.00  0.00    +0.000 C 
ATOM     12  O   UNL     1       0.266   8.033  20.094  0.00  0.00    +0.000 OA
ATOM     13  N   UNL     1       2.226   7.199  20.809  0.00  0.00    +0.000 N 
ATOM     14  H   UNL     1       2.154   9.290  22.264  0.00  0.00    +0.000 HD
ATOM     15  H   UNL     1       3.006   7.318  21.480  0.00  0.00    +0.000 HD
BRANCH  13  16
ATOM     16  C   UNL     1       2.199   5.982  20.038  0.00  0.00    +0.000 A 
ATOM     17  C   UNL     1       1.601   4.780  20.488  0.00  0.00    +0.000 A 
ATOM     18  C   UNL     1       1.661   3.615  19.718  0.00  0.00    +0.000 A 
ATOM     19  C   UNL     1       2.307   3.621  18.485  0.00  0.00    +0.000 A 
ATOM     20 CL   UNL     1       2.399   2.144  17.543  0.00  0.00    +0.000 Cl
ATOM     21  C   UNL     1       2.876   4.803  18.005  0.00  0.00    +0.000 A 
ATOM     22  C   UNL     1       2.820   5.980  18.770  0.00  0.00    +0.000 A 
ENDBRANCH  13  16
ENDBRANCH   2  10
BRANCH   1  24
ATOM     23  N   UNL     1       0.441  10.997  18.555  0.00  0.00    +0.000 N 
ATOM     24  C   UNL     1       0.758  11.645  19.705  0.00  0.00    +0.000 C 
ATOM     25  O   UNL     1       1.578  12.546  19.663  0.00  0.00    +0.000 OA
ATOM     26  H   UNL     1       0.905  11.251  17.672  0.00  0.00    +0.000 HD
ATOM     27  H   UNL     1      -0.321  10.309  18.514  0.00  0.00    +0.000 HD
ENDBRANCH   1  24
BRANCH   8  28
ATOM     28  C   UNL     1      -4.248  12.791  21.406  0.00  0.00    +0.000 C 
BRANCH  28  29
ATOM     29  C   UNL     1      -5.623  13.516  21.261  0.00  0.00    +0.000 C 
ATOM     30  C   UNL     1      -6.621  12.733  20.380  0.00  0.00    +0.000 C 
ATOM     31  C   UNL     1      -7.173  11.491  21.105  0.00  0.00    +0.000 C 
ATOM     32  C   UNL     1      -7.881  11.912  22.401  0.00  0.00    +0.000 C 
ATOM     33  C   UNL     1      -6.908  12.652  23.329  0.00  0.00    +0.000 C 
ATOM     34  C   UNL     1      -6.300  13.867  22.612  0.00  0.00    +0.000 C 
ENDBRANCH  28  29
ENDBRANCH   8  28
TORSDOF 5
ENDMDL
MODEL 4
REMARK VINA RESULT:      -8.0      3.118      5.015
REMARK  Name = 
REMARK  5 active torsions:
REMARK  status: ('A' for Active; 'I' for Inactive)
REMARK    1  A    between atoms: C_2  and  C_4
REMARK    2  A    between atoms: C_5  and  N_6
REMARK    3  A    between atoms: N_9  and  C_10
REMARK    4  A    between atoms: N_22  and  C_23
REMARK    5  A    between atoms: C_23  and  C_24
REMARK                            x       y       z     vdW  Elec       q    Type
REMARK                         _______ _______ _______ _____ _____    ______ ____
ROOT
ATOM      1  C   UNL     1      -0.166  11.570  21.003  0.00  0.00    +0.000 A 
ATOM      2  C   UNL     1       0.042  10.451  21.847  0.00  0.00    +0.000 A 
ATOM      3  S   UNL     1      -1.116  10.494  23.083  0.00  0.00    +0.000 S 
ATOM      4  C   UNL     1      -1.872  11.888  22.590  0.00  0.00    +0.000 A 
ATOM      5  C   UNL     1      -1.221  12.403  21.481  0.00  0.00    +0.000 A 
ATOM      6  C   UNL     1      -1.679  13.713  20.882  0.00  0.00    +0.000 C 
ATOM      7  C   UNL     1      -2.698  14.414  21.820  0.00  0.00    +0.000 C 
ATOM      8  N   UNL     1      -3.747  13.483  22.301  0.00  0.00    +0.000 NA
ATOM      9  C   UNL     1      -3.105  12.485  23.205  0.00  0.00    +0.000 C 
ENDROOT
BRANCH   2  10
ATOM     10  N   UNL     1       1.125   9.505  21.763  0.00  0.00    +0.000 N 
ATOM     11  C   UNL     1       1.163   8.475  20.858  0.00  0.00    +0.000 C 
ATOM     12  O   UNL     1       0.277   8.376  20.024  0.00  0.00    +0.000 OA
ATOM     13  N   UNL     1       2.160   7.535  20.916  0.00  0.00    +0.000 N 
ATOM     14  H   UNL     1       1.870   9.536  22.468  0.00  0.00    +0.000 HD
ATOM     15  H   UNL     1       2.854   7.628  21.679  0.00  0.00    +0.000 HD
BRANCH  13  16
ATOM     16  C   UNL     1       2.251   6.365  20.079  0.00  0.00    +0.000 A 
ATOM     17  C   UNL     1       2.803   6.373  18.776  0.00  0.00    +0.000 A 
ATOM     18  C   UNL     1       2.807   5.218  17.989  0.00  0.00    +0.000 A 
ATOM     19  C   UNL     1       2.273   4.031  18.483  0.00  0.00    +0.000 A 
ATOM     20 CL   UNL     1       2.259   2.596  17.474  0.00  0.00    +0.000 Cl
ATOM     21  C   UNL     1       1.752   3.990  19.778  0.00  0.00    +0.000 A 
ATOM     22  C   UNL     1       1.744   5.146  20.578  0.00  0.00    +0.000 A 
ENDBRANCH  13  16
ENDBRANCH   2  10
BRANCH   1  24
ATOM     23  N   UNL     1       0.307  11.269  18.583  0.00  0.00    +0.000 N 
ATOM     24  C   UNL     1       0.595  11.878  19.761  0.00  0.00    +0.000 C 
ATOM     25  O   UNL     1       1.445  12.753  19.775  0.00  0.00    +0.000 OA
ATOM     26  H   UNL     1       0.816  11.529  17.726  0.00  0.00    +0.000 HD
ATOM     27  H   UNL     1      -0.473  10.607  18.492  0.00  0.00    +0.000 HD
ENDBRANCH   1  24
BRANCH   8  28
ATOM     28  C   UNL     1      -4.529  12.897  21.166  0.00  0.00    +0.000 C 
BRANCH  28  29
ATOM     29  C   UNL     1      -6.015  12.583  21.523  0.00  0.00    +0.000 C 
ATOM     30  C   UNL     1      -6.873  13.857  21.682  0.00  0.00    +0.000 C 
ATOM     31  C   UNL     1      -7.172  14.519  20.324  0.00  0.00    +0.000 C 
ATOM     32  C   UNL     1      -7.917  13.532  19.412  0.00  0.00    +0.000 C 
ATOM     33  C   UNL     1      -7.076  12.268  19.188  0.00  0.00    +0.000 C 
ATOM     34  C   UNL     1      -6.715  11.616  20.531  0.00  0.00    +0.000 C 
ENDBRANCH  28  29
ENDBRANCH   8  28
TORSDOF 5
ENDMDL
MODEL 5
REMARK VINA RESULT:      -7.9      3.023      5.053
REMARK  Name = 
REMARK  5 active torsions:
REMARK  status: ('A' for Active; 'I' for Inactive)
REMARK    1  A    between atoms: C_2  and  C_4
REMARK    2  A    between atoms: C_5  and  N_6
REMARK    3  A    between atoms: N_9  and  C_10
REMARK    4  A    between atoms: N_22  and  C_23
REMARK    5  A    between atoms: C_23  and  C_24
REMARK                            x       y       z     vdW  Elec       q    Type
REMARK                         _______ _______ _______ _____ _____    ______ ____
ROOT
ATOM      1  C   UNL     1      -0.007  11.499  20.649  0.00  0.00    +0.000 A 
ATOM      2  C   UNL     1       0.209  10.492  21.621  0.00  0.00    +0.000 A 
ATOM      3  S   UNL     1      -0.881  10.740  22.895  0.00  0.00    +0.000 S 
ATOM      4  C   UNL     1      -1.615  12.087  22.261  0.00  0.00    +0.000 A 
ATOM      5  C   UNL     1      -1.007  12.428  21.064  0.00  0.00    +0.000 A 
ATOM      6  C   UNL     1      -1.453  13.667  20.322  0.00  0.00    +0.000 C 
ATOM      7  C   UNL     1      -2.398  14.523  21.207  0.00  0.00    +0.000 C 
ATOM      8  N   UNL     1      -3.450  13.704  21.856  0.00  0.00    +0.000 NA
ATOM      9  C   UNL     1      -2.794  12.806  22.851  0.00  0.00    +0.000 C 
ENDROOT
BRANCH   2  10
ATOM     10  N   UNL     1       1.254   9.501  21.611  0.00  0.00    +0.000 N 
ATOM     11  C   UNL     1       1.283   8.440  20.742  0.00  0.00    +0.000 C 
ATOM     12  O   UNL     1       0.426   8.348  19.878  0.00  0.00    +0.000 OA
ATOM     13  N   UNL     1       2.238   7.463  20.869  0.00  0.00    +0.000 N 
ATOM     14  H   UNL     1       1.973   9.526  22.342  0.00  0.00    +0.000 HD
ATOM     15  H   UNL     1       2.906   7.555  21.655  0.00  0.00    +0.000 HD
BRANCH  13  16
ATOM     16  C   UNL     1       2.312   6.263  20.075  0.00  0.00    +0.000 A 
ATOM     17  C   UNL     1       3.009   6.177  18.846  0.00  0.00    +0.000 A 
ATOM     18  C   UNL     1       2.993   5.000  18.091  0.00  0.00    +0.000 A 
ATOM     19  C   UNL     1       2.294   3.885  18.545  0.00  0.00    +0.000 A 
ATOM     20 CL   UNL     1       2.259   2.425  17.573  0.00  0.00    +0.000 Cl
ATOM     21  C   UNL     1       1.625   3.936  19.770  0.00  0.00    +0.000 A 
ATOM     22  C   UNL     1       1.636   5.113  20.537  0.00  0.00    +0.000 A 
ENDBRANCH  13  16
ENDBRANCH   2  10
BRANCH   1  24
ATOM     23  N   UNL     1       0.254  10.963  18.237  0.00  0.00    +0.000 N 
ATOM     24  C   UNL     1       0.698  11.614  19.342  0.00  0.00    +0.000 C 
ATOM     25  O   UNL     1       1.648  12.371  19.234  0.00  0.00    +0.000 OA
ATOM     26  H   UNL     1       0.730  11.092  17.333  0.00  0.00    +0.000 HD
ATOM     27  H   UNL     1      -0.607  10.403  18.248  0.00  0.00    +0.000 HD
ENDBRANCH   1  24
BRANCH   8  28
ATOM     28  C   UNL     1      -4.309  13.007  20.846  0.00  0.00    +0.000 C 
BRANCH  28  29
ATOM     29  C   UNL     1      -5.711  13.664  20.654  0.00  0.00    +0.000 C 
ATOM     30  C   UNL     1      -6.695  12.758  19.882  0.00  0.00    +0.000 C 
ATOM     31  C   UNL     1      -7.188  11.582  20.744  0.00  0.00    +0.000 C 
ATOM     32  C   UNL     1      -7.889  12.113  22.004  0.00  0.00    +0.000 C 
ATOM     33  C   UNL     1      -6.929  12.981  22.828  0.00  0.00    +0.000 C 
ATOM     34  C   UNL     1      -6.377  14.133  21.975  0.00  0.00    +0.000 C 
ENDBRANCH  28  29
ENDBRANCH   8  28
TORSDOF 5
ENDMDL
MODEL 6
REMARK VINA RESULT:      -7.9      0.740      1.244
REMARK  Name = 
REMARK  5 active torsions:
REMARK  status: ('A' for Active; 'I' for Inactive)
REMARK    1  A    between atoms: C_2  and  C_4
REMARK    2  A    between atoms: C_5  and  N_6
REMARK    3  A    between atoms: N_9  and  C_10
REMARK    4  A    between atoms: N_22  and  C_23
REMARK    5  A    between atoms: C_23  and  C_24
REMARK                            x       y       z     vdW  Elec       q    Type
REMARK                         _______ _______ _______ _____ _____    ______ ____
ROOT
ATOM      1  C   UNL     1       0.423  10.052  21.098  0.00  0.00    +0.000 A 
ATOM      2  C   UNL     1       0.893   9.370  19.949  0.00  0.00    +0.000 A 
ATOM      3  S   UNL     1       0.420  10.249  18.579  0.00  0.00    +0.000 S 
ATOM      4  C   UNL     1      -0.367  11.464  19.392  0.00  0.00    +0.000 A 
ATOM      5  C   UNL     1      -0.341  11.206  20.753  0.00  0.00    +0.000 A 
ATOM      6  C   UNL     1      -1.055  12.136  21.707  0.00  0.00    +0.000 C 
ATOM      7  C   UNL     1      -1.951  13.135  20.927  0.00  0.00    +0.000 C 
ATOM      8  N   UNL     1      -1.236  13.752  19.784  0.00  0.00    +0.000 NA
ATOM      9  C   UNL     1      -0.973  12.689  18.770  0.00  0.00    +0.000 C 
ENDROOT
BRANCH   2  10
ATOM     10  N   UNL     1       1.544   8.086  19.921  0.00  0.00    +0.000 N 
ATOM     11  C   UNL     1       2.411   7.697  18.931  0.00  0.00    +0.000 C 
ATOM     12  O   UNL     1       2.715   8.491  18.054  0.00  0.00    +0.000 OA
ATOM     13  N   UNL     1       2.897   6.416  18.897  0.00  0.00    +0.000 N 
ATOM     14  H   UNL     1       1.289   7.382  20.622  0.00  0.00    +0.000 HD
ATOM     15  H   UNL     1       2.563   5.763  19.629  0.00  0.00    +0.000 HD
BRANCH  13  16
ATOM     16  C   UNL     1       3.738   5.871  17.861  0.00  0.00    +0.000 A 
ATOM     17  C   UNL     1       4.614   6.652  17.069  0.00  0.00    +0.000 A 
ATOM     18  C   UNL     1       5.359   6.074  16.038  0.00  0.00    +0.000 A 
ATOM     19  C   UNL     1       5.256   4.711  15.777  0.00  0.00    +0.000 A 
ATOM     20 CL   UNL     1       6.176   4.004  14.460  0.00  0.00    +0.000 Cl
ATOM     21  C   UNL     1       4.423   3.914  16.565  0.00  0.00    +0.000 A 
ATOM     22  C   UNL     1       3.670   4.485  17.605  0.00  0.00    +0.000 A 
ENDBRANCH  13  16
ENDBRANCH   2  10
BRANCH   1  24
ATOM     23  N   UNL     1      -0.347   9.360  23.356  0.00  0.00    +0.000 N 
ATOM     24  C   UNL     1       0.673   9.652  22.511  0.00  0.00    +0.000 C 
ATOM     25  O   UNL     1       1.819   9.503  22.902  0.00  0.00    +0.000 OA
ATOM     26  H   UNL     1      -0.151   9.042  24.316  0.00  0.00    +0.000 HD
ATOM     27  H   UNL     1      -1.326   9.360  23.044  0.00  0.00    +0.000 HD
ENDBRANCH   1  24
BRANCH   8  28
ATOM     28  C   UNL     1      -0.024  14.510  20.234  0.00  0.00    +0.000 C 
BRANCH  28  29
ATOM     29  C   UNL     1      -0.294  16.023  20.500  0.00  0.00    +0.000 C 
ATOM     30  C   UNL     1       1.004  16.834  20.707  0.00  0.00    +0.000 C 
ATOM     31  C   UNL     1       1.769  17.039  19.386  0.00  0.00    +0.000 C 
ATOM     32  C   UNL     1       0.880  17.779  18.375  0.00  0.00    +0.000 C 
ATOM     33  C   UNL     1      -0.402  16.981  18.102  0.00  0.00    +0.000 C 
ATOM     34  C   UNL     1      -1.159  16.714  19.412  0.00  0.00    +0.000 C 
ENDBRANCH  28  29
ENDBRANCH   8  28
TORSDOF 5
ENDMDL
MODEL 7
REMARK VINA RESULT:      -7.9      2.903      4.796
REMARK  Name = 
REMARK  5 active torsions:
REMARK  status: ('A' for Active; 'I' for Inactive)
REMARK    1  A    between atoms: C_2  and  C_4
REMARK    2  A    between atoms: C_5  and  N_6
REMARK    3  A    between atoms: N_9  and  C_10
REMARK    4  A    between atoms: N_22  and  C_23
REMARK    5  A    between atoms: C_23  and  C_24
REMARK                            x       y       z     vdW  Elec       q    Type
REMARK                         _______ _______ _______ _____ _____    ______ ____
ROOT
ATOM      1  C   UNL     1      -0.757  11.400  18.986  0.00  0.00    +0.000 A 
ATOM      2  C   UNL     1       0.535  10.874  19.232  0.00  0.00    +0.000 A 
ATOM      3  S   UNL     1       1.155  11.618  20.623  0.00  0.00    +0.000 S 
ATOM      4  C   UNL     1      -0.156  12.590  20.922  0.00  0.00    +0.000 A 
ATOM      5  C   UNL     1      -1.102  12.417  19.925  0.00  0.00    +0.000 A 
ATOM      6  C   UNL     1      -2.365  13.247  19.934  0.00  0.00    +0.000 C 
ATOM      7  C   UNL     1      -2.259  14.389  20.981  0.00  0.00    +0.000 C 
ATOM      8  N   UNL     1      -1.754  13.903  22.288  0.00  0.00    +0.000 NA
ATOM      9  C   UNL     1      -0.332  13.487  22.113  0.00  0.00    +0.000 C 
ENDROOT
BRANCH   2  10
ATOM     10  N   UNL     1       1.266   9.964  18.388  0.00  0.00    +0.000 N 
ATOM     11  C   UNL     1       1.580   8.680  18.751  0.00  0.00    +0.000 C 
ATOM     12  O   UNL     1       1.170   8.239  19.814  0.00  0.00    +0.000 OA
ATOM     13  N   UNL     1       2.387   7.909  17.954  0.00  0.00    +0.000 N 
ATOM     14  H   UNL     1       1.654  10.308  17.503  0.00  0.00    +0.000 HD
ATOM     15  H   UNL     1       2.758   8.348  17.092  0.00  0.00    +0.000 HD
BRANCH  13  16
ATOM     16  C   UNL     1       2.855   6.584  18.275  0.00  0.00    +0.000 A 
ATOM     17  C   UNL     1       2.106   5.407  18.037  0.00  0.00    +0.000 A 
ATOM     18  C   UNL     1       2.590   4.156  18.427  0.00  0.00    +0.000 A 
ATOM     19  C   UNL     1       3.828   4.046  19.052  0.00  0.00    +0.000 A 
ATOM     20 CL   UNL     1       4.410   2.472  19.563  0.00  0.00    +0.000 Cl
ATOM     21  C   UNL     1       4.600   5.190  19.269  0.00  0.00    +0.000 A 
ATOM     22  C   UNL     1       4.124   6.453  18.879  0.00  0.00    +0.000 A 
ENDBRANCH  13  16
ENDBRANCH   2  10
BRANCH   1  24
ATOM     23  N   UNL     1      -1.944  11.781  16.837  0.00  0.00    +0.000 N 
ATOM     24  C   UNL     1      -1.677  10.974  17.895  0.00  0.00    +0.000 C 
ATOM     25  O   UNL     1      -2.141   9.846  17.903  0.00  0.00    +0.000 OA
ATOM     26  H   UNL     1      -2.548  11.449  16.071  0.00  0.00    +0.000 HD
ATOM     27  H   UNL     1      -1.490  12.695  16.725  0.00  0.00    +0.000 HD
ENDBRANCH   1  24
BRANCH   8  28
ATOM     28  C   UNL     1      -2.652  12.856  22.872  0.00  0.00    +0.000 C 
BRANCH  28  29
ATOM     29  C   UNL     1      -3.306  13.274  24.226  0.00  0.00    +0.000 C 
ATOM     30  C   UNL     1      -3.665  14.775  24.277  0.00  0.00    +0.000 C 
ATOM     31  C   UNL     1      -4.890  15.102  23.402  0.00  0.00    +0.000 C 
ATOM     32  C   UNL     1      -6.103  14.286  23.874  0.00  0.00    +0.000 C 
ATOM     33  C   UNL     1      -5.806  12.784  23.792  0.00  0.00    +0.000 C 
ATOM     34  C   UNL     1      -4.554  12.436  24.613  0.00  0.00    +0.000 C 
ENDBRANCH  28  29
ENDBRANCH   8  28
TORSDOF 5
ENDMDL
MODEL 8
REMARK VINA RESULT:      -7.9      2.935      4.907
REMARK  Name = 
REMARK  5 active torsions:
REMARK  status: ('A' for Active; 'I' for Inactive)
REMARK    1  A    between atoms: C_2  and  C_4
REMARK    2  A    between atoms: C_5  and  N_6
REMARK    3  A    between atoms: N_9  and  C_10
REMARK    4  A    between atoms: N_22  and  C_23
REMARK    5  A    between atoms: C_23  and  C_24
REMARK                            x       y       z     vdW  Elec       q    Type
REMARK                         _______ _______ _______ _____ _____    ______ ____
ROOT
ATOM      1  C   UNL     1       0.152  11.967  21.027  0.00  0.00    +0.000 A 
ATOM      2  C   UNL     1       0.137  10.815  21.851  0.00  0.00    +0.000 A 
ATOM      3  S   UNL     1      -1.132  10.973  22.963  0.00  0.00    +0.000 S 
ATOM      4  C   UNL     1      -1.661  12.458  22.440  0.00  0.00    +0.000 A 
ATOM      5  C   UNL     1      -0.841  12.912  21.420  0.00  0.00    +0.000 A 
ATOM      6  C   UNL     1      -1.075  14.280  20.821  0.00  0.00    +0.000 C 
ATOM      7  C   UNL     1      -2.098  15.080  21.671  0.00  0.00    +0.000 C 
ATOM      8  N   UNL     1      -3.294  14.273  22.013  0.00  0.00    +0.000 NA
ATOM      9  C   UNL     1      -2.873  13.187  22.945  0.00  0.00    +0.000 C 
ENDROOT
BRANCH   2  10
ATOM     10  N   UNL     1       1.102   9.746  21.848  0.00  0.00    +0.000 N 
ATOM     11  C   UNL     1       1.134   8.756  20.900  0.00  0.00    +0.000 C 
ATOM     12  O   UNL     1       0.356   8.800  19.960  0.00  0.00    +0.000 OA
ATOM     13  N   UNL     1       1.998   7.699  21.027  0.00  0.00    +0.000 N 
ATOM     14  H   UNL     1       1.750   9.657  22.639  0.00  0.00    +0.000 HD
ATOM     15  H   UNL     1       2.595   7.675  21.873  0.00  0.00    +0.000 HD
BRANCH  13  16
ATOM     16  C   UNL     1       2.057   6.560  20.145  0.00  0.00    +0.000 A 
ATOM     17  C   UNL     1       1.548   5.282  20.478  0.00  0.00    +0.000 A 
ATOM     18  C   UNL     1       1.690   4.201  19.603  0.00  0.00    +0.000 A 
ATOM     19  C   UNL     1       2.332   4.369  18.379  0.00  0.00    +0.000 A 
ATOM     20 CL   UNL     1       2.529   2.997  17.304  0.00  0.00    +0.000 Cl
ATOM     21  C   UNL     1       2.814   5.628  18.015  0.00  0.00    +0.000 A 
ATOM     22  C   UNL     1       2.675   6.722  18.886  0.00  0.00    +0.000 A 
ENDBRANCH  13  16
ENDBRANCH   2  10
BRANCH   1  24
ATOM     23  N   UNL     1       0.786  11.745  18.634  0.00  0.00    +0.000 N 
ATOM     24  C   UNL     1       1.071  12.204  19.879  0.00  0.00    +0.000 C 
ATOM     25  O   UNL     1       2.065  12.894  20.036  0.00  0.00    +0.000 OA
ATOM     26  H   UNL     1       1.413  11.959  17.846  0.00  0.00    +0.000 HD
ATOM     27  H   UNL     1      -0.093  11.256  18.426  0.00  0.00    +0.000 HD
ENDBRANCH   1  24
BRANCH   8  28
ATOM     28  C   UNL     1      -4.015  13.808  20.785  0.00  0.00    +0.000 C 
BRANCH  28  29
ATOM     29  C   UNL     1      -5.164  12.794  21.078  0.00  0.00    +0.000 C 
ATOM     30  C   UNL     1      -6.395  13.458  21.733  0.00  0.00    +0.000 C 
ATOM     31  C   UNL     1      -7.190  14.310  20.725  0.00  0.00    +0.000 C 
ATOM     32  C   UNL     1      -7.663  13.433  19.557  0.00  0.00    +0.000 C 
ATOM     33  C   UNL     1      -6.465  12.791  18.846  0.00  0.00    +0.000 C 
ATOM     34  C   UNL     1      -5.621  11.978  19.840  0.00  0.00    +0.000 C 
ENDBRANCH  28  29
ENDBRANCH   8  28
TORSDOF 5
ENDMDL
MODEL 9
REMARK VINA RESULT:      -7.8      3.292      5.323
REMARK  Name = 
REMARK  5 active torsions:
REMARK  status: ('A' for Active; 'I' for Inactive)
REMARK    1  A    between atoms: C_2  and  C_4
REMARK    2  A    between atoms: C_5  and  N_6
REMARK    3  A    between atoms: N_9  and  C_10
REMARK    4  A    between atoms: N_22  and  C_23
REMARK    5  A    between atoms: C_23  and  C_24
REMARK                            x       y       z     vdW  Elec       q    Type
REMARK                         _______ _______ _______ _____ _____    ______ ____
ROOT
ATOM      1  C   UNL     1      -0.418  11.639  20.862  0.00  0.00    +0.000 A 
ATOM      2  C   UNL     1      -0.014  10.601  21.736  0.00  0.00    +0.000 A 
ATOM      3  S   UNL     1      -0.980  10.670  23.126  0.00  0.00    +0.000 S 
ATOM      4  C   UNL     1      -1.892  11.977  22.662  0.00  0.00    +0.000 A 
ATOM      5  C   UNL     1      -1.446  12.444  21.437  0.00  0.00    +0.000 A 
ATOM      6  C   UNL     1      -2.074  13.678  20.829  0.00  0.00    +0.000 C 
ATOM      7  C   UNL     1      -2.991  14.388  21.861  0.00  0.00    +0.000 C 
ATOM      8  N   UNL     1      -3.893  13.437  22.554  0.00  0.00    +0.000 NA
ATOM      9  C   UNL     1      -3.060  12.547  23.415  0.00  0.00    +0.000 C 
ENDROOT
BRANCH   2  10
ATOM     10  N   UNL     1       1.106   9.714  21.554  0.00  0.00    +0.000 N 
ATOM     11  C   UNL     1       1.053   8.572  20.796  0.00  0.00    +0.000 C 
ATOM     12  O   UNL     1       0.033   8.309  20.179  0.00  0.00    +0.000 OA
ATOM     13  N   UNL     1       2.116   7.707  20.768  0.00  0.00    +0.000 N 
ATOM     14  H   UNL     1       1.969   9.885  22.083  0.00  0.00    +0.000 HD
ATOM     15  H   UNL     1       2.935   7.944  21.356  0.00  0.00    +0.000 HD
BRANCH  13  16
ATOM     16  C   UNL     1       2.140   6.438  20.083  0.00  0.00    +0.000 A 
ATOM     17  C   UNL     1       2.559   6.279  18.740  0.00  0.00    +0.000 A 
ATOM     18  C   UNL     1       2.502   5.032  18.112  0.00  0.00    +0.000 A 
ATOM     19  C   UNL     1       2.036   3.918  18.806  0.00  0.00    +0.000 A 
ATOM     20 CL   UNL     1       1.941   2.365  17.996  0.00  0.00    +0.000 Cl
ATOM     21  C   UNL     1       1.646   4.044  20.141  0.00  0.00    +0.000 A 
ATOM     22  C   UNL     1       1.702   5.294  20.782  0.00  0.00    +0.000 A 
ENDBRANCH  13  16
ENDBRANCH   2  10
BRANCH   1  24
ATOM     23  N   UNL     1       1.190  12.724  19.310  0.00  0.00    +0.000 N 
ATOM     24  C   UNL     1       0.132  11.896  19.502  0.00  0.00    +0.000 C 
ATOM     25  O   UNL     1      -0.321  11.292  18.544  0.00  0.00    +0.000 OA
ATOM     26  H   UNL     1       1.584  12.853  18.367  0.00  0.00    +0.000 HD
ATOM     27  H   UNL     1       1.679  13.169  20.096  0.00  0.00    +0.000 HD
ENDBRANCH   1  24
BRANCH   8  28
ATOM     28  C   UNL     1      -4.790  12.724  21.589  0.00  0.00    +0.000 C 
BRANCH  28  29
ATOM     29  C   UNL     1      -6.206  13.365  21.457  0.00  0.00    +0.000 C 
ATOM     30  C   UNL     1      -7.338  12.413  21.902  0.00  0.00    +0.000 C 
ATOM     31  C   UNL     1      -7.380  12.249  23.433  0.00  0.00    +0.000 C 
ATOM     32  C   UNL     1      -7.593  13.616  24.100  0.00  0.00    +0.000 C 
ATOM     33  C   UNL     1      -6.461  14.581  23.723  0.00  0.00    +0.000 C 
ATOM     34  C   UNL     1      -6.359  14.721  22.196  0.00  0.00    +0.000 C 
ENDBRANCH  28  29
ENDBRANCH   8  28
TORSDOF 5
ENDMDL
