MODEL 1
REMARK VINA RESULT:      -4.8      0.000      0.000
REMARK  Name = 
REMARK  8 active torsions:
REMARK  status: ('A' for Active; 'I' for Inactive)
REMARK    1  A    between atoms: C_1  and  C_2
REMARK    2  A    between atoms: C_2  and  C_3
REMARK    3  A    between atoms: C_3  and  C_4
REMARK    4  A    between atoms: C_4  and  N_5
REMARK    5  A    between atoms: C_6  and  C_8
REMARK    6  A    between atoms: C_8  and  C_9
REMARK    7  A    between atoms: C_9  and  C_10
REMARK    8  A    between atoms: C_10  and  N_11
REMARK                            x       y       z     vdW  Elec       q    Type
REMARK                         _______ _______ _______ _____ _____    ______ ____
ROOT
ATOM      1  N   UNL     1       7.008   5.157  15.517  0.00  0.00    +0.000 N 
ATOM      2  C   UNL     1       6.168   6.103  16.019  0.00  0.00    +0.000 C 
ATOM      3  O   UNL     1       5.408   6.713  15.278  0.00  0.00    +0.000 OA
ATOM      4  H   UNL     1       7.639   4.659  16.161  0.00  0.00    +0.000 HD
ENDROOT
BRANCH   1   5
ATOM      5  C   UNL     1       7.031   4.838  14.104  0.00  0.00    +0.000 C 
BRANCH   5   6
ATOM      6  C   UNL     1       5.948   3.810  13.768  0.00  0.00    +0.000 C 
BRANCH   6   8
ATOM      7  C   UNL     1       4.675   3.222  11.687  0.00  0.00    +0.000 C 
ATOM      8  C   UNL     1       6.055   3.365  12.309  0.00  0.00    +0.000 C 
ENDBRANCH   6   8
ENDBRANCH   5   6
ENDBRANCH   1   5
BRANCH   2   9
ATOM      9  C   UNL     1       6.170   6.414  17.491  0.00  0.00    +0.000 C 
BRANCH   9  10
ATOM     10  C   UNL     1       7.593   6.691  17.985  0.00  0.00    +0.000 C 
BRANCH  10  11
ATOM     11  C   UNL     1       7.902   5.873  19.241  0.00  0.00    +0.000 C 
BRANCH  11  12
ATOM     12  N   UNL     1       6.737   5.087  19.630  0.00  0.00    +0.000 NA
ATOM     13  H   UNL     1       5.960   5.736  19.895  0.00  0.00    +0.000 HD
ATOM     14  H   UNL     1       6.984   4.526  20.477  0.00  0.00    +0.000 HD
ENDBRANCH  11  12
ENDBRANCH  10  11
ENDBRANCH   9  10
ENDBRANCH   2   9
TORSDOF 7
ENDMDL
MODEL 2
REMARK VINA RESULT:      -4.8      2.425      2.957
REMARK  Name = 
REMARK  8 active torsions:
REMARK  status: ('A' for Active; 'I' for Inactive)
REMARK    1  A    between atoms: C_1  and  C_2
REMARK    2  A    between atoms: C_2  and  C_3
REMARK    3  A    between atoms: C_3  and  C_4
REMARK    4  A    between atoms: C_4  and  N_5
REMARK    5  A    between atoms: C_6  and  C_8
REMARK    6  A    between atoms: C_8  and  C_9
REMARK    7  A    between atoms: C_9  and  C_10
REMARK    8  A    between atoms: C_10  and  N_11
REMARK                            x       y       z     vdW  Elec       q    Type
REMARK                         _______ _______ _______ _____ _____    ______ ____
ROOT
ATOM      1  N   UNL     1       6.259   3.530  13.664  0.00  0.00    +0.000 N 
ATOM      2  C   UNL     1       6.800   4.526  14.417  0.00  0.00    +0.000 C 
ATOM      3  O   UNL     1       7.484   5.396  13.895  0.00  0.00    +0.000 OA
ATOM      4  H   UNL     1       5.689   2.808  14.127  0.00  0.00    +0.000 HD
ENDROOT
BRANCH   1   5
ATOM      5  C   UNL     1       6.467   3.465  12.232  0.00  0.00    +0.000 C 
BRANCH   5   6
ATOM      6  C   UNL     1       5.342   2.673  11.561  0.00  0.00    +0.000 C 
BRANCH   6   8
ATOM      7  C   UNL     1       3.371   3.485  10.236  0.00  0.00    +0.000 C 
ATOM      8  C   UNL     1       4.027   3.453  11.608  0.00  0.00    +0.000 C 
ENDBRANCH   6   8
ENDBRANCH   5   6
ENDBRANCH   1   5
BRANCH   2   9
ATOM      9  C   UNL     1       6.568   4.563  15.903  0.00  0.00    +0.000 C 
BRANCH   9  10
ATOM     10  C   UNL     1       5.177   4.023  16.249  0.00  0.00    +0.000 C 
BRANCH  10  11
ATOM     11  C   UNL     1       4.356   5.075  16.997  0.00  0.00    +0.000 C 
BRANCH  11  12
ATOM     12  N   UNL     1       3.354   4.429  17.838  0.00  0.00    +0.000 NA
ATOM     13  H   UNL     1       3.828   3.735  18.462  0.00  0.00    +0.000 HD
ATOM     14  H   UNL     1       2.695   3.902  17.221  0.00  0.00    +0.000 HD
ENDBRANCH  11  12
ENDBRANCH  10  11
ENDBRANCH   9  10
ENDBRANCH   2   9
TORSDOF 7
ENDMDL
MODEL 3
REMARK VINA RESULT:      -4.8      3.249      5.244
REMARK  Name = 
REMARK  8 active torsions:
REMARK  status: ('A' for Active; 'I' for Inactive)
REMARK    1  A    between atoms: C_1  and  C_2
REMARK    2  A    between atoms: C_2  and  C_3
REMARK    3  A    between atoms: C_3  and  C_4
REMARK    4  A    between atoms: C_4  and  N_5
REMARK    5  A    between atoms: C_6  and  C_8
REMARK    6  A    between atoms: C_8  and  C_9
REMARK    7  A    between atoms: C_9  and  C_10
REMARK    8  A    between atoms: C_10  and  N_11
REMARK                            x       y       z     vdW  Elec       q    Type
REMARK                         _______ _______ _______ _____ _____    ______ ____
ROOT
ATOM      1  N   UNL     1       6.284   4.294  18.049  0.00  0.00    +0.000 N 
ATOM      2  C   UNL     1       5.522   4.198  16.925  0.00  0.00    +0.000 C 
ATOM      3  O   UNL     1       5.982   4.517  15.836  0.00  0.00    +0.000 OA
ATOM      4  H   UNL     1       5.875   4.023  18.954  0.00  0.00    +0.000 HD
ENDROOT
BRANCH   1   5
ATOM      5  C   UNL     1       7.652   4.769  17.998  0.00  0.00    +0.000 C 
BRANCH   5   6
ATOM      6  C   UNL     1       7.754   6.178  18.587  0.00  0.00    +0.000 C 
BRANCH   6   8
ATOM      7  C   UNL     1       8.099   8.574  17.927  0.00  0.00    +0.000 C 
ATOM      8  C   UNL     1       7.512   7.235  17.509  0.00  0.00    +0.000 C 
ENDBRANCH   6   8
ENDBRANCH   5   6
ENDBRANCH   1   5
BRANCH   2   9
ATOM      9  C   UNL     1       4.104   3.705  17.012  0.00  0.00    +0.000 C 
BRANCH   9  10
ATOM     10  C   UNL     1       3.799   3.170  18.414  0.00  0.00    +0.000 C 
BRANCH  10  11
ATOM     11  C   UNL     1       3.400   1.695  18.359  0.00  0.00    +0.000 C 
BRANCH  11  12
ATOM     12  N   UNL     1       1.986   1.542  18.679  0.00  0.00    +0.000 NA
ATOM     13  H   UNL     1       1.459   1.317  17.803  0.00  0.00    +0.000 HD
ATOM     14  H   UNL     1       1.628   2.456  19.038  0.00  0.00    +0.000 HD
ENDBRANCH  11  12
ENDBRANCH  10  11
ENDBRANCH   9  10
ENDBRANCH   2   9
TORSDOF 7
ENDMDL
MODEL 4
REMARK VINA RESULT:      -4.6      1.221      1.343
REMARK  Name = 
REMARK  8 active torsions:
REMARK  status: ('A' for Active; 'I' for Inactive)
REMARK    1  A    between atoms: C_1  and  C_2
REMARK    2  A    between atoms: C_2  and  C_3
REMARK    3  A    between atoms: C_3  and  C_4
REMARK    4  A    between atoms: C_4  and  N_5
REMARK    5  A    between atoms: C_6  and  C_8
REMARK    6  A    between atoms: C_8  and  C_9
REMARK    7  A    between atoms: C_9  and  C_10
REMARK    8  A    between atoms: C_10  and  N_11
REMARK                            x       y       z     vdW  Elec       q    Type
REMARK                         _______ _______ _______ _____ _____    ______ ____
ROOT
ATOM      1  N   UNL     1       6.261   4.504  15.316  0.00  0.00    +0.000 N 
ATOM      2  C   UNL     1       6.166   5.751  15.852  0.00  0.00    +0.000 C 
ATOM      3  O   UNL     1       5.476   6.606  15.312  0.00  0.00    +0.000 OA
ATOM      4  H   UNL     1       6.850   3.802  15.787  0.00  0.00    +0.000 HD
ENDROOT
BRANCH   1   5
ATOM      5  C   UNL     1       5.555   4.144  14.103  0.00  0.00    +0.000 C 
BRANCH   5   6
ATOM      6  C   UNL     1       6.539   3.935  12.950  0.00  0.00    +0.000 C 
BRANCH   6   8
ATOM      7  C   UNL     1       4.509   3.208  11.666  0.00  0.00    +0.000 C 
ATOM      8  C   UNL     1       5.982   2.937  11.934  0.00  0.00    +0.000 C 
ENDBRANCH   6   8
ENDBRANCH   5   6
ENDBRANCH   1   5
BRANCH   2   9
ATOM      9  C   UNL     1       6.916   6.094  17.111  0.00  0.00    +0.000 C 
BRANCH   9  10
ATOM     10  C   UNL     1       7.003   4.878  18.038  0.00  0.00    +0.000 C 
BRANCH  10  11
ATOM     11  C   UNL     1       5.800   4.827  18.982  0.00  0.00    +0.000 C 
BRANCH  11  12
ATOM     12  N   UNL     1       5.424   3.443  19.246  0.00  0.00    +0.000 NA
ATOM     13  H   UNL     1       5.667   2.859  18.412  0.00  0.00    +0.000 HD
ATOM     14  H   UNL     1       4.387   3.401  19.371  0.00  0.00    +0.000 HD
ENDBRANCH  11  12
ENDBRANCH  10  11
ENDBRANCH   9  10
ENDBRANCH   2   9
TORSDOF 7
ENDMDL
MODEL 5
REMARK VINA RESULT:      -4.6      1.766      2.129
REMARK  Name = 
REMARK  8 active torsions:
REMARK  status: ('A' for Active; 'I' for Inactive)
REMARK    1  A    between atoms: C_1  and  C_2
REMARK    2  A    between atoms: C_2  and  C_3
REMARK    3  A    between atoms: C_3  and  C_4
REMARK    4  A    between atoms: C_4  and  N_5
REMARK    5  A    between atoms: C_6  and  C_8
REMARK    6  A    between atoms: C_8  and  C_9
REMARK    7  A    between atoms: C_9  and  C_10
REMARK    8  A    between atoms: C_10  and  N_11
REMARK                            x       y       z     vdW  Elec       q    Type
REMARK                         _______ _______ _______ _____ _____    ______ ____
ROOT
ATOM      1  N   UNL     1       5.694   4.074  14.011  0.00  0.00    +0.000 N 
ATOM      2  C   UNL     1       6.292   4.645  15.092  0.00  0.00    +0.000 C 
ATOM      3  O   UNL     1       7.504   4.821  15.109  0.00  0.00    +0.000 OA
ATOM      4  H   UNL     1       4.674   3.934  14.022  0.00  0.00    +0.000 HD
ENDROOT
BRANCH   1   5
ATOM      5  C   UNL     1       6.459   3.661  12.852  0.00  0.00    +0.000 C 
BRANCH   5   6
ATOM      6  C   UNL     1       5.568   2.911  11.859  0.00  0.00    +0.000 C 
BRANCH   6   8
ATOM      7  C   UNL     1       3.463   3.070  10.502  0.00  0.00    +0.000 C 
ATOM      8  C   UNL     1       4.216   3.610  11.708  0.00  0.00    +0.000 C 
ENDBRANCH   6   8
ENDBRANCH   5   6
ENDBRANCH   1   5
BRANCH   2   9
ATOM      9  C   UNL     1       5.470   5.060  16.282  0.00  0.00    +0.000 C 
BRANCH   9  10
ATOM     10  C   UNL     1       6.345   5.170  17.534  0.00  0.00    +0.000 C 
BRANCH  10  11
ATOM     11  C   UNL     1       5.525   4.898  18.796  0.00  0.00    +0.000 C 
BRANCH  11  12
ATOM     12  N   UNL     1       5.502   3.469  19.085  0.00  0.00    +0.000 NA
ATOM     13  H   UNL     1       6.431   3.056  18.839  0.00  0.00    +0.000 HD
ATOM     14  H   UNL     1       4.783   3.020  18.474  0.00  0.00    +0.000 HD
ENDBRANCH  11  12
ENDBRANCH  10  11
ENDBRANCH   9  10
ENDBRANCH   2   9
TORSDOF 7
ENDMDL
MODEL 6
REMARK VINA RESULT:      -4.6      4.318      5.613
REMARK  Name = 
REMARK  8 active torsions:
REMARK  status: ('A' for Active; 'I' for Inactive)
REMARK    1  A    between atoms: C_1  and  C_2
REMARK    2  A    between atoms: C_2  and  C_3
REMARK    3  A    between atoms: C_3  and  C_4
REMARK    4  A    between atoms: C_4  and  N_5
REMARK    5  A    between atoms: C_6  and  C_8
REMARK    6  A    between atoms: C_8  and  C_9
REMARK    7  A    between atoms: C_9  and  C_10
REMARK    8  A    between atoms: C_10  and  N_11
REMARK                            x       y       z     vdW  Elec       q    Type
REMARK                         _______ _______ _______ _____ _____    ______ ____
ROOT
ATOM      1  N   UNL     1       3.398   3.604  18.827  0.00  0.00    +0.000 N 
ATOM      2  C   UNL     1       4.508   4.091  18.207  0.00  0.00    +0.000 C 
ATOM      3  O   UNL     1       4.616   4.027  16.990  0.00  0.00    +0.000 OA
ATOM      4  H   UNL     1       3.332   3.667  19.853  0.00  0.00    +0.000 HD
ENDROOT
BRANCH   1   5
ATOM      5  C   UNL     1       2.314   3.003  18.077  0.00  0.00    +0.000 C 
BRANCH   5   6
ATOM      6  C   UNL     1       1.190   2.562  19.018  0.00  0.00    +0.000 C 
BRANCH   6   8
ATOM      7  C   UNL     1       1.387   2.720  21.515  0.00  0.00    +0.000 C 
ATOM      8  C   UNL     1       1.104   3.487  20.232  0.00  0.00    +0.000 C 
ENDBRANCH   6   8
ENDBRANCH   5   6
ENDBRANCH   1   5
BRANCH   2   9
ATOM      9  C   UNL     1       5.618   4.706  19.015  0.00  0.00    +0.000 C 
BRANCH   9  10
ATOM     10  C   UNL     1       6.485   5.616  18.140  0.00  0.00    +0.000 C 
BRANCH  10  11
ATOM     11  C   UNL     1       7.758   6.031  18.881  0.00  0.00    +0.000 C 
BRANCH  11  12
ATOM     12  N   UNL     1       7.785   5.433  20.211  0.00  0.00    +0.000 NA
ATOM     13  H   UNL     1       7.552   6.166  20.920  0.00  0.00    +0.000 HD
ATOM     14  H   UNL     1       8.758   5.103  20.404  0.00  0.00    +0.000 HD
ENDBRANCH  11  12
ENDBRANCH  10  11
ENDBRANCH   9  10
ENDBRANCH   2   9
TORSDOF 7
ENDMDL
MODEL 7
REMARK VINA RESULT:      -4.6      4.364      5.849
REMARK  Name = 
REMARK  8 active torsions:
REMARK  status: ('A' for Active; 'I' for Inactive)
REMARK    1  A    between atoms: C_1  and  C_2
REMARK    2  A    between atoms: C_2  and  C_3
REMARK    3  A    between atoms: C_3  and  C_4
REMARK    4  A    between atoms: C_4  and  N_5
REMARK    5  A    between atoms: C_6  and  C_8
REMARK    6  A    between atoms: C_8  and  C_9
REMARK    7  A    between atoms: C_9  and  C_10
REMARK    8  A    between atoms: C_10  and  N_11
REMARK                            x       y       z     vdW  Elec       q    Type
REMARK                         _______ _______ _______ _____ _____    ______ ____
ROOT
ATOM      1  N   UNL     1       3.334   4.931  18.777  0.00  0.00    +0.000 N 
ATOM      2  C   UNL     1       4.249   4.028  18.330  0.00  0.00    +0.000 C 
ATOM      3  O   UNL     1       4.735   3.206  19.097  0.00  0.00    +0.000 OA
ATOM      4  H   UNL     1       2.941   5.613  18.113  0.00  0.00    +0.000 HD
ENDROOT
BRANCH   1   5
ATOM      5  C   UNL     1       2.903   4.951  20.160  0.00  0.00    +0.000 C 
BRANCH   5   6
ATOM      6  C   UNL     1       1.415   4.609  20.264  0.00  0.00    +0.000 C 
BRANCH   6   8
ATOM      7  C   UNL     1       0.796   2.519  19.020  0.00  0.00    +0.000 C 
ATOM      8  C   UNL     1       1.211   3.097  20.365  0.00  0.00    +0.000 C 
ENDBRANCH   6   8
ENDBRANCH   5   6
ENDBRANCH   1   5
BRANCH   2   9
ATOM      9  C   UNL     1       4.678   4.035  16.888  0.00  0.00    +0.000 C 
BRANCH   9  10
ATOM     10  C   UNL     1       5.680   5.163  16.626  0.00  0.00    +0.000 C 
BRANCH  10  11
ATOM     11  C   UNL     1       6.993   4.607  16.073  0.00  0.00    +0.000 C 
BRANCH  11  12
ATOM     12  N   UNL     1       7.881   4.228  17.166  0.00  0.00    +0.000 NA
ATOM     13  H   UNL     1       8.726   3.754  16.771  0.00  0.00    +0.000 HD
ATOM     14  H   UNL     1       7.382   3.536  17.771  0.00  0.00    +0.000 HD
ENDBRANCH  11  12
ENDBRANCH  10  11
ENDBRANCH   9  10
ENDBRANCH   2   9
TORSDOF 7
ENDMDL
MODEL 8
REMARK VINA RESULT:      -4.6      4.515      6.017
REMARK  Name = 
REMARK  8 active torsions:
REMARK  status: ('A' for Active; 'I' for Inactive)
REMARK    1  A    between atoms: C_1  and  C_2
REMARK    2  A    between atoms: C_2  and  C_3
REMARK    3  A    between atoms: C_3  and  C_4
REMARK    4  A    between atoms: C_4  and  N_5
REMARK    5  A    between atoms: C_6  and  C_8
REMARK    6  A    between atoms: C_8  and  C_9
REMARK    7  A    between atoms: C_9  and  C_10
REMARK    8  A    between atoms: C_10  and  N_11
REMARK                            x       y       z     vdW  Elec       q    Type
REMARK                         _______ _______ _______ _____ _____    ______ ____
ROOT
ATOM      1  N   UNL     1       2.997   2.984  18.234  0.00  0.00    +0.000 N 
ATOM      2  C   UNL     1       4.267   3.449  18.387  0.00  0.00    +0.000 C 
ATOM      3  O   UNL     1       4.892   3.221  19.414  0.00  0.00    +0.000 OA
ATOM      4  H   UNL     1       2.491   3.192  17.362  0.00  0.00    +0.000 HD
ENDROOT
BRANCH   1   5
ATOM      5  C   UNL     1       2.346   2.207  19.269  0.00  0.00    +0.000 C 
BRANCH   5   6
ATOM      6  C   UNL     1       1.169   2.983  19.864  0.00  0.00    +0.000 C 
BRANCH   6   8
ATOM      7  C   UNL     1       1.747   5.304  20.623  0.00  0.00    +0.000 C 
ATOM      8  C   UNL     1       1.626   3.846  21.040  0.00  0.00    +0.000 C 
ENDBRANCH   6   8
ENDBRANCH   5   6
ENDBRANCH   1   5
BRANCH   2   9
ATOM      9  C   UNL     1       4.914   4.257  17.295  0.00  0.00    +0.000 C 
BRANCH   9  10
ATOM     10  C   UNL     1       5.484   5.565  17.852  0.00  0.00    +0.000 C 
BRANCH  10  11
ATOM     11  C   UNL     1       7.000   5.624  17.657  0.00  0.00    +0.000 C 
BRANCH  11  12
ATOM     12  N   UNL     1       7.608   4.353  18.036  0.00  0.00    +0.000 NA
ATOM     13  H   UNL     1       7.158   3.583  17.488  0.00  0.00    +0.000 HD
ATOM     14  H   UNL     1       7.409   4.180  19.047  0.00  0.00    +0.000 HD
ENDBRANCH  11  12
ENDBRANCH  10  11
ENDBRANCH   9  10
ENDBRANCH   2   9
TORSDOF 7
ENDMDL
MODEL 9
REMARK VINA RESULT:      -4.6      4.056      5.880
REMARK  Name = 
REMARK  8 active torsions:
REMARK  status: ('A' for Active; 'I' for Inactive)
REMARK    1  A    between atoms: C_1  and  C_2
REMARK    2  A    between atoms: C_2  and  C_3
REMARK    3  A    between atoms: C_3  and  C_4
REMARK    4  A    between atoms: C_4  and  N_5
REMARK    5  A    between atoms: C_6  and  C_8
REMARK    6  A    between atoms: C_8  and  C_9
REMARK    7  A    between atoms: C_9  and  C_10
REMARK    8  A    between atoms: C_10  and  N_11
REMARK                            x       y       z     vdW  Elec       q    Type
REMARK                         _______ _______ _______ _____ _____    ______ ____
ROOT
ATOM      1  N   UNL     1       3.116   5.528  18.133  0.00  0.00    +0.000 N 
ATOM      2  C   UNL     1       4.411   5.255  17.815  0.00  0.00    +0.000 C 
ATOM      3  O   UNL     1       5.146   4.707  18.627  0.00  0.00    +0.000 OA
ATOM      4  H   UNL     1       2.518   5.992  17.434  0.00  0.00    +0.000 HD
ENDROOT
BRANCH   1   5
ATOM      5  C   UNL     1       2.564   5.180  19.427  0.00  0.00    +0.000 C 
BRANCH   5   6
ATOM      6  C   UNL     1       1.526   4.064  19.286  0.00  0.00    +0.000 C 
BRANCH   6   8
ATOM      7  C   UNL     1       2.282   3.125  21.486  0.00  0.00    +0.000 C 
ATOM      8  C   UNL     1       1.082   3.559  20.659  0.00  0.00    +0.000 C 
ENDBRANCH   6   8
ENDBRANCH   5   6
ENDBRANCH   1   5
BRANCH   2   9
ATOM      9  C   UNL     1       4.955   5.631  16.464  0.00  0.00    +0.000 C 
BRANCH   9  10
ATOM     10  C   UNL     1       5.609   4.423  15.787  0.00  0.00    +0.000 C 
BRANCH  10  11
ATOM     11  C   UNL     1       7.122   4.615  15.674  0.00  0.00    +0.000 C 
BRANCH  11  12
ATOM     12  N   UNL     1       7.775   4.220  16.917  0.00  0.00    +0.000 NA
ATOM     13  H   UNL     1       7.072   4.240  17.693  0.00  0.00    +0.000 HD
ATOM     14  H   UNL     1       8.514   4.924  17.140  0.00  0.00    +0.000 HD
ENDBRANCH  11  12
ENDBRANCH  10  11
ENDBRANCH   9  10
ENDBRANCH   2   9
TORSDOF 7
ENDMDL
