MODEL 1
REMARK VINA RESULT:      -7.7      0.000      0.000
REMARK  Name = 
REMARK  11 active torsions:
REMARK  status: ('A' for Active; 'I' for Inactive)
REMARK    1  A    between atoms: C_1  and  O_2
REMARK    2  A    between atoms: O_2  and  C_3
REMARK    3  A    between atoms: C_7  and  N_8
REMARK    4  A    between atoms: N_8  and  C_13
REMARK    5  A    between atoms: C_9  and  C_11
REMARK    6  A    between atoms: C_13  and  C_14
REMARK    7  A    between atoms: C_13  and  C_25
REMARK    8  A    between atoms: N_16  and  C_17
REMARK    9  A    between atoms: C_17  and  C_18
REMARK   10  A    between atoms: C_18  and  C_19
REMARK   11  A    between atoms: C_28  and  N_29
REMARK                            x       y       z     vdW  Elec       q    Type
REMARK                         _______ _______ _______ _____ _____    ______ ____
ROOT
ATOM      1  C   UNL     1       4.800   4.972  17.074  0.00  0.00    +0.000 C 
ENDROOT
BRANCH   1   2
ATOM      2  C   UNL     1       3.880   6.023  17.725  0.00  0.00    +0.000 A 
ATOM      3  C   UNL     1       3.438   7.183  17.067  0.00  0.00    +0.000 A 
ATOM      4  C   UNL     1       2.638   8.121  17.733  0.00  0.00    +0.000 A 
ATOM      5  C   UNL     1       2.259   7.898  19.065  0.00  0.00    +0.000 A 
ATOM      6  C   UNL     1       2.669   6.745  19.731  0.00  0.00    +0.000 A 
ATOM      7  C   UNL     1       3.462   5.812  19.058  0.00  0.00    +0.000 A 
BRANCH   5   8
ATOM      8  N   UNL     1       1.438   8.889  19.768  0.00  0.00    +0.000 N 
ATOM      9  O   UNL     1       0.890   9.771  19.091  0.00  0.00    +0.000 OA
ATOM     10  O   UNL     1       1.335   8.784  21.000  0.00  0.00    +0.000 OA
ENDBRANCH   5   8
ENDBRANCH   1   2
BRANCH   1  11
ATOM     11  C   UNL     1       4.858   3.679  17.955  0.00  0.00    +0.000 C 
ATOM     12  O   UNL     1       5.298   3.665  19.103  0.00  0.00    +0.000 OA
ATOM     13  N   UNL     1       4.264   2.558  17.397  0.00  0.00    +0.000 N 
ATOM     14  H   UNL     1       4.273   2.453  16.389  0.00  0.00    +0.000 HD
BRANCH  13  15
ATOM     15  C   UNL     1       4.056   1.366  18.211  0.00  0.00    +0.000 C 
BRANCH  15  16
ATOM     16  C   UNL     1       2.575   1.165  18.574  0.00  0.00    +0.000 C 
BRANCH  16  17
ATOM     17  C   UNL     1       2.066   2.204  19.537  0.00  0.00    +0.000 A 
ATOM     18  C   UNL     1       0.963   2.999  19.195  0.00  0.00    +0.000 A 
ATOM     19  C   UNL     1       0.490   3.968  20.080  0.00  0.00    +0.000 A 
ATOM     20  C   UNL     1       1.117   4.154  21.311  0.00  0.00    +0.000 A 
ATOM     21  C   UNL     1       2.213   3.365  21.660  0.00  0.00    +0.000 A 
ATOM     22  C   UNL     1       2.687   2.394  20.778  0.00  0.00    +0.000 A 
ENDBRANCH  16  17
ENDBRANCH  15  16
ENDBRANCH  13  15
ENDBRANCH   1  11
BRANCH   1  23
ATOM     23  N   UNL     1       6.108   5.469  16.559  0.00  0.00    +0.000 N 
ATOM     24  C   UNL     1       6.562   5.155  15.256  0.00  0.00    +0.000 C 
ATOM     25  O   UNL     1       7.640   5.536  14.786  0.00  0.00    +0.000 OA
BRANCH  23  30
ATOM     26  C   UNL     1       7.860   8.580  17.825  0.00  0.00    +0.000 A 
ATOM     27  C   UNL     1       8.591   8.063  18.891  0.00  0.00    +0.000 A 
ATOM     28  C   UNL     1       8.475   6.720  19.228  0.00  0.00    +0.000 A 
ATOM     29  C   UNL     1       7.638   5.883  18.483  0.00  0.00    +0.000 A 
ATOM     30  C   UNL     1       6.904   6.363  17.387  0.00  0.00    +0.000 A 
ATOM     31  C   UNL     1       7.015   7.734  17.095  0.00  0.00    +0.000 A 
BRANCH  26  33
ATOM     32  C   UNL     1       9.076  10.560  18.355  0.00  0.00    +0.000 C 
ATOM     33  O   UNL     1       8.082   9.907  17.574  0.00  0.00    +0.000 OA
ENDBRANCH  26  33
ENDBRANCH  23  30
BRANCH  24  34
ATOM     34  C   UNL     1       5.654   4.369  14.322  0.00  0.00    +0.000 C 
ATOM     35 CL   UNL     1       6.579   3.822  12.912  0.00  0.00    +0.000 Cl
ENDBRANCH  24  34
ENDBRANCH   1  23
TORSDOF 10
ENDMDL
MODEL 2
REMARK VINA RESULT:      -7.4      0.799      1.463
REMARK  Name = 
REMARK  11 active torsions:
REMARK  status: ('A' for Active; 'I' for Inactive)
REMARK    1  A    between atoms: C_1  and  O_2
REMARK    2  A    between atoms: O_2  and  C_3
REMARK    3  A    between atoms: C_7  and  N_8
REMARK    4  A    between atoms: N_8  and  C_13
REMARK    5  A    between atoms: C_9  and  C_11
REMARK    6  A    between atoms: C_13  and  C_14
REMARK    7  A    between atoms: C_13  and  C_25
REMARK    8  A    between atoms: N_16  and  C_17
REMARK    9  A    between atoms: C_17  and  C_18
REMARK   10  A    between atoms: C_18  and  C_19
REMARK   11  A    between atoms: C_28  and  N_29
REMARK                            x       y       z     vdW  Elec       q    Type
REMARK                         _______ _______ _______ _____ _____    ______ ____
ROOT
ATOM      1  C   UNL     1       4.602   4.943  16.882  0.00  0.00    +0.000 C 
ENDROOT
BRANCH   1   2
ATOM      2  C   UNL     1       3.787   6.013  17.634  0.00  0.00    +0.000 A 
ATOM      3  C   UNL     1       3.310   5.849  18.945  0.00  0.00    +0.000 A 
ATOM      4  C   UNL     1       2.535   6.844  19.554  0.00  0.00    +0.000 A 
ATOM      5  C   UNL     1       2.244   8.027  18.859  0.00  0.00    +0.000 A 
ATOM      6  C   UNL     1       2.723   8.222  17.565  0.00  0.00    +0.000 A 
ATOM      7  C   UNL     1       3.499   7.225  16.967  0.00  0.00    +0.000 A 
BRANCH   5   8
ATOM      8  N   UNL     1       1.417   9.062  19.489  0.00  0.00    +0.000 N 
ATOM      9  O   UNL     1       1.051  10.016  18.786  0.00  0.00    +0.000 OA
ATOM     10  O   UNL     1       1.127   8.920  20.687  0.00  0.00    +0.000 OA
ENDBRANCH   5   8
ENDBRANCH   1   2
BRANCH   1  11
ATOM     11  C   UNL     1       4.477   3.559  17.601  0.00  0.00    +0.000 C 
ATOM     12  O   UNL     1       4.071   2.542  17.040  0.00  0.00    +0.000 OA
ATOM     13  N   UNL     1       4.971   3.519  18.896  0.00  0.00    +0.000 N 
ATOM     14  H   UNL     1       4.924   4.359  19.460  0.00  0.00    +0.000 HD
BRANCH  13  15
ATOM     15  C   UNL     1       5.115   2.238  19.578  0.00  0.00    +0.000 C 
BRANCH  15  16
ATOM     16  C   UNL     1       4.124   2.091  20.746  0.00  0.00    +0.000 C 
BRANCH  16  17
ATOM     17  C   UNL     1       2.729   2.522  20.382  0.00  0.00    +0.000 A 
ATOM     18  C   UNL     1       2.103   3.554  21.095  0.00  0.00    +0.000 A 
ATOM     19  C   UNL     1       0.808   3.955  20.767  0.00  0.00    +0.000 A 
ATOM     20  C   UNL     1       0.126   3.325  19.728  0.00  0.00    +0.000 A 
ATOM     21  C   UNL     1       0.742   2.300  19.011  0.00  0.00    +0.000 A 
ATOM     22  C   UNL     1       2.038   1.898  19.336  0.00  0.00    +0.000 A 
ENDBRANCH  16  17
ENDBRANCH  15  16
ENDBRANCH  13  15
ENDBRANCH   1  11
BRANCH   1  23
ATOM     23  N   UNL     1       5.977   5.337  16.460  0.00  0.00    +0.000 N 
ATOM     24  C   UNL     1       6.474   5.034  15.171  0.00  0.00    +0.000 C 
ATOM     25  O   UNL     1       7.607   5.331  14.776  0.00  0.00    +0.000 OA
BRANCH  23  30
ATOM     26  C   UNL     1       7.918   8.224  17.958  0.00  0.00    +0.000 A 
ATOM     27  C   UNL     1       8.544   7.599  19.033  0.00  0.00    +0.000 A 
ATOM     28  C   UNL     1       8.297   6.258  19.299  0.00  0.00    +0.000 A 
ATOM     29  C   UNL     1       7.432   5.531  18.474  0.00  0.00    +0.000 A 
ATOM     30  C   UNL     1       6.801   6.121  17.368  0.00  0.00    +0.000 A 
ATOM     31  C   UNL     1       7.044   7.488  17.148  0.00  0.00    +0.000 A 
BRANCH  26  33
ATOM     32  C   UNL     1       9.036  10.149  18.810  0.00  0.00    +0.000 C 
ATOM     33  O   UNL     1       8.266   9.536  17.783  0.00  0.00    +0.000 OA
ENDBRANCH  26  33
ENDBRANCH  23  30
BRANCH  24  34
ATOM     34  C   UNL     1       5.554   4.372  14.156  0.00  0.00    +0.000 C 
ATOM     35 CL   UNL     1       6.517   3.697  12.830  0.00  0.00    +0.000 Cl
ENDBRANCH  24  34
ENDBRANCH   1  23
TORSDOF 10
ENDMDL
MODEL 3
REMARK VINA RESULT:      -7.3      5.045      8.097
REMARK  Name = 
REMARK  11 active torsions:
REMARK  status: ('A' for Active; 'I' for Inactive)
REMARK    1  A    between atoms: C_1  and  O_2
REMARK    2  A    between atoms: O_2  and  C_3
REMARK    3  A    between atoms: C_7  and  N_8
REMARK    4  A    between atoms: N_8  and  C_13
REMARK    5  A    between atoms: C_9  and  C_11
REMARK    6  A    between atoms: C_13  and  C_14
REMARK    7  A    between atoms: C_13  and  C_25
REMARK    8  A    between atoms: N_16  and  C_17
REMARK    9  A    between atoms: C_17  and  C_18
REMARK   10  A    between atoms: C_18  and  C_19
REMARK   11  A    between atoms: C_28  and  N_29
REMARK                            x       y       z     vdW  Elec       q    Type
REMARK                         _______ _______ _______ _____ _____    ______ ____
ROOT
ATOM      1  C   UNL     1       0.823  11.122  18.682  0.00  0.00    +0.000 C 
ENDROOT
BRANCH   1   2
ATOM      2  C   UNL     1      -0.681  11.009  18.363  0.00  0.00    +0.000 A 
ATOM      3  C   UNL     1      -1.257   9.903  17.718  0.00  0.00    +0.000 A 
ATOM      4  C   UNL     1      -2.626   9.884  17.417  0.00  0.00    +0.000 A 
ATOM      5  C   UNL     1      -3.436  10.970  17.777  0.00  0.00    +0.000 A 
ATOM      6  C   UNL     1      -2.890  12.070  18.436  0.00  0.00    +0.000 A 
ATOM      7  C   UNL     1      -1.525  12.078  18.737  0.00  0.00    +0.000 A 
BRANCH   5   8
ATOM      8  N   UNL     1      -4.865  10.960  17.446  0.00  0.00    +0.000 N 
ATOM      9  O   UNL     1      -5.655  10.554  18.311  0.00  0.00    +0.000 OA
ATOM     10  O   UNL     1      -5.200  11.362  16.322  0.00  0.00    +0.000 OA
ENDBRANCH   5   8
ENDBRANCH   1   2
BRANCH   1  11
ATOM     11  C   UNL     1       1.583   9.847  18.184  0.00  0.00    +0.000 C 
ATOM     12  O   UNL     1       2.264   9.826  17.161  0.00  0.00    +0.000 OA
ATOM     13  N   UNL     1       1.537   8.760  19.042  0.00  0.00    +0.000 N 
ATOM     14  H   UNL     1       0.716   8.633  19.624  0.00  0.00    +0.000 HD
BRANCH  13  15
ATOM     15  C   UNL     1       2.389   7.603  18.794  0.00  0.00    +0.000 C 
BRANCH  15  16
ATOM     16  C   UNL     1       2.360   6.602  19.961  0.00  0.00    +0.000 C 
BRANCH  16  17
ATOM     17  C   UNL     1       1.917   5.227  19.537  0.00  0.00    +0.000 A 
ATOM     18  C   UNL     1       2.179   4.774  18.237  0.00  0.00    +0.000 A 
ATOM     19  C   UNL     1       1.766   3.504  17.835  0.00  0.00    +0.000 A 
ATOM     20  C   UNL     1       1.086   2.678  18.727  0.00  0.00    +0.000 A 
ATOM     21  C   UNL     1       0.824   3.119  20.024  0.00  0.00    +0.000 A 
ATOM     22  C   UNL     1       1.237   4.389  20.429  0.00  0.00    +0.000 A 
ENDBRANCH  16  17
ENDBRANCH  15  16
ENDBRANCH  13  15
ENDBRANCH   1  11
BRANCH   1  23
ATOM     23  N   UNL     1       1.174  11.597  20.051  0.00  0.00    +0.000 N 
ATOM     24  C   UNL     1       2.063  12.677  20.259  0.00  0.00    +0.000 C 
ATOM     25  O   UNL     1       2.390  13.103  21.373  0.00  0.00    +0.000 OA
BRANCH  23  30
ATOM     26  C   UNL     1      -1.218  11.004  22.929  0.00  0.00    +0.000 A 
ATOM     27  C   UNL     1      -0.633   9.900  23.543  0.00  0.00    +0.000 A 
ATOM     28  C   UNL     1       0.505   9.321  22.995  0.00  0.00    +0.000 A 
ATOM     29  C   UNL     1       1.073   9.859  21.836  0.00  0.00    +0.000 A 
ATOM     30  C   UNL     1       0.525  10.985  21.202  0.00  0.00    +0.000 A 
ATOM     31  C   UNL     1      -0.647  11.525  21.761  0.00  0.00    +0.000 A 
BRANCH  26  33
ATOM     32  C   UNL     1      -3.050  12.529  22.926  0.00  0.00    +0.000 C 
ATOM     33  O   UNL     1      -2.314  11.501  23.579  0.00  0.00    +0.000 OA
ENDBRANCH  26  33
ENDBRANCH  23  30
BRANCH  24  34
ATOM     34  C   UNL     1       2.605  13.435  19.057  0.00  0.00    +0.000 C 
ATOM     35 CL   UNL     1       1.679  14.930  18.828  0.00  0.00    +0.000 Cl
ENDBRANCH  24  34
ENDBRANCH   1  23
TORSDOF 10
ENDMDL
MODEL 4
REMARK VINA RESULT:      -7.3      0.738      1.290
REMARK  Name = 
REMARK  11 active torsions:
REMARK  status: ('A' for Active; 'I' for Inactive)
REMARK    1  A    between atoms: C_1  and  O_2
REMARK    2  A    between atoms: O_2  and  C_3
REMARK    3  A    between atoms: C_7  and  N_8
REMARK    4  A    between atoms: N_8  and  C_13
REMARK    5  A    between atoms: C_9  and  C_11
REMARK    6  A    between atoms: C_13  and  C_14
REMARK    7  A    between atoms: C_13  and  C_25
REMARK    8  A    between atoms: N_16  and  C_17
REMARK    9  A    between atoms: C_17  and  C_18
REMARK   10  A    between atoms: C_18  and  C_19
REMARK   11  A    between atoms: C_28  and  N_29
REMARK                            x       y       z     vdW  Elec       q    Type
REMARK                         _______ _______ _______ _____ _____    ______ ____
ROOT
ATOM      1  C   UNL     1       4.464   5.066  16.545  0.00  0.00    +0.000 C 
ENDROOT
BRANCH   1   2
ATOM      2  C   UNL     1       3.737   6.040  17.493  0.00  0.00    +0.000 A 
ATOM      3  C   UNL     1       3.462   5.754  18.840  0.00  0.00    +0.000 A 
ATOM      4  C   UNL     1       2.757   6.667  19.635  0.00  0.00    +0.000 A 
ATOM      5  C   UNL     1       2.334   7.888  19.090  0.00  0.00    +0.000 A 
ATOM      6  C   UNL     1       2.613   8.202  17.761  0.00  0.00    +0.000 A 
ATOM      7  C   UNL     1       3.321   7.288  16.977  0.00  0.00    +0.000 A 
BRANCH   5   8
ATOM      8  N   UNL     1       1.578   8.836  19.916  0.00  0.00    +0.000 N 
ATOM      9  O   UNL     1       1.442   8.572  21.120  0.00  0.00    +0.000 OA
ATOM     10  O   UNL     1       1.125   9.850  19.364  0.00  0.00    +0.000 OA
ENDBRANCH   5   8
ENDBRANCH   1   2
BRANCH   1  11
ATOM     11  C   UNL     1       4.193   3.585  16.975  0.00  0.00    +0.000 C 
ATOM     12  O   UNL     1       5.001   2.910  17.612  0.00  0.00    +0.000 OA
ATOM     13  N   UNL     1       2.921   3.111  16.694  0.00  0.00    +0.000 N 
ATOM     14  H   UNL     1       2.438   3.471  15.879  0.00  0.00    +0.000 HD
BRANCH  13  15
ATOM     15  C   UNL     1       2.484   1.835  17.247  0.00  0.00    +0.000 C 
BRANCH  15  16
ATOM     16  C   UNL     1       1.260   1.992  18.166  0.00  0.00    +0.000 C 
BRANCH  16  17
ATOM     17  C   UNL     1       1.608   2.599  19.499  0.00  0.00    +0.000 A 
ATOM     18  C   UNL     1       0.807   3.615  20.039  0.00  0.00    +0.000 A 
ATOM     19  C   UNL     1       1.126   4.186  21.270  0.00  0.00    +0.000 A 
ATOM     20  C   UNL     1       2.250   3.750  21.970  0.00  0.00    +0.000 A 
ATOM     21  C   UNL     1       3.050   2.737  21.442  0.00  0.00    +0.000 A 
ATOM     22  C   UNL     1       2.731   2.163  20.211  0.00  0.00    +0.000 A 
ENDBRANCH  16  17
ENDBRANCH  15  16
ENDBRANCH  13  15
ENDBRANCH   1  11
BRANCH   1  23
ATOM     23  N   UNL     1       5.878   5.400  16.213  0.00  0.00    +0.000 N 
ATOM     24  C   UNL     1       6.435   5.100  14.947  0.00  0.00    +0.000 C 
ATOM     25  O   UNL     1       7.602   5.350  14.626  0.00  0.00    +0.000 OA
BRANCH  23  30
ATOM     26  C   UNL     1       7.818   8.173  17.914  0.00  0.00    +0.000 A 
ATOM     27  C   UNL     1       8.395   7.485  18.979  0.00  0.00    +0.000 A 
ATOM     28  C   UNL     1       8.114   6.138  19.170  0.00  0.00    +0.000 A 
ATOM     29  C   UNL     1       7.265   5.469  18.282  0.00  0.00    +0.000 A 
ATOM     30  C   UNL     1       6.684   6.123  17.185  0.00  0.00    +0.000 A 
ATOM     31  C   UNL     1       6.960   7.494  17.040  0.00  0.00    +0.000 A 
BRANCH  26  33
ATOM     32  C   UNL     1       9.046   9.997  18.834  0.00  0.00    +0.000 C 
ATOM     33  O   UNL     1       8.196   9.484  17.815  0.00  0.00    +0.000 OA
ENDBRANCH  26  33
ENDBRANCH  23  30
BRANCH  24  34
ATOM     34  C   UNL     1       5.546   4.506  13.866  0.00  0.00    +0.000 C 
ATOM     35 CL   UNL     1       6.546   3.672  12.663  0.00  0.00    +0.000 Cl
ENDBRANCH  24  34
ENDBRANCH   1  23
TORSDOF 10
ENDMDL
MODEL 5
REMARK VINA RESULT:      -7.2      1.025      1.383
REMARK  Name = 
REMARK  11 active torsions:
REMARK  status: ('A' for Active; 'I' for Inactive)
REMARK    1  A    between atoms: C_1  and  O_2
REMARK    2  A    between atoms: O_2  and  C_3
REMARK    3  A    between atoms: C_7  and  N_8
REMARK    4  A    between atoms: N_8  and  C_13
REMARK    5  A    between atoms: C_9  and  C_11
REMARK    6  A    between atoms: C_13  and  C_14
REMARK    7  A    between atoms: C_13  and  C_25
REMARK    8  A    between atoms: N_16  and  C_17
REMARK    9  A    between atoms: C_17  and  C_18
REMARK   10  A    between atoms: C_18  and  C_19
REMARK   11  A    between atoms: C_28  and  N_29
REMARK                            x       y       z     vdW  Elec       q    Type
REMARK                         _______ _______ _______ _____ _____    ______ ____
ROOT
ATOM      1  C   UNL     1       4.169   5.044  16.580  0.00  0.00    +0.000 C 
ENDROOT
BRANCH   1   2
ATOM      2  C   UNL     1       3.522   6.067  17.535  0.00  0.00    +0.000 A 
ATOM      3  C   UNL     1       3.130   5.763  18.849  0.00  0.00    +0.000 A 
ATOM      4  C   UNL     1       2.506   6.729  19.650  0.00  0.00    +0.000 A 
ATOM      5  C   UNL     1       2.282   8.018  19.145  0.00  0.00    +0.000 A 
ATOM      6  C   UNL     1       2.680   8.348  17.851  0.00  0.00    +0.000 A 
ATOM      7  C   UNL     1       3.307   7.380  17.061  0.00  0.00    +0.000 A 
BRANCH   5   8
ATOM      8  N   UNL     1       1.610   9.023  19.976  0.00  0.00    +0.000 N 
ATOM      9  O   UNL     1       1.243  10.072  19.427  0.00  0.00    +0.000 OA
ATOM     10  O   UNL     1       1.445   8.763  21.177  0.00  0.00    +0.000 OA
ENDBRANCH   5   8
ENDBRANCH   1   2
BRANCH   1  11
ATOM     11  C   UNL     1       3.624   3.606  16.871  0.00  0.00    +0.000 C 
ATOM     12  O   UNL     1       2.569   3.178  16.405  0.00  0.00    +0.000 OA
ATOM     13  N   UNL     1       4.473   2.790  17.602  0.00  0.00    +0.000 N 
ATOM     14  H   UNL     1       5.091   3.216  18.282  0.00  0.00    +0.000 HD
BRANCH  13  15
ATOM     15  C   UNL     1       4.173   1.369  17.738  0.00  0.00    +0.000 C 
BRANCH  15  16
ATOM     16  C   UNL     1       3.841   0.986  19.190  0.00  0.00    +0.000 C 
BRANCH  16  17
ATOM     17  C   UNL     1       2.846   1.920  19.825  0.00  0.00    +0.000 A 
ATOM     18  C   UNL     1       1.581   2.098  19.247  0.00  0.00    +0.000 A 
ATOM     19  C   UNL     1       0.656   2.967  19.827  0.00  0.00    +0.000 A 
ATOM     20  C   UNL     1       0.988   3.667  20.985  0.00  0.00    +0.000 A 
ATOM     21  C   UNL     1       2.243   3.493  21.568  0.00  0.00    +0.000 A 
ATOM     22  C   UNL     1       3.169   2.624  20.991  0.00  0.00    +0.000 A 
ENDBRANCH  16  17
ENDBRANCH  15  16
ENDBRANCH  13  15
ENDBRANCH   1  11
BRANCH   1  23
ATOM     23  N   UNL     1       5.644   5.157  16.393  0.00  0.00    +0.000 N 
ATOM     24  C   UNL     1       6.265   4.835  15.164  0.00  0.00    +0.000 C 
ATOM     25  O   UNL     1       7.483   4.905  14.961  0.00  0.00    +0.000 OA
BRANCH  23  30
ATOM     26  C   UNL     1       7.954   7.408  18.379  0.00  0.00    +0.000 A 
ATOM     27  C   UNL     1       8.182   6.631  19.512  0.00  0.00    +0.000 A 
ATOM     28  C   UNL     1       7.547   5.402  19.651  0.00  0.00    +0.000 A 
ATOM     29  C   UNL     1       6.694   4.939  18.644  0.00  0.00    +0.000 A 
ATOM     30  C   UNL     1       6.458   5.685  17.478  0.00  0.00    +0.000 A 
ATOM     31  C   UNL     1       7.087   6.939  17.385  0.00  0.00    +0.000 A 
BRANCH  26  33
ATOM     32  C   UNL     1       7.993   9.727  17.828  0.00  0.00    +0.000 C 
ATOM     33  O   UNL     1       8.659   8.581  18.345  0.00  0.00    +0.000 OA
ENDBRANCH  26  33
ENDBRANCH  23  30
BRANCH  24  34
ATOM     34  C   UNL     1       5.400   4.454  13.972  0.00  0.00    +0.000 C 
ATOM     35 CL   UNL     1       6.380   3.585  12.778  0.00  0.00    +0.000 Cl
ENDBRANCH  24  34
ENDBRANCH   1  23
TORSDOF 10
ENDMDL
MODEL 6
REMARK VINA RESULT:      -7.2      0.798      1.121
REMARK  Name = 
REMARK  11 active torsions:
REMARK  status: ('A' for Active; 'I' for Inactive)
REMARK    1  A    between atoms: C_1  and  O_2
REMARK    2  A    between atoms: O_2  and  C_3
REMARK    3  A    between atoms: C_7  and  N_8
REMARK    4  A    between atoms: N_8  and  C_13
REMARK    5  A    between atoms: C_9  and  C_11
REMARK    6  A    between atoms: C_13  and  C_14
REMARK    7  A    between atoms: C_13  and  C_25
REMARK    8  A    between atoms: N_16  and  C_17
REMARK    9  A    between atoms: C_17  and  C_18
REMARK   10  A    between atoms: C_18  and  C_19
REMARK   11  A    between atoms: C_28  and  N_29
REMARK                            x       y       z     vdW  Elec       q    Type
REMARK                         _______ _______ _______ _____ _____    ______ ____
ROOT
ATOM      1  C   UNL     1       4.574   4.868  16.858  0.00  0.00    +0.000 C 
ENDROOT
BRANCH   1   2
ATOM      2  C   UNL     1       3.741   5.949  17.574  0.00  0.00    +0.000 A 
ATOM      3  C   UNL     1       3.400   7.180  16.992  0.00  0.00    +0.000 A 
ATOM      4  C   UNL     1       2.677   8.138  17.716  0.00  0.00    +0.000 A 
ATOM      5  C   UNL     1       2.272   7.862  19.030  0.00  0.00    +0.000 A 
ATOM      6  C   UNL     1       2.581   6.639  19.622  0.00  0.00    +0.000 A 
ATOM      7  C   UNL     1       3.298   5.688  18.890  0.00  0.00    +0.000 A 
BRANCH   5   8
ATOM      8  N   UNL     1       1.532   8.871  19.795  0.00  0.00    +0.000 N 
ATOM      9  O   UNL     1       1.309   9.961  19.248  0.00  0.00    +0.000 OA
ATOM     10  O   UNL     1       1.167   8.574  20.942  0.00  0.00    +0.000 OA
ENDBRANCH   5   8
ENDBRANCH   1   2
BRANCH   1  11
ATOM     11  C   UNL     1       4.459   3.502  17.614  0.00  0.00    +0.000 C 
ATOM     12  O   UNL     1       4.080   2.464  17.074  0.00  0.00    +0.000 OA
ATOM     13  N   UNL     1       4.930   3.507  18.917  0.00  0.00    +0.000 N 
ATOM     14  H   UNL     1       4.858   4.361  19.457  0.00  0.00    +0.000 HD
BRANCH  13  15
ATOM     15  C   UNL     1       5.082   2.248  19.638  0.00  0.00    +0.000 C 
BRANCH  15  16
ATOM     16  C   UNL     1       4.093   2.129  20.810  0.00  0.00    +0.000 C 
BRANCH  16  17
ATOM     17  C   UNL     1       2.691   2.523  20.429  0.00  0.00    +0.000 A 
ATOM     18  C   UNL     1       2.058   1.905  19.341  0.00  0.00    +0.000 A 
ATOM     19  C   UNL     1       0.761   2.269  18.979  0.00  0.00    +0.000 A 
ATOM     20  C   UNL     1       0.088   3.255  19.698  0.00  0.00    +0.000 A 
ATOM     21  C   UNL     1       0.709   3.872  20.783  0.00  0.00    +0.000 A 
ATOM     22  C   UNL     1       2.005   3.509  21.148  0.00  0.00    +0.000 A 
ENDBRANCH  16  17
ENDBRANCH  15  16
ENDBRANCH  13  15
ENDBRANCH   1  11
BRANCH   1  23
ATOM     23  N   UNL     1       5.948   5.266  16.437  0.00  0.00    +0.000 N 
ATOM     24  C   UNL     1       6.466   4.920  15.167  0.00  0.00    +0.000 C 
ATOM     25  O   UNL     1       7.599   5.220  14.774  0.00  0.00    +0.000 OA
BRANCH  23  30
ATOM     26  C   UNL     1       7.836   8.236  17.838  0.00  0.00    +0.000 A 
ATOM     27  C   UNL     1       8.450   7.666  18.950  0.00  0.00    +0.000 A 
ATOM     28  C   UNL     1       8.210   6.335  19.270  0.00  0.00    +0.000 A 
ATOM     29  C   UNL     1       7.367   5.564  18.464  0.00  0.00    +0.000 A 
ATOM     30  C   UNL     1       6.749   6.098  17.323  0.00  0.00    +0.000 A 
ATOM     31  C   UNL     1       6.983   7.456  17.047  0.00  0.00    +0.000 A 
BRANCH  26  33
ATOM     32  C   UNL     1       8.987  10.185  18.586  0.00  0.00    +0.000 C 
ATOM     33  O   UNL     1       8.174   9.543  17.611  0.00  0.00    +0.000 OA
ENDBRANCH  26  33
ENDBRANCH  23  30
BRANCH  24  34
ATOM     34  C   UNL     1       5.568   4.205  14.168  0.00  0.00    +0.000 C 
ATOM     35 CL   UNL     1       6.507   3.771  12.728  0.00  0.00    +0.000 Cl
ENDBRANCH  24  34
ENDBRANCH   1  23
TORSDOF 10
ENDMDL
MODEL 7
REMARK VINA RESULT:      -7.1      0.676      1.055
REMARK  Name = 
REMARK  11 active torsions:
REMARK  status: ('A' for Active; 'I' for Inactive)
REMARK    1  A    between atoms: C_1  and  O_2
REMARK    2  A    between atoms: O_2  and  C_3
REMARK    3  A    between atoms: C_7  and  N_8
REMARK    4  A    between atoms: N_8  and  C_13
REMARK    5  A    between atoms: C_9  and  C_11
REMARK    6  A    between atoms: C_13  and  C_14
REMARK    7  A    between atoms: C_13  and  C_25
REMARK    8  A    between atoms: N_16  and  C_17
REMARK    9  A    between atoms: C_17  and  C_18
REMARK   10  A    between atoms: C_18  and  C_19
REMARK   11  A    between atoms: C_28  and  N_29
REMARK                            x       y       z     vdW  Elec       q    Type
REMARK                         _______ _______ _______ _____ _____    ______ ____
ROOT
ATOM      1  C   UNL     1       4.612   5.073  16.513  0.00  0.00    +0.000 C 
ENDROOT
BRANCH   1   2
ATOM      2  C   UNL     1       3.813   6.083  17.359  0.00  0.00    +0.000 A 
ATOM      3  C   UNL     1       3.419   7.348  16.894  0.00  0.00    +0.000 A 
ATOM      4  C   UNL     1       2.732   8.236  17.732  0.00  0.00    +0.000 A 
ATOM      5  C   UNL     1       2.417   7.857  19.045  0.00  0.00    +0.000 A 
ATOM      6  C   UNL     1       2.779   6.599  19.522  0.00  0.00    +0.000 A 
ATOM      7  C   UNL     1       3.460   5.717  18.678  0.00  0.00    +0.000 A 
BRANCH   5   8
ATOM      8  N   UNL     1       1.714   8.793  19.929  0.00  0.00    +0.000 N 
ATOM      9  O   UNL     1       1.226   9.812  19.419  0.00  0.00    +0.000 OA
ATOM     10  O   UNL     1       1.646   8.509  21.134  0.00  0.00    +0.000 OA
ENDBRANCH   5   8
ENDBRANCH   1   2
BRANCH   1  11
ATOM     11  C   UNL     1       4.378   3.617  17.037  0.00  0.00    +0.000 C 
ATOM     12  O   UNL     1       5.134   3.057  17.830  0.00  0.00    +0.000 OA
ATOM     13  N   UNL     1       3.186   3.031  16.641  0.00  0.00    +0.000 N 
ATOM     14  H   UNL     1       2.794   3.286  15.741  0.00  0.00    +0.000 HD
BRANCH  13  15
ATOM     15  C   UNL     1       2.758   1.776  17.247  0.00  0.00    +0.000 C 
BRANCH  15  16
ATOM     16  C   UNL     1       1.461   1.938  18.057  0.00  0.00    +0.000 C 
BRANCH  16  17
ATOM     17  C   UNL     1       1.692   2.562  19.407  0.00  0.00    +0.000 A 
ATOM     18  C   UNL     1       2.792   2.170  20.183  0.00  0.00    +0.000 A 
ATOM     19  C   UNL     1       3.009   2.740  21.438  0.00  0.00    +0.000 A 
ATOM     20  C   UNL     1       2.129   3.702  21.928  0.00  0.00    +0.000 A 
ATOM     21  C   UNL     1       1.035   4.101  21.161  0.00  0.00    +0.000 A 
ATOM     22  C   UNL     1       0.816   3.533  19.905  0.00  0.00    +0.000 A 
ENDBRANCH  16  17
ENDBRANCH  15  16
ENDBRANCH  13  15
ENDBRANCH   1  11
BRANCH   1  23
ATOM     23  N   UNL     1       6.026   5.438  16.212  0.00  0.00    +0.000 N 
ATOM     24  C   UNL     1       6.625   5.130  14.967  0.00  0.00    +0.000 C 
ATOM     25  O   UNL     1       7.794   5.405  14.672  0.00  0.00    +0.000 OA
BRANCH  23  30
ATOM     26  C   UNL     1       7.850   8.291  17.910  0.00  0.00    +0.000 A 
ATOM     27  C   UNL     1       8.413   7.639  19.004  0.00  0.00    +0.000 A 
ATOM     28  C   UNL     1       8.159   6.288  19.214  0.00  0.00    +0.000 A 
ATOM     29  C   UNL     1       7.353   5.581  18.317  0.00  0.00    +0.000 A 
ATOM     30  C   UNL     1       6.787   6.200  17.191  0.00  0.00    +0.000 A 
ATOM     31  C   UNL     1       7.033   7.574  17.027  0.00  0.00    +0.000 A 
BRANCH  26  33
ATOM     32  C   UNL     1       9.021  10.158  18.818  0.00  0.00    +0.000 C 
ATOM     33  O   UNL     1       8.198   9.609  17.795  0.00  0.00    +0.000 OA
ENDBRANCH  26  33
ENDBRANCH  23  30
BRANCH  24  34
ATOM     34  C   UNL     1       5.780   4.493  13.874  0.00  0.00    +0.000 C 
ATOM     35 CL   UNL     1       6.812   4.065  12.497  0.00  0.00    +0.000 Cl
ENDBRANCH  24  34
ENDBRANCH   1  23
TORSDOF 10
ENDMDL
MODEL 8
REMARK VINA RESULT:      -6.9      6.944      9.978
REMARK  Name = 
REMARK  11 active torsions:
REMARK  status: ('A' for Active; 'I' for Inactive)
REMARK    1  A    between atoms: C_1  and  O_2
REMARK    2  A    between atoms: O_2  and  C_3
REMARK    3  A    between atoms: C_7  and  N_8
REMARK    4  A    between atoms: N_8  and  C_13
REMARK    5  A    between atoms: C_9  and  C_11
REMARK    6  A    between atoms: C_13  and  C_14
REMARK    7  A    between atoms: C_13  and  C_25
REMARK    8  A    between atoms: N_16  and  C_17
REMARK    9  A    between atoms: C_17  and  C_18
REMARK   10  A    between atoms: C_18  and  C_19
REMARK   11  A    between atoms: C_28  and  N_29
REMARK                            x       y       z     vdW  Elec       q    Type
REMARK                         _______ _______ _______ _____ _____    ______ ____
ROOT
ATOM      1  C   UNL     1      -1.067  12.230  19.388  0.00  0.00    +0.000 C 
ENDROOT
BRANCH   1   2
ATOM      2  C   UNL     1      -1.730  12.366  20.773  0.00  0.00    +0.000 A 
ATOM      3  C   UNL     1      -1.330  11.631  21.902  0.00  0.00    +0.000 A 
ATOM      4  C   UNL     1      -2.006  11.770  23.121  0.00  0.00    +0.000 A 
ATOM      5  C   UNL     1      -3.083  12.662  23.227  0.00  0.00    +0.000 A 
ATOM      6  C   UNL     1      -3.485  13.416  22.126  0.00  0.00    +0.000 A 
ATOM      7  C   UNL     1      -2.801  13.275  20.915  0.00  0.00    +0.000 A 
BRANCH   5   8
ATOM      8  N   UNL     1      -3.803  12.793  24.498  0.00  0.00    +0.000 N 
ATOM      9  O   UNL     1      -3.633  13.832  25.152  0.00  0.00    +0.000 OA
ATOM     10  O   UNL     1      -4.545  11.860  24.841  0.00  0.00    +0.000 OA
ENDBRANCH   5   8
ENDBRANCH   1   2
BRANCH   1  11
ATOM     11  C   UNL     1      -1.912  11.284  18.471  0.00  0.00    +0.000 C 
ATOM     12  O   UNL     1      -1.988  10.069  18.645  0.00  0.00    +0.000 OA
ATOM     13  N   UNL     1      -2.675  11.923  17.507  0.00  0.00    +0.000 N 
ATOM     14  H   UNL     1      -2.334  12.794  17.115  0.00  0.00    +0.000 HD
BRANCH  13  15
ATOM     15  C   UNL     1      -3.668  11.170  16.750  0.00  0.00    +0.000 C 
BRANCH  15  16
ATOM     16  C   UNL     1      -5.039  11.867  16.740  0.00  0.00    +0.000 C 
BRANCH  16  17
ATOM     17  C   UNL     1      -5.762  11.748  18.055  0.00  0.00    +0.000 A 
ATOM     18  C   UNL     1      -5.900  12.869  18.885  0.00  0.00    +0.000 A 
ATOM     19  C   UNL     1      -6.563  12.764  20.108  0.00  0.00    +0.000 A 
ATOM     20  C   UNL     1      -7.090  11.539  20.512  0.00  0.00    +0.000 A 
ATOM     21  C   UNL     1      -6.960  10.420  19.690  0.00  0.00    +0.000 A 
ATOM     22  C   UNL     1      -6.298  10.522  18.467  0.00  0.00    +0.000 A 
ENDBRANCH  16  17
ENDBRANCH  15  16
ENDBRANCH  13  15
ENDBRANCH   1  11
BRANCH   1  23
ATOM     23  N   UNL     1       0.406  12.001  19.382  0.00  0.00    +0.000 N 
ATOM     24  C   UNL     1       1.323  13.046  19.639  0.00  0.00    +0.000 C 
ATOM     25  O   UNL     1       2.552  12.909  19.638  0.00  0.00    +0.000 OA
BRANCH  23  30
ATOM     26  C   UNL     1       1.440   8.419  20.053  0.00  0.00    +0.000 A 
ATOM     27  C   UNL     1       2.058   8.086  18.851  0.00  0.00    +0.000 A 
ATOM     28  C   UNL     1       2.094   9.005  17.810  0.00  0.00    +0.000 A 
ATOM     29  C   UNL     1       1.524  10.272  17.977  0.00  0.00    +0.000 A 
ATOM     30  C   UNL     1       0.913  10.651  19.182  0.00  0.00    +0.000 A 
ATOM     31  C   UNL     1       0.862   9.686  20.203  0.00  0.00    +0.000 A 
BRANCH  26  33
ATOM     32  C   UNL     1       1.779   6.118  20.574  0.00  0.00    +0.000 C 
ATOM     33  O   UNL     1       1.497   7.442  21.010  0.00  0.00    +0.000 OA
ENDBRANCH  26  33
ENDBRANCH  23  30
BRANCH  24  34
ATOM     34  C   UNL     1       0.794  14.420  20.025  0.00  0.00    +0.000 C 
ATOM     35 CL   UNL     1       0.859  14.610  21.786  0.00  0.00    +0.000 Cl
ENDBRANCH  24  34
ENDBRANCH   1  23
TORSDOF 10
ENDMDL
MODEL 9
REMARK VINA RESULT:      -6.9      1.036      1.455
REMARK  Name = 
REMARK  11 active torsions:
REMARK  status: ('A' for Active; 'I' for Inactive)
REMARK    1  A    between atoms: C_1  and  O_2
REMARK    2  A    between atoms: O_2  and  C_3
REMARK    3  A    between atoms: C_7  and  N_8
REMARK    4  A    between atoms: N_8  and  C_13
REMARK    5  A    between atoms: C_9  and  C_11
REMARK    6  A    between atoms: C_13  and  C_14
REMARK    7  A    between atoms: C_13  and  C_25
REMARK    8  A    between atoms: N_16  and  C_17
REMARK    9  A    between atoms: C_17  and  C_18
REMARK   10  A    between atoms: C_18  and  C_19
REMARK   11  A    between atoms: C_28  and  N_29
REMARK                            x       y       z     vdW  Elec       q    Type
REMARK                         _______ _______ _______ _____ _____    ______ ____
ROOT
ATOM      1  C   UNL     1       4.183   4.968  16.522  0.00  0.00    +0.000 C 
ENDROOT
BRANCH   1   2
ATOM      2  C   UNL     1       3.504   6.036  17.402  0.00  0.00    +0.000 A 
ATOM      3  C   UNL     1       3.424   7.394  17.053  0.00  0.00    +0.000 A 
ATOM      4  C   UNL     1       2.832   8.321  17.921  0.00  0.00    +0.000 A 
ATOM      5  C   UNL     1       2.298   7.892  19.144  0.00  0.00    +0.000 A 
ATOM      6  C   UNL     1       2.348   6.546  19.503  0.00  0.00    +0.000 A 
ATOM      7  C   UNL     1       2.936   5.627  18.629  0.00  0.00    +0.000 A 
BRANCH   5   8
ATOM      8  N   UNL     1       1.696   8.865  20.062  0.00  0.00    +0.000 N 
ATOM      9  O   UNL     1       1.685   8.589  21.270  0.00  0.00    +0.000 OA
ATOM     10  O   UNL     1       1.238   9.910  19.577  0.00  0.00    +0.000 OA
ENDBRANCH   5   8
ENDBRANCH   1   2
BRANCH   1  11
ATOM     11  C   UNL     1       3.653   3.542  16.891  0.00  0.00    +0.000 C 
ATOM     12  O   UNL     1       2.586   3.091  16.477  0.00  0.00    +0.000 OA
ATOM     13  N   UNL     1       4.527   2.759  17.628  0.00  0.00    +0.000 N 
ATOM     14  H   UNL     1       5.165   3.215  18.271  0.00  0.00    +0.000 HD
BRANCH  13  15
ATOM     15  C   UNL     1       4.238   1.345  17.834  0.00  0.00    +0.000 C 
BRANCH  15  16
ATOM     16  C   UNL     1       3.918   1.028  19.305  0.00  0.00    +0.000 C 
BRANCH  16  17
ATOM     17  C   UNL     1       2.876   1.948  19.884  0.00  0.00    +0.000 A 
ATOM     18  C   UNL     1       3.159   2.694  21.037  0.00  0.00    +0.000 A 
ATOM     19  C   UNL     1       2.196   3.543  21.582  0.00  0.00    +0.000 A 
ATOM     20  C   UNL     1       0.943   3.652  20.982  0.00  0.00    +0.000 A 
ATOM     21  C   UNL     1       0.654   2.916  19.833  0.00  0.00    +0.000 A 
ATOM     22  C   UNL     1       1.616   2.067  19.285  0.00  0.00    +0.000 A 
ENDBRANCH  16  17
ENDBRANCH  15  16
ENDBRANCH  13  15
ENDBRANCH   1  11
BRANCH   1  23
ATOM     23  N   UNL     1       5.659   5.091  16.354  0.00  0.00    +0.000 N 
ATOM     24  C   UNL     1       6.304   4.726  15.149  0.00  0.00    +0.000 C 
ATOM     25  O   UNL     1       7.524   4.803  14.963  0.00  0.00    +0.000 OA
BRANCH  23  30
ATOM     26  C   UNL     1       7.957   7.421  18.262  0.00  0.00    +0.000 A 
ATOM     27  C   UNL     1       8.126   6.719  19.452  0.00  0.00    +0.000 A 
ATOM     28  C   UNL     1       7.455   5.518  19.653  0.00  0.00    +0.000 A 
ATOM     29  C   UNL     1       6.625   5.006  18.650  0.00  0.00    +0.000 A 
ATOM     30  C   UNL     1       6.449   5.674  17.428  0.00  0.00    +0.000 A 
ATOM     31  C   UNL     1       7.112   6.904  17.272  0.00  0.00    +0.000 A 
BRANCH  26  33
ATOM     32  C   UNL     1       7.978   9.789  17.991  0.00  0.00    +0.000 C 
ATOM     33  O   UNL     1       8.692   8.572  18.173  0.00  0.00    +0.000 OA
ENDBRANCH  26  33
ENDBRANCH  23  30
BRANCH  24  34
ATOM     34  C   UNL     1       5.463   4.285  13.961  0.00  0.00    +0.000 C 
ATOM     35 CL   UNL     1       6.524   3.742  12.649  0.00  0.00    +0.000 Cl
ENDBRANCH  24  34
ENDBRANCH   1  23
TORSDOF 10
ENDMDL
