MODEL 1
REMARK VINA RESULT:      -7.3      0.000      0.000
REMARK  Name = 
REMARK  7 active torsions:
REMARK  status: ('A' for Active; 'I' for Inactive)
REMARK    1  A    between atoms: C_1  and  C_2
REMARK    2  A    between atoms: C_2  and  C_3
REMARK    3  A    between atoms: C_3  and  C_4
REMARK    4  A    between atoms: C_4  and  N_5
REMARK    5  A    between atoms: C_6  and  C_8
REMARK    6  A    between atoms: C_8  and  O_9
REMARK    7  A    between atoms: N_19  and  C_20
REMARK                            x       y       z     vdW  Elec       q    Type
REMARK                         _______ _______ _______ _____ _____    ______ ____
ROOT
ATOM      1  C   UNL     1       5.598   5.070  17.892  0.00  0.00    +0.000 C 
ATOM      2  C   UNL     1       4.303   5.139  18.707  0.00  0.00    +0.000 A 
ATOM      3  C   UNL     1       4.044   4.377  19.862  0.00  0.00    +0.000 A 
ATOM      4  C   UNL     1       2.855   4.548  20.578  0.00  0.00    +0.000 A 
ATOM      5  C   UNL     1       1.912   5.485  20.166  0.00  0.00    +0.000 A 
ATOM      6  C   UNL     1       2.177   6.281  19.059  0.00  0.00    +0.000 A 
ATOM      7  C   UNL     1       3.371   6.118  18.359  0.00  0.00    +0.000 A 
ATOM      8  N   UNL     1       3.658   6.974  17.301  0.00  0.00    +0.000 N 
ATOM      9  C   UNL     1       4.625   6.755  16.376  0.00  0.00    +0.000 C 
ATOM     10  O   UNL     1       4.713   7.526  15.420  0.00  0.00    +0.000 OA
ATOM     11  N   UNL     1       5.405   5.627  16.538  0.00  0.00    +0.000 N 
ATOM     12  H   UNL     1       3.025   7.730  17.077  0.00  0.00    +0.000 HD
ENDROOT
BRANCH  11  13
ATOM     13  C   UNL     1       5.887   4.981  15.364  0.00  0.00    +0.000 A 
ATOM     14  C   UNL     1       7.191   5.144  14.886  0.00  0.00    +0.000 A 
ATOM     15  C   UNL     1       7.552   4.597  13.642  0.00  0.00    +0.000 A 
ATOM     16  C   UNL     1       6.633   3.841  12.918  0.00  0.00    +0.000 A 
ATOM     17 CL   UNL     1       7.081   3.188  11.387  0.00  0.00    +0.000 Cl
ATOM     18  C   UNL     1       5.360   3.619  13.412  0.00  0.00    +0.000 A 
ATOM     19  C   UNL     1       4.984   4.197  14.623  0.00  0.00    +0.000 A 
ENDBRANCH  11  13
BRANCH   1  21
ATOM     20  N   UNL     1       7.324   6.919  18.013  0.00  0.00    +0.000 N 
ATOM     21  C   UNL     1       6.732   5.858  18.680  0.00  0.00    +0.000 C 
ATOM     22  O   UNL     1       7.161   5.476  19.773  0.00  0.00    +0.000 OA
ATOM     23  H   UNL     1       6.814   7.318  17.232  0.00  0.00    +0.000 HD
BRANCH  20  24
ATOM     24  C   UNL     1       8.388   7.683  18.625  0.00  0.00    +0.000 C 
BRANCH  24  25
ATOM     25  C   UNL     1       8.387   9.131  18.153  0.00  0.00    +0.000 C 
BRANCH  25  27
ATOM     26  C   UNL     1       9.782  11.220  18.381  0.00  0.00    +0.000 C 
ATOM     27  C   UNL     1       9.208  10.009  19.097  0.00  0.00    +0.000 C 
ENDBRANCH  25  27
ENDBRANCH  24  25
ENDBRANCH  20  24
ENDBRANCH   1  21
BRANCH   1  28
ATOM     28  O   UNL     1       6.012   3.709  17.754  0.00  0.00    +0.000 OA
ATOM     29  H   UNL     1       5.776   3.247  18.571  0.00  0.00    +0.000 HD
ENDBRANCH   1  28
TORSDOF 6
ENDMDL
MODEL 2
REMARK VINA RESULT:      -7.3      0.573      1.106
REMARK  Name = 
REMARK  7 active torsions:
REMARK  status: ('A' for Active; 'I' for Inactive)
REMARK    1  A    between atoms: C_1  and  C_2
REMARK    2  A    between atoms: C_2  and  C_3
REMARK    3  A    between atoms: C_3  and  C_4
REMARK    4  A    between atoms: C_4  and  N_5
REMARK    5  A    between atoms: C_6  and  C_8
REMARK    6  A    between atoms: C_8  and  O_9
REMARK    7  A    between atoms: N_19  and  C_20
REMARK                            x       y       z     vdW  Elec       q    Type
REMARK                         _______ _______ _______ _____ _____    ______ ____
ROOT
ATOM      1  C   UNL     1       5.778   4.885  17.311  0.00  0.00    +0.000 C 
ATOM      2  C   UNL     1       4.556   4.987  18.230  0.00  0.00    +0.000 A 
ATOM      3  C   UNL     1       4.340   4.181  19.364  0.00  0.00    +0.000 A 
ATOM      4  C   UNL     1       3.223   4.384  20.180  0.00  0.00    +0.000 A 
ATOM      5  C   UNL     1       2.312   5.395  19.891  0.00  0.00    +0.000 A 
ATOM      6  C   UNL     1       2.541   6.233  18.807  0.00  0.00    +0.000 A 
ATOM      7  C   UNL     1       3.664   6.036  18.006  0.00  0.00    +0.000 A 
ATOM      8  N   UNL     1       3.922   6.929  16.971  0.00  0.00    +0.000 N 
ATOM      9  C   UNL     1       4.799   6.703  15.962  0.00  0.00    +0.000 C 
ATOM     10  O   UNL     1       4.861   7.517  15.040  0.00  0.00    +0.000 OA
ATOM     11  N   UNL     1       5.516   5.524  16.006  0.00  0.00    +0.000 N 
ATOM     12  H   UNL     1       3.323   7.732  16.836  0.00  0.00    +0.000 HD
ENDROOT
BRANCH  11  13
ATOM     13  C   UNL     1       5.864   4.914  14.766  0.00  0.00    +0.000 A 
ATOM     14  C   UNL     1       4.993   4.081  14.058  0.00  0.00    +0.000 A 
ATOM     15  C   UNL     1       5.454   3.395  12.920  0.00  0.00    +0.000 A 
ATOM     16  C   UNL     1       6.755   3.593  12.464  0.00  0.00    +0.000 A 
ATOM     17 CL   UNL     1       7.315   2.735  11.078  0.00  0.00    +0.000 Cl
ATOM     18  C   UNL     1       7.605   4.465  13.121  0.00  0.00    +0.000 A 
ATOM     19  C   UNL     1       7.167   5.112  14.274  0.00  0.00    +0.000 A 
ENDBRANCH  11  13
BRANCH   1  21
ATOM     20  N   UNL     1       7.193   6.919  17.830  0.00  0.00    +0.000 N 
ATOM     21  C   UNL     1       7.016   5.561  18.043  0.00  0.00    +0.000 C 
ATOM     22  O   UNL     1       7.857   4.901  18.661  0.00  0.00    +0.000 OA
ATOM     23  H   UNL     1       6.389   7.446  17.502  0.00  0.00    +0.000 HD
BRANCH  20  24
ATOM     24  C   UNL     1       8.306   7.627  18.421  0.00  0.00    +0.000 C 
BRANCH  24  25
ATOM     25  C   UNL     1       8.291   9.107  18.059  0.00  0.00    +0.000 C 
BRANCH  25  27
ATOM     26  C   UNL     1       9.828  11.078  18.394  0.00  0.00    +0.000 C 
ATOM     27  C   UNL     1       9.109   9.919  19.063  0.00  0.00    +0.000 C 
ENDBRANCH  25  27
ENDBRANCH  24  25
ENDBRANCH  20  24
ENDBRANCH   1  21
BRANCH   1  28
ATOM     28  O   UNL     1       6.093   3.511  17.074  0.00  0.00    +0.000 OA
ATOM     29  H   UNL     1       6.034   3.357  16.120  0.00  0.00    +0.000 HD
ENDBRANCH   1  28
TORSDOF 6
ENDMDL
MODEL 3
REMARK VINA RESULT:      -7.0      3.522      6.438
REMARK  Name = 
REMARK  7 active torsions:
REMARK  status: ('A' for Active; 'I' for Inactive)
REMARK    1  A    between atoms: C_1  and  C_2
REMARK    2  A    between atoms: C_2  and  C_3
REMARK    3  A    between atoms: C_3  and  C_4
REMARK    4  A    between atoms: C_4  and  N_5
REMARK    5  A    between atoms: C_6  and  C_8
REMARK    6  A    between atoms: C_8  and  O_9
REMARK    7  A    between atoms: N_19  and  C_20
REMARK                            x       y       z     vdW  Elec       q    Type
REMARK                         _______ _______ _______ _____ _____    ______ ____
ROOT
ATOM      1  C   UNL     1       4.193   5.317  17.401  0.00  0.00    +0.000 C 
ATOM      2  C   UNL     1       5.159   4.966  16.265  0.00  0.00    +0.000 A 
ATOM      3  C   UNL     1       4.800   4.883  14.906  0.00  0.00    +0.000 A 
ATOM      4  C   UNL     1       5.763   4.614  13.929  0.00  0.00    +0.000 A 
ATOM      5  C   UNL     1       7.096   4.436  14.283  0.00  0.00    +0.000 A 
ATOM      6  C   UNL     1       7.475   4.568  15.613  0.00  0.00    +0.000 A 
ATOM      7  C   UNL     1       6.514   4.852  16.581  0.00  0.00    +0.000 A 
ATOM      8  N   UNL     1       6.918   5.059  17.896  0.00  0.00    +0.000 N 
ATOM      9  C   UNL     1       6.083   5.062  18.964  0.00  0.00    +0.000 C 
ATOM     10  O   UNL     1       6.569   5.142  20.093  0.00  0.00    +0.000 OA
ATOM     11  N   UNL     1       4.736   4.900  18.709  0.00  0.00    +0.000 N 
ATOM     12  H   UNL     1       7.901   5.044  18.129  0.00  0.00    +0.000 HD
ENDROOT
BRANCH  11  13
ATOM     13  C   UNL     1       3.955   4.218  19.686  0.00  0.00    +0.000 A 
ATOM     14  C   UNL     1       4.072   2.847  19.932  0.00  0.00    +0.000 A 
ATOM     15  C   UNL     1       3.166   2.214  20.802  0.00  0.00    +0.000 A 
ATOM     16  C   UNL     1       2.196   2.961  21.466  0.00  0.00    +0.000 A 
ATOM     17 CL   UNL     1       1.081   2.173  22.517  0.00  0.00    +0.000 Cl
ATOM     18  C   UNL     1       2.112   4.329  21.278  0.00  0.00    +0.000 A 
ATOM     19  C   UNL     1       2.978   4.953  20.382  0.00  0.00    +0.000 A 
ENDBRANCH  11  13
BRANCH   1  21
ATOM     20  N   UNL     1       2.703   7.308  17.872  0.00  0.00    +0.000 N 
ATOM     21  C   UNL     1       3.920   6.882  17.366  0.00  0.00    +0.000 C 
ATOM     22  O   UNL     1       4.685   7.670  16.801  0.00  0.00    +0.000 OA
ATOM     23  H   UNL     1       2.213   6.676  18.497  0.00  0.00    +0.000 HD
BRANCH  20  24
ATOM     24  C   UNL     1       2.339   8.707  17.858  0.00  0.00    +0.000 C 
BRANCH  24  25
ATOM     25  C   UNL     1       1.370   9.051  18.983  0.00  0.00    +0.000 C 
BRANCH  25  27
ATOM     26  C   UNL     1       1.153   8.826  21.485  0.00  0.00    +0.000 C 
ATOM     27  C   UNL     1       1.616   8.160  20.200  0.00  0.00    +0.000 C 
ENDBRANCH  25  27
ENDBRANCH  24  25
ENDBRANCH  20  24
ENDBRANCH   1  21
BRANCH   1  28
ATOM     28  O   UNL     1       2.949   4.640  17.204  0.00  0.00    +0.000 OA
ATOM     29  H   UNL     1       2.591   4.426  18.078  0.00  0.00    +0.000 HD
ENDBRANCH   1  28
TORSDOF 6
ENDMDL
MODEL 4
REMARK VINA RESULT:      -6.9      3.741      6.729
REMARK  Name = 
REMARK  7 active torsions:
REMARK  status: ('A' for Active; 'I' for Inactive)
REMARK    1  A    between atoms: C_1  and  C_2
REMARK    2  A    between atoms: C_2  and  C_3
REMARK    3  A    between atoms: C_3  and  C_4
REMARK    4  A    between atoms: C_4  and  N_5
REMARK    5  A    between atoms: C_6  and  C_8
REMARK    6  A    between atoms: C_8  and  O_9
REMARK    7  A    between atoms: N_19  and  C_20
REMARK                            x       y       z     vdW  Elec       q    Type
REMARK                         _______ _______ _______ _____ _____    ______ ____
ROOT
ATOM      1  C   UNL     1       4.803   5.468  18.154  0.00  0.00    +0.000 C 
ATOM      2  C   UNL     1       5.432   5.027  16.828  0.00  0.00    +0.000 A 
ATOM      3  C   UNL     1       6.791   5.184  16.497  0.00  0.00    +0.000 A 
ATOM      4  C   UNL     1       7.291   4.698  15.285  0.00  0.00    +0.000 A 
ATOM      5  C   UNL     1       6.453   4.039  14.391  0.00  0.00    +0.000 A 
ATOM      6  C   UNL     1       5.122   3.829  14.727  0.00  0.00    +0.000 A 
ATOM      7  C   UNL     1       4.633   4.302  15.943  0.00  0.00    +0.000 A 
ATOM      8  N   UNL     1       3.319   4.017  16.301  0.00  0.00    +0.000 N 
ATOM      9  C   UNL     1       2.643   4.638  17.299  0.00  0.00    +0.000 C 
ATOM     10  O   UNL     1       1.448   4.383  17.450  0.00  0.00    +0.000 OA
ATOM     11  N   UNL     1       3.335   5.579  18.035  0.00  0.00    +0.000 N 
ATOM     12  H   UNL     1       2.748   3.438  15.702  0.00  0.00    +0.000 HD
ENDROOT
BRANCH  11  13
ATOM     13  C   UNL     1       2.603   6.690  18.545  0.00  0.00    +0.000 A 
ATOM     14  C   UNL     1       2.279   7.808  17.770  0.00  0.00    +0.000 A 
ATOM     15  C   UNL     1       1.687   8.930  18.377  0.00  0.00    +0.000 A 
ATOM     16  C   UNL     1       1.367   8.904  19.732  0.00  0.00    +0.000 A 
ATOM     17 CL   UNL     1       0.656  10.290  20.469  0.00  0.00    +0.000 Cl
ATOM     18  C   UNL     1       1.624   7.778  20.494  0.00  0.00    +0.000 A 
ATOM     19  C   UNL     1       2.252   6.681  19.907  0.00  0.00    +0.000 A 
ENDBRANCH  11  13
BRANCH   1  21
ATOM     20  N   UNL     1       4.300   3.406  19.534  0.00  0.00    +0.000 N 
ATOM     21  C   UNL     1       5.209   4.420  19.277  0.00  0.00    +0.000 C 
ATOM     22  O   UNL     1       6.214   4.565  19.981  0.00  0.00    +0.000 OA
ATOM     23  H   UNL     1       3.612   3.207  18.815  0.00  0.00    +0.000 HD
BRANCH  20  24
ATOM     24  C   UNL     1       4.555   2.419  20.558  0.00  0.00    +0.000 C 
BRANCH  24  25
ATOM     25  C   UNL     1       3.297   2.090  21.352  0.00  0.00    +0.000 C 
BRANCH  25  27
ATOM     26  C   UNL     1       1.050   3.070  20.763  0.00  0.00    +0.000 C 
ATOM     27  C   UNL     1       2.383   3.311  21.450  0.00  0.00    +0.000 C 
ENDBRANCH  25  27
ENDBRANCH  24  25
ENDBRANCH  20  24
ENDBRANCH   1  21
BRANCH   1  28
ATOM     28  O   UNL     1       5.313   6.749  18.530  0.00  0.00    +0.000 OA
ATOM     29  H   UNL     1       4.657   7.413  18.273  0.00  0.00    +0.000 HD
ENDBRANCH   1  28
TORSDOF 6
ENDMDL
MODEL 5
REMARK VINA RESULT:      -6.6      7.258      9.755
REMARK  Name = 
REMARK  7 active torsions:
REMARK  status: ('A' for Active; 'I' for Inactive)
REMARK    1  A    between atoms: C_1  and  C_2
REMARK    2  A    between atoms: C_2  and  C_3
REMARK    3  A    between atoms: C_3  and  C_4
REMARK    4  A    between atoms: C_4  and  N_5
REMARK    5  A    between atoms: C_6  and  C_8
REMARK    6  A    between atoms: C_8  and  O_9
REMARK    7  A    between atoms: N_19  and  C_20
REMARK                            x       y       z     vdW  Elec       q    Type
REMARK                         _______ _______ _______ _____ _____    ______ ____
ROOT
ATOM      1  C   UNL     1      -0.024  11.237  19.100  0.00  0.00    +0.000 C 
ATOM      2  C   UNL     1      -1.370  11.011  18.404  0.00  0.00    +0.000 A 
ATOM      3  C   UNL     1      -1.602  10.045  17.406  0.00  0.00    +0.000 A 
ATOM      4  C   UNL     1      -2.880   9.869  16.868  0.00  0.00    +0.000 A 
ATOM      5  C   UNL     1      -3.948  10.638  17.319  0.00  0.00    +0.000 A 
ATOM      6  C   UNL     1      -3.746  11.557  18.341  0.00  0.00    +0.000 A 
ATOM      7  C   UNL     1      -2.474  11.718  18.885  0.00  0.00    +0.000 A 
ATOM      8  N   UNL     1      -2.301  12.584  19.960  0.00  0.00    +0.000 N 
ATOM      9  C   UNL     1      -1.101  13.040  20.394  0.00  0.00    +0.000 C 
ATOM     10  O   UNL     1      -1.079  13.893  21.282  0.00  0.00    +0.000 OA
ATOM     11  N   UNL     1       0.023  12.563  19.748  0.00  0.00    +0.000 N 
ATOM     12  H   UNL     1      -3.101  13.053  20.362  0.00  0.00    +0.000 HD
ENDROOT
BRANCH  11  13
ATOM     13  C   UNL     1       1.142  13.437  19.635  0.00  0.00    +0.000 A 
ATOM     14  C   UNL     1       2.294  13.304  20.417  0.00  0.00    +0.000 A 
ATOM     15  C   UNL     1       3.296  14.289  20.357  0.00  0.00    +0.000 A 
ATOM     16  C   UNL     1       3.171  15.360  19.475  0.00  0.00    +0.000 A 
ATOM     17 CL   UNL     1       4.397  16.570  19.421  0.00  0.00    +0.000 Cl
ATOM     18  C   UNL     1       2.065  15.467  18.650  0.00  0.00    +0.000 A 
ATOM     19  C   UNL     1       1.049  14.517  18.739  0.00  0.00    +0.000 A 
ENDBRANCH  11  13
BRANCH   1  21
ATOM     20  N   UNL     1       1.191   9.152  19.863  0.00  0.00    +0.000 N 
ATOM     21  C   UNL     1       0.198  10.073  20.158  0.00  0.00    +0.000 C 
ATOM     22  O   UNL     1      -0.551   9.911  21.126  0.00  0.00    +0.000 OA
ATOM     23  H   UNL     1       1.899   9.431  19.192  0.00  0.00    +0.000 HD
BRANCH  20  24
ATOM     24  C   UNL     1       1.454   8.034  20.742  0.00  0.00    +0.000 C 
BRANCH  24  25
ATOM     25  C   UNL     1       2.216   6.923  20.030  0.00  0.00    +0.000 C 
BRANCH  25  27
ATOM     26  C   UNL     1       3.286   6.226  17.855  0.00  0.00    +0.000 C 
ATOM     27  C   UNL     1       2.580   7.342  18.605  0.00  0.00    +0.000 C 
ENDBRANCH  25  27
ENDBRANCH  24  25
ENDBRANCH  20  24
ENDBRANCH   1  21
BRANCH   1  28
ATOM     28  O   UNL     1       1.033  11.179  18.139  0.00  0.00    +0.000 OA
ATOM     29  H   UNL     1       1.016  12.004  17.634  0.00  0.00    +0.000 HD
ENDBRANCH   1  28
TORSDOF 6
ENDMDL
MODEL 6
REMARK VINA RESULT:      -6.6      7.225      9.777
REMARK  Name = 
REMARK  7 active torsions:
REMARK  status: ('A' for Active; 'I' for Inactive)
REMARK    1  A    between atoms: C_1  and  C_2
REMARK    2  A    between atoms: C_2  and  C_3
REMARK    3  A    between atoms: C_3  and  C_4
REMARK    4  A    between atoms: C_4  and  N_5
REMARK    5  A    between atoms: C_6  and  C_8
REMARK    6  A    between atoms: C_8  and  O_9
REMARK    7  A    between atoms: N_19  and  C_20
REMARK                            x       y       z     vdW  Elec       q    Type
REMARK                         _______ _______ _______ _____ _____    ______ ____
ROOT
ATOM      1  C   UNL     1      -0.033  11.345  19.079  0.00  0.00    +0.000 C 
ATOM      2  C   UNL     1      -1.318  11.060  18.295  0.00  0.00    +0.000 A 
ATOM      3  C   UNL     1      -1.461  10.034  17.341  0.00  0.00    +0.000 A 
ATOM      4  C   UNL     1      -2.691   9.809  16.715  0.00  0.00    +0.000 A 
ATOM      5  C   UNL     1      -3.798  10.587  17.035  0.00  0.00    +0.000 A 
ATOM      6  C   UNL     1      -3.686  11.567  18.013  0.00  0.00    +0.000 A 
ATOM      7  C   UNL     1      -2.463  11.777  18.645  0.00  0.00    +0.000 A 
ATOM      8  N   UNL     1      -2.384  12.707  19.677  0.00  0.00    +0.000 N 
ATOM      9  C   UNL     1      -1.226  13.205  20.176  0.00  0.00    +0.000 C 
ATOM     10  O   UNL     1      -1.283  14.108  21.011  0.00  0.00    +0.000 OA
ATOM     11  N   UNL     1      -0.050  12.707  19.650  0.00  0.00    +0.000 N 
ATOM     12  H   UNL     1      -3.217  13.188  19.987  0.00  0.00    +0.000 HD
ENDROOT
BRANCH  11  13
ATOM     13  C   UNL     1       1.066  13.588  19.573  0.00  0.00    +0.000 A 
ATOM     14  C   UNL     1       1.198  14.564  18.580  0.00  0.00    +0.000 A 
ATOM     15  C   UNL     1       2.394  15.297  18.476  0.00  0.00    +0.000 A 
ATOM     16  C   UNL     1       3.419  15.096  19.397  0.00  0.00    +0.000 A 
ATOM     17 CL   UNL     1       4.886  15.988  19.251  0.00  0.00    +0.000 Cl
ATOM     18  C   UNL     1       3.273  14.178  20.422  0.00  0.00    +0.000 A 
ATOM     19  C   UNL     1       2.108  13.418  20.502  0.00  0.00    +0.000 A 
ENDBRANCH  11  13
BRANCH   1  21
ATOM     20  N   UNL     1       1.046   9.246  19.993  0.00  0.00    +0.000 N 
ATOM     21  C   UNL     1       0.116  10.248  20.219  0.00  0.00    +0.000 C 
ATOM     22  O   UNL     1      -0.641  10.204  21.194  0.00  0.00    +0.000 OA
ATOM     23  H   UNL     1       1.769   9.430  19.305  0.00  0.00    +0.000 HD
BRANCH  20  24
ATOM     24  C   UNL     1       1.239   8.179  20.950  0.00  0.00    +0.000 C 
BRANCH  24  25
ATOM     25  C   UNL     1       2.048   7.030  20.361  0.00  0.00    +0.000 C 
BRANCH  25  27
ATOM     26  C   UNL     1       2.502   6.025  18.093  0.00  0.00    +0.000 C 
ATOM     27  C   UNL     1       2.399   7.309  18.899  0.00  0.00    +0.000 C 
ENDBRANCH  25  27
ENDBRANCH  24  25
ENDBRANCH  20  24
ENDBRANCH   1  21
BRANCH   1  28
ATOM     28  O   UNL     1       1.097  11.245  18.210  0.00  0.00    +0.000 OA
ATOM     29  H   UNL     1       1.422  12.143  18.048  0.00  0.00    +0.000 HD
ENDBRANCH   1  28
TORSDOF 6
ENDMDL
MODEL 7
REMARK VINA RESULT:      -6.5      1.292      1.765
REMARK  Name = 
REMARK  7 active torsions:
REMARK  status: ('A' for Active; 'I' for Inactive)
REMARK    1  A    between atoms: C_1  and  C_2
REMARK    2  A    between atoms: C_2  and  C_3
REMARK    3  A    between atoms: C_3  and  C_4
REMARK    4  A    between atoms: C_4  and  N_5
REMARK    5  A    between atoms: C_6  and  C_8
REMARK    6  A    between atoms: C_8  and  O_9
REMARK    7  A    between atoms: N_19  and  C_20
REMARK                            x       y       z     vdW  Elec       q    Type
REMARK                         _______ _______ _______ _____ _____    ______ ____
ROOT
ATOM      1  C   UNL     1       5.547   4.200  16.977  0.00  0.00    +0.000 C 
ATOM      2  C   UNL     1       4.289   4.377  17.834  0.00  0.00    +0.000 A 
ATOM      3  C   UNL     1       3.863   3.472  18.824  0.00  0.00    +0.000 A 
ATOM      4  C   UNL     1       2.732   3.744  19.600  0.00  0.00    +0.000 A 
ATOM      5  C   UNL     1       2.017   4.923  19.415  0.00  0.00    +0.000 A 
ATOM      6  C   UNL     1       2.457   5.851  18.479  0.00  0.00    +0.000 A 
ATOM      7  C   UNL     1       3.593   5.582  17.719  0.00  0.00    +0.000 A 
ATOM      8  N   UNL     1       4.067   6.552  16.843  0.00  0.00    +0.000 N 
ATOM      9  C   UNL     1       4.972   6.323  15.860  0.00  0.00    +0.000 C 
ATOM     10  O   UNL     1       5.231   7.233  15.072  0.00  0.00    +0.000 OA
ATOM     11  N   UNL     1       5.490   5.046  15.767  0.00  0.00    +0.000 N 
ATOM     12  H   UNL     1       3.613   7.454  16.795  0.00  0.00    +0.000 HD
ENDROOT
BRANCH  11  13
ATOM     13  C   UNL     1       5.831   4.562  14.472  0.00  0.00    +0.000 A 
ATOM     14  C   UNL     1       4.949   3.821  13.680  0.00  0.00    +0.000 A 
ATOM     15  C   UNL     1       5.402   3.249  12.478  0.00  0.00    +0.000 A 
ATOM     16  C   UNL     1       6.708   3.471  12.047  0.00  0.00    +0.000 A 
ATOM     17 CL   UNL     1       7.258   2.751  10.581  0.00  0.00    +0.000 Cl
ATOM     18  C   UNL     1       7.570   4.256  12.792  0.00  0.00    +0.000 A 
ATOM     19  C   UNL     1       7.139   4.788  14.005  0.00  0.00    +0.000 A 
ENDBRANCH  11  13
BRANCH   1  21
ATOM     20  N   UNL     1       6.657   5.575  18.790  0.00  0.00    +0.000 N 
ATOM     21  C   UNL     1       6.816   4.555  17.865  0.00  0.00    +0.000 C 
ATOM     22  O   UNL     1       7.924   4.048  17.662  0.00  0.00    +0.000 OA
ATOM     23  H   UNL     1       5.708   5.810  19.063  0.00  0.00    +0.000 HD
BRANCH  20  24
ATOM     24  C   UNL     1       7.757   6.000  19.626  0.00  0.00    +0.000 C 
BRANCH  24  25
ATOM     25  C   UNL     1       8.474   7.212  19.044  0.00  0.00    +0.000 C 
BRANCH  25  27
ATOM     26  C   UNL     1       7.962   9.253  17.655  0.00  0.00    +0.000 C 
ATOM     27  C   UNL     1       7.711   7.766  17.841  0.00  0.00    +0.000 C 
ENDBRANCH  25  27
ENDBRANCH  24  25
ENDBRANCH  20  24
ENDBRANCH   1  21
BRANCH   1  28
ATOM     28  O   UNL     1       5.659   2.838  16.558  0.00  0.00    +0.000 OA
ATOM     29  H   UNL     1       6.449   2.767  16.002  0.00  0.00    +0.000 HD
ENDBRANCH   1  28
TORSDOF 6
ENDMDL
MODEL 8
REMARK VINA RESULT:      -6.5      8.836     11.209
REMARK  Name = 
REMARK  7 active torsions:
REMARK  status: ('A' for Active; 'I' for Inactive)
REMARK    1  A    between atoms: C_1  and  C_2
REMARK    2  A    between atoms: C_2  and  C_3
REMARK    3  A    between atoms: C_3  and  C_4
REMARK    4  A    between atoms: C_4  and  N_5
REMARK    5  A    between atoms: C_6  and  C_8
REMARK    6  A    between atoms: C_8  and  O_9
REMARK    7  A    between atoms: N_19  and  C_20
REMARK                            x       y       z     vdW  Elec       q    Type
REMARK                         _______ _______ _______ _____ _____    ______ ____
ROOT
ATOM      1  C   UNL     1      -1.174  12.735  19.604  0.00  0.00    +0.000 C 
ATOM      2  C   UNL     1      -2.207  12.811  20.733  0.00  0.00    +0.000 A 
ATOM      3  C   UNL     1      -3.492  13.371  20.603  0.00  0.00    +0.000 A 
ATOM      4  C   UNL     1      -4.393  13.344  21.672  0.00  0.00    +0.000 A 
ATOM      5  C   UNL     1      -4.036  12.753  22.880  0.00  0.00    +0.000 A 
ATOM      6  C   UNL     1      -2.791  12.149  23.005  0.00  0.00    +0.000 A 
ATOM      7  C   UNL     1      -1.904  12.164  21.931  0.00  0.00    +0.000 A 
ATOM      8  N   UNL     1      -0.693  11.489  22.044  0.00  0.00    +0.000 N 
ATOM      9  C   UNL     1       0.359  11.654  21.205  0.00  0.00    +0.000 C 
ATOM     10  O   UNL     1       1.420  11.087  21.470  0.00  0.00    +0.000 OA
ATOM     11  N   UNL     1       0.184  12.515  20.140  0.00  0.00    +0.000 N 
ATOM     12  H   UNL     1      -0.486  10.961  22.880  0.00  0.00    +0.000 HD
ENDROOT
BRANCH  11  13
ATOM     13  C   UNL     1       1.319  13.249  19.689  0.00  0.00    +0.000 A 
ATOM     14  C   UNL     1       2.036  12.909  18.538  0.00  0.00    +0.000 A 
ATOM     15  C   UNL     1       3.231  13.585  18.235  0.00  0.00    +0.000 A 
ATOM     16  C   UNL     1       3.666  14.632  19.043  0.00  0.00    +0.000 A 
ATOM     17 CL   UNL     1       5.141  15.443  18.672  0.00  0.00    +0.000 Cl
ATOM     18  C   UNL     1       2.930  15.019  20.149  0.00  0.00    +0.000 A 
ATOM     19  C   UNL     1       1.769  14.323  20.478  0.00  0.00    +0.000 A 
ENDBRANCH  11  13
BRANCH   1  21
ATOM     20  N   UNL     1      -2.214  11.950  17.434  0.00  0.00    +0.000 N 
ATOM     21  C   UNL     1      -1.596  11.566  18.613  0.00  0.00    +0.000 C 
ATOM     22  O   UNL     1      -1.502  10.375  18.923  0.00  0.00    +0.000 OA
ATOM     23  H   UNL     1      -2.084  12.910  17.132  0.00  0.00    +0.000 HD
BRANCH  20  24
ATOM     24  C   UNL     1      -2.668  10.966  16.477  0.00  0.00    +0.000 C 
BRANCH  24  25
ATOM     25  C   UNL     1      -4.160  11.097  16.195  0.00  0.00    +0.000 C 
BRANCH  25  27
ATOM     26  C   UNL     1      -5.979  12.528  17.196  0.00  0.00    +0.000 C 
ATOM     27  C   UNL     1      -4.920  11.473  17.467  0.00  0.00    +0.000 C 
ENDBRANCH  25  27
ENDBRANCH  24  25
ENDBRANCH  20  24
ENDBRANCH   1  21
BRANCH   1  28
ATOM     28  O   UNL     1      -1.165  13.963  18.871  0.00  0.00    +0.000 OA
ATOM     29  H   UNL     1      -0.246  14.258  18.805  0.00  0.00    +0.000 HD
ENDBRANCH   1  28
TORSDOF 6
ENDMDL
MODEL 9
REMARK VINA RESULT:      -6.5      8.611     10.994
REMARK  Name = 
REMARK  7 active torsions:
REMARK  status: ('A' for Active; 'I' for Inactive)
REMARK    1  A    between atoms: C_1  and  C_2
REMARK    2  A    between atoms: C_2  and  C_3
REMARK    3  A    between atoms: C_3  and  C_4
REMARK    4  A    between atoms: C_4  and  N_5
REMARK    5  A    between atoms: C_6  and  C_8
REMARK    6  A    between atoms: C_8  and  O_9
REMARK    7  A    between atoms: N_19  and  C_20
REMARK                            x       y       z     vdW  Elec       q    Type
REMARK                         _______ _______ _______ _____ _____    ______ ____
ROOT
ATOM      1  C   UNL     1      -1.371  12.613  19.899  0.00  0.00    +0.000 C 
ATOM      2  C   UNL     1      -2.327  12.774  21.085  0.00  0.00    +0.000 A 
ATOM      3  C   UNL     1      -3.555  13.462  21.034  0.00  0.00    +0.000 A 
ATOM      4  C   UNL     1      -4.393  13.509  22.152  0.00  0.00    +0.000 A 
ATOM      5  C   UNL     1      -4.032  12.865  23.331  0.00  0.00    +0.000 A 
ATOM      6  C   UNL     1      -2.850  12.138  23.380  0.00  0.00    +0.000 A 
ATOM      7  C   UNL     1      -2.026  12.081  22.258  0.00  0.00    +0.000 A 
ATOM      8  N   UNL     1      -0.885  11.286  22.295  0.00  0.00    +0.000 N 
ATOM      9  C   UNL     1       0.130  11.358  21.399  0.00  0.00    +0.000 C 
ATOM     10  O   UNL     1       1.141  10.683  21.598  0.00  0.00    +0.000 OA
ATOM     11  N   UNL     1      -0.015  12.249  20.355  0.00  0.00    +0.000 N 
ATOM     12  H   UNL     1      -0.687  10.726  23.113  0.00  0.00    +0.000 HD
ENDROOT
BRANCH  11  13
ATOM     13  C   UNL     1       1.161  12.872  19.848  0.00  0.00    +0.000 A 
ATOM     14  C   UNL     1       1.773  13.964  20.471  0.00  0.00    +0.000 A 
ATOM     15  C   UNL     1       2.842  14.621  19.837  0.00  0.00    +0.000 A 
ATOM     16  C   UNL     1       3.331  14.148  18.621  0.00  0.00    +0.000 A 
ATOM     17 CL   UNL     1       4.630  14.972  17.844  0.00  0.00    +0.000 Cl
ATOM     18  C   UNL     1       2.774  13.030  18.027  0.00  0.00    +0.000 A 
ATOM     19  C   UNL     1       1.686  12.402  18.630  0.00  0.00    +0.000 A 
ENDBRANCH  11  13
BRANCH   1  21
ATOM     20  N   UNL     1      -2.961  11.923  18.053  0.00  0.00    +0.000 N 
ATOM     21  C   UNL     1      -1.963  11.508  18.921  0.00  0.00    +0.000 C 
ATOM     22  O   UNL     1      -1.654  10.316  19.011  0.00  0.00    +0.000 OA
ATOM     23  H   UNL     1      -3.033  12.918  17.870  0.00  0.00    +0.000 HD
BRANCH  20  24
ATOM     24  C   UNL     1      -3.591  10.991  17.144  0.00  0.00    +0.000 C 
BRANCH  24  25
ATOM     25  C   UNL     1      -2.879  10.945  15.799  0.00  0.00    +0.000 C 
BRANCH  25  27
ATOM     26  C   UNL     1      -2.848   9.793  13.555  0.00  0.00    +0.000 C 
ATOM     27  C   UNL     1      -3.669  10.105  14.796  0.00  0.00    +0.000 C 
ENDBRANCH  25  27
ENDBRANCH  24  25
ENDBRANCH  20  24
ENDBRANCH   1  21
BRANCH   1  28
ATOM     28  O   UNL     1      -1.279  13.845  19.180  0.00  0.00    +0.000 OA
ATOM     29  H   UNL     1      -2.157  14.252  19.183  0.00  0.00    +0.000 HD
ENDBRANCH   1  28
TORSDOF 6
ENDMDL
