MODEL 1
REMARK VINA RESULT:      -9.4      0.000      0.000
REMARK  Name = 
REMARK  11 active torsions:
REMARK  status: ('A' for Active; 'I' for Inactive)
REMARK    1  A    between atoms: C_1  and  C_2
REMARK    2  A    between atoms: C_2  and  C_3
REMARK    3  A    between atoms: C_2  and  N_13
REMARK    4  A    between atoms: C_6  and  O_7
REMARK    5  A    between atoms: O_7  and  C_8
REMARK    6  A    between atoms: C_16  and  C_17
REMARK    7  A    between atoms: C_16  and  C_22
REMARK    8  A    between atoms: C_17  and  C_18
REMARK    9  A    between atoms: C_18  and  C_19
REMARK   10  A    between atoms: C_18  and  C_20
REMARK   11  A    between atoms: C_18  and  O_21
REMARK                            x       y       z     vdW  Elec       q    Type
REMARK                         _______ _______ _______ _____ _____    ______ ____
ROOT
ATOM      1  N   UNL     1       5.382   5.435  17.827  0.00  0.00    +0.000 N 
ATOM      2  C   UNL     1       4.158   5.508  17.053  0.00  0.00    +0.000 C 
ATOM      3  C   UNL     1       3.003   4.863  17.790  0.00  0.00    +0.000 C 
ATOM      4  C   UNL     1       2.887   5.493  19.187  0.00  0.00    +0.000 C 
ATOM      5  O   UNL     1       4.171   5.372  19.840  0.00  0.00    +0.000 OA
ATOM      6  C   UNL     1       5.376   5.376  19.211  0.00  0.00    +0.000 C 
ATOM      7  O   UNL     1       6.401   5.315  19.883  0.00  0.00    +0.000 OA
ENDROOT
BRANCH   4   8
ATOM      8  C   UNL     1       2.448   6.957  19.065  0.00  0.00    +0.000 A 
ATOM      9  C   UNL     1       1.850   7.618  20.156  0.00  0.00    +0.000 A 
ATOM     10  C   UNL     1       1.377   8.926  20.033  0.00  0.00    +0.000 A 
ATOM     11  C   UNL     1       1.494   9.598  18.821  0.00  0.00    +0.000 A 
ATOM     12  C   UNL     1       2.103   8.972  17.738  0.00  0.00    +0.000 A 
ATOM     13  C   UNL     1       2.581   7.667  17.859  0.00  0.00    +0.000 A 
ENDBRANCH   4   8
BRANCH   1  15
ATOM     14  C   UNL     1       7.725   4.682  18.002  0.00  0.00    +0.000 C 
ATOM     15  C   UNL     1       6.684   5.404  17.134  0.00  0.00    +0.000 C 
BRANCH  15  16
ATOM     16  C   UNL     1       6.593   4.881  15.704  0.00  0.00    +0.000 A 
ATOM     17  C   UNL     1       5.738   3.834  15.336  0.00  0.00    +0.000 A 
ATOM     18  C   UNL     1       5.696   3.374  14.021  0.00  0.00    +0.000 A 
ATOM     19  C   UNL     1       6.496   3.956  13.040  0.00  0.00    +0.000 A 
ATOM     20  C   UNL     1       7.367   4.988  13.389  0.00  0.00    +0.000 A 
ATOM     21  C   UNL     1       7.405   5.454  14.709  0.00  0.00    +0.000 A 
BRANCH  19  22
ATOM     22  O   UNL     1       6.365   3.410  11.796  0.00  0.00    +0.000 OA
BRANCH  22  23
ATOM     23  C   UNL     1       5.500   2.291  11.713  0.00  0.00    +0.000 C 
ATOM     24  F   UNL     1       4.380   2.654  11.040  0.00  0.00    +0.000 F 
ATOM     25  F   UNL     1       6.127   1.357  10.952  0.00  0.00    +0.000 F 
ENDBRANCH  22  23
ENDBRANCH  19  22
ENDBRANCH  15  16
ENDBRANCH   1  15
BRANCH   4  26
ATOM     26  C   UNL     1       1.890   4.638  20.027  0.00  0.00    +0.000 C 
BRANCH  26  27
ATOM     27  C   UNL     1       2.089   3.106  20.171  0.00  0.00    +0.000 C 
ATOM     28  C   UNL     1       1.803   2.558  21.571  0.00  0.00    +0.000 C 
ATOM     29  C   UNL     1       1.337   2.278  19.130  0.00  0.00    +0.000 C 
BRANCH  27  30
ATOM     30  O   UNL     1       3.487   2.867  19.900  0.00  0.00    +0.000 OA
ATOM     31  H   UNL     1       3.880   3.701  19.590  0.00  0.00    +0.000 HD
ENDBRANCH  27  30
ENDBRANCH  26  27
ENDBRANCH   4  26
TORSDOF 8
ENDMDL
MODEL 2
REMARK VINA RESULT:      -9.1      0.445      1.039
REMARK  Name = 
REMARK  11 active torsions:
REMARK  status: ('A' for Active; 'I' for Inactive)
REMARK    1  A    between atoms: C_1  and  C_2
REMARK    2  A    between atoms: C_2  and  C_3
REMARK    3  A    between atoms: C_2  and  N_13
REMARK    4  A    between atoms: C_6  and  O_7
REMARK    5  A    between atoms: O_7  and  C_8
REMARK    6  A    between atoms: C_16  and  C_17
REMARK    7  A    between atoms: C_16  and  C_22
REMARK    8  A    between atoms: C_17  and  C_18
REMARK    9  A    between atoms: C_18  and  C_19
REMARK   10  A    between atoms: C_18  and  C_20
REMARK   11  A    between atoms: C_18  and  O_21
REMARK                            x       y       z     vdW  Elec       q    Type
REMARK                         _______ _______ _______ _____ _____    ______ ____
ROOT
ATOM      1  N   UNL     1       5.389   5.408  17.868  0.00  0.00    +0.000 N 
ATOM      2  C   UNL     1       4.154   5.458  17.109  0.00  0.00    +0.000 C 
ATOM      3  C   UNL     1       3.014   4.819  17.875  0.00  0.00    +0.000 C 
ATOM      4  C   UNL     1       2.912   5.475  19.261  0.00  0.00    +0.000 C 
ATOM      5  O   UNL     1       4.206   5.376  19.898  0.00  0.00    +0.000 OA
ATOM      6  C   UNL     1       5.402   5.376  19.252  0.00  0.00    +0.000 C 
ATOM      7  O   UNL     1       6.436   5.335  19.912  0.00  0.00    +0.000 OA
ENDROOT
BRANCH   4   8
ATOM      8  C   UNL     1       2.461   6.933  19.116  0.00  0.00    +0.000 A 
ATOM      9  C   UNL     1       1.854   7.605  20.195  0.00  0.00    +0.000 A 
ATOM     10  C   UNL     1       1.370   8.907  20.052  0.00  0.00    +0.000 A 
ATOM     11  C   UNL     1       1.485   9.563  18.831  0.00  0.00    +0.000 A 
ATOM     12  C   UNL     1       2.104   8.927  17.759  0.00  0.00    +0.000 A 
ATOM     13  C   UNL     1       2.592   7.627  17.900  0.00  0.00    +0.000 A 
ENDBRANCH   4   8
BRANCH   1  15
ATOM     14  C   UNL     1       7.741   4.681  18.029  0.00  0.00    +0.000 C 
ATOM     15  C   UNL     1       6.682   5.372  17.158  0.00  0.00    +0.000 C 
BRANCH  15  16
ATOM     16  C   UNL     1       6.576   4.814  15.743  0.00  0.00    +0.000 A 
ATOM     17  C   UNL     1       7.277   5.361  14.660  0.00  0.00    +0.000 A 
ATOM     18  C   UNL     1       7.140   4.833  13.378  0.00  0.00    +0.000 A 
ATOM     19  C   UNL     1       6.311   3.737  13.148  0.00  0.00    +0.000 A 
ATOM     20  C   UNL     1       5.591   3.187  14.208  0.00  0.00    +0.000 A 
ATOM     21  C   UNL     1       5.732   3.715  15.497  0.00  0.00    +0.000 A 
BRANCH  19  22
ATOM     22  O   UNL     1       6.261   3.320  11.849  0.00  0.00    +0.000 OA
BRANCH  22  23
ATOM     23  C   UNL     1       6.703   1.994  11.619  0.00  0.00    +0.000 C 
ATOM     24  F   UNL     1       5.794   1.359  10.839  0.00  0.00    +0.000 F 
ATOM     25  F   UNL     1       7.850   2.076  10.895  0.00  0.00    +0.000 F 
ENDBRANCH  22  23
ENDBRANCH  19  22
ENDBRANCH  15  16
ENDBRANCH   1  15
BRANCH   4  26
ATOM     26  C   UNL     1       1.932   4.630  20.131  0.00  0.00    +0.000 C 
BRANCH  26  27
ATOM     27  C   UNL     1       2.088   3.089  20.225  0.00  0.00    +0.000 C 
ATOM     28  C   UNL     1       1.596   2.482  21.541  0.00  0.00    +0.000 C 
ATOM     29  C   UNL     1       1.482   2.328  19.047  0.00  0.00    +0.000 C 
BRANCH  27  30
ATOM     30  O   UNL     1       3.507   2.835  20.146  0.00  0.00    +0.000 OA
ATOM     31  H   UNL     1       3.633   1.882  20.000  0.00  0.00    +0.000 HD
ENDBRANCH  27  30
ENDBRANCH  26  27
ENDBRANCH   4  26
TORSDOF 8
ENDMDL
MODEL 3
REMARK VINA RESULT:      -9.0      3.989      5.206
REMARK  Name = 
REMARK  11 active torsions:
REMARK  status: ('A' for Active; 'I' for Inactive)
REMARK    1  A    between atoms: C_1  and  C_2
REMARK    2  A    between atoms: C_2  and  C_3
REMARK    3  A    between atoms: C_2  and  N_13
REMARK    4  A    between atoms: C_6  and  O_7
REMARK    5  A    between atoms: O_7  and  C_8
REMARK    6  A    between atoms: C_16  and  C_17
REMARK    7  A    between atoms: C_16  and  C_22
REMARK    8  A    between atoms: C_17  and  C_18
REMARK    9  A    between atoms: C_18  and  C_19
REMARK   10  A    between atoms: C_18  and  C_20
REMARK   11  A    between atoms: C_18  and  O_21
REMARK                            x       y       z     vdW  Elec       q    Type
REMARK                         _______ _______ _______ _____ _____    ______ ____
ROOT
ATOM      1  N   UNL     1       5.359   5.115  17.727  0.00  0.00    +0.000 N 
ATOM      2  C   UNL     1       4.363   5.705  16.854  0.00  0.00    +0.000 C 
ATOM      3  C   UNL     1       3.044   4.968  16.950  0.00  0.00    +0.000 C 
ATOM      4  C   UNL     1       2.611   4.907  18.424  0.00  0.00    +0.000 C 
ATOM      5  O   UNL     1       3.693   4.322  19.183  0.00  0.00    +0.000 OA
ATOM      6  C   UNL     1       5.015   4.438  18.886  0.00  0.00    +0.000 C 
ATOM      7  O   UNL     1       5.842   3.933  19.638  0.00  0.00    +0.000 OA
ENDROOT
BRANCH   4   8
ATOM      8  C   UNL     1       2.263   6.314  18.924  0.00  0.00    +0.000 A 
ATOM      9  C   UNL     1       1.951   6.534  20.280  0.00  0.00    +0.000 A 
ATOM     10  C   UNL     1       1.558   7.795  20.733  0.00  0.00    +0.000 A 
ATOM     11  C   UNL     1       1.471   8.859  19.842  0.00  0.00    +0.000 A 
ATOM     12  C   UNL     1       1.797   8.669  18.502  0.00  0.00    +0.000 A 
ATOM     13  C   UNL     1       2.195   7.411  18.047  0.00  0.00    +0.000 A 
ENDBRANCH   4   8
BRANCH   1  15
ATOM     14  C   UNL     1       6.993   4.888  15.893  0.00  0.00    +0.000 C 
ATOM     15  C   UNL     1       6.789   5.215  17.379  0.00  0.00    +0.000 C 
BRANCH  15  16
ATOM     16  C   UNL     1       7.425   6.529  17.822  0.00  0.00    +0.000 A 
ATOM     17  C   UNL     1       7.306   7.714  17.084  0.00  0.00    +0.000 A 
ATOM     18  C   UNL     1       7.917   8.890  17.514  0.00  0.00    +0.000 A 
ATOM     19  C   UNL     1       8.650   8.916  18.698  0.00  0.00    +0.000 A 
ATOM     20  C   UNL     1       8.797   7.743  19.439  0.00  0.00    +0.000 A 
ATOM     21  C   UNL     1       8.178   6.563  19.010  0.00  0.00    +0.000 A 
BRANCH  19  22
ATOM     22  O   UNL     1       9.202  10.126  19.004  0.00  0.00    +0.000 OA
BRANCH  22  23
ATOM     23  C   UNL     1       9.236  11.063  17.942  0.00  0.00    +0.000 C 
ATOM     24  F   UNL     1       8.889  12.282  18.424  0.00  0.00    +0.000 F 
ATOM     25  F   UNL     1      10.527  11.157  17.533  0.00  0.00    +0.000 F 
ENDBRANCH  22  23
ENDBRANCH  19  22
ENDBRANCH  15  16
ENDBRANCH   1  15
BRANCH   4  26
ATOM     26  C   UNL     1       1.412   3.917  18.540  0.00  0.00    +0.000 C 
BRANCH  26  27
ATOM     27  C   UNL     1       1.616   2.495  19.126  0.00  0.00    +0.000 C 
ATOM     28  C   UNL     1       2.799   1.727  18.531  0.00  0.00    +0.000 C 
ATOM     29  C   UNL     1       1.689   2.453  20.652  0.00  0.00    +0.000 C 
BRANCH  27  30
ATOM     30  O   UNL     1       0.421   1.759  18.788  0.00  0.00    +0.000 OA
ATOM     31  H   UNL     1      -0.167   2.353  18.291  0.00  0.00    +0.000 HD
ENDBRANCH  27  30
ENDBRANCH  26  27
ENDBRANCH   4  26
TORSDOF 8
ENDMDL
MODEL 4
REMARK VINA RESULT:      -9.0      0.566      1.182
REMARK  Name = 
REMARK  11 active torsions:
REMARK  status: ('A' for Active; 'I' for Inactive)
REMARK    1  A    between atoms: C_1  and  C_2
REMARK    2  A    between atoms: C_2  and  C_3
REMARK    3  A    between atoms: C_2  and  N_13
REMARK    4  A    between atoms: C_6  and  O_7
REMARK    5  A    between atoms: O_7  and  C_8
REMARK    6  A    between atoms: C_16  and  C_17
REMARK    7  A    between atoms: C_16  and  C_22
REMARK    8  A    between atoms: C_17  and  C_18
REMARK    9  A    between atoms: C_18  and  C_19
REMARK   10  A    between atoms: C_18  and  C_20
REMARK   11  A    between atoms: C_18  and  O_21
REMARK                            x       y       z     vdW  Elec       q    Type
REMARK                         _______ _______ _______ _____ _____    ______ ____
ROOT
ATOM      1  N   UNL     1       5.391   5.387  17.848  0.00  0.00    +0.000 N 
ATOM      2  C   UNL     1       4.161   5.402  17.079  0.00  0.00    +0.000 C 
ATOM      3  C   UNL     1       3.037   4.718  17.829  0.00  0.00    +0.000 C 
ATOM      4  C   UNL     1       2.902   5.358  19.220  0.00  0.00    +0.000 C 
ATOM      5  O   UNL     1       4.193   5.297  19.868  0.00  0.00    +0.000 OA
ATOM      6  C   UNL     1       5.394   5.343  19.232  0.00  0.00    +0.000 C 
ATOM      7  O   UNL     1       6.423   5.330  19.900  0.00  0.00    +0.000 OA
ENDROOT
BRANCH   4   8
ATOM      8  C   UNL     1       2.403   6.801  19.084  0.00  0.00    +0.000 A 
ATOM      9  C   UNL     1       2.523   7.487  17.859  0.00  0.00    +0.000 A 
ATOM     10  C   UNL     1       2.143   8.826  17.744  0.00  0.00    +0.000 A 
ATOM     11  C   UNL     1       1.635   9.503  18.847  0.00  0.00    +0.000 A 
ATOM     12  C   UNL     1       1.486   8.838  20.060  0.00  0.00    +0.000 A 
ATOM     13  C   UNL     1       1.860   7.499  20.178  0.00  0.00    +0.000 A 
ENDBRANCH   4   8
BRANCH   1  15
ATOM     14  C   UNL     1       7.763   4.730  18.018  0.00  0.00    +0.000 C 
ATOM     15  C   UNL     1       6.690   5.401  17.149  0.00  0.00    +0.000 C 
BRANCH  15  16
ATOM     16  C   UNL     1       6.613   4.862  15.724  0.00  0.00    +0.000 A 
ATOM     17  C   UNL     1       5.863   3.728  15.385  0.00  0.00    +0.000 A 
ATOM     18  C   UNL     1       5.832   3.257  14.075  0.00  0.00    +0.000 A 
ATOM     19  C   UNL     1       6.537   3.913  13.068  0.00  0.00    +0.000 A 
ATOM     20  C   UNL     1       7.304   5.033  13.387  0.00  0.00    +0.000 A 
ATOM     21  C   UNL     1       7.331   5.510  14.703  0.00  0.00    +0.000 A 
BRANCH  19  22
ATOM     22  O   UNL     1       6.429   3.347  11.831  0.00  0.00    +0.000 OA
BRANCH  22  23
ATOM     23  C   UNL     1       5.480   2.300  11.723  0.00  0.00    +0.000 C 
ATOM     24  F   UNL     1       4.396   2.761  11.053  0.00  0.00    +0.000 F 
ATOM     25  F   UNL     1       6.037   1.334  10.947  0.00  0.00    +0.000 F 
ENDBRANCH  22  23
ENDBRANCH  19  22
ENDBRANCH  15  16
ENDBRANCH   1  15
BRANCH   4  26
ATOM     26  C   UNL     1       1.944   4.473  20.074  0.00  0.00    +0.000 C 
BRANCH  26  27
ATOM     27  C   UNL     1       1.912   2.933  19.884  0.00  0.00    +0.000 C 
ATOM     28  C   UNL     1       0.921   2.444  18.825  0.00  0.00    +0.000 C 
ATOM     29  C   UNL     1       3.284   2.306  19.635  0.00  0.00    +0.000 C 
BRANCH  27  30
ATOM     30  O   UNL     1       1.479   2.393  21.151  0.00  0.00    +0.000 OA
ATOM     31  H   UNL     1       0.550   2.648  21.285  0.00  0.00    +0.000 HD
ENDBRANCH  27  30
ENDBRANCH  26  27
ENDBRANCH   4  26
TORSDOF 8
ENDMDL
MODEL 5
REMARK VINA RESULT:      -8.9      3.997      5.244
REMARK  Name = 
REMARK  11 active torsions:
REMARK  status: ('A' for Active; 'I' for Inactive)
REMARK    1  A    between atoms: C_1  and  C_2
REMARK    2  A    between atoms: C_2  and  C_3
REMARK    3  A    between atoms: C_2  and  N_13
REMARK    4  A    between atoms: C_6  and  O_7
REMARK    5  A    between atoms: O_7  and  C_8
REMARK    6  A    between atoms: C_16  and  C_17
REMARK    7  A    between atoms: C_16  and  C_22
REMARK    8  A    between atoms: C_17  and  C_18
REMARK    9  A    between atoms: C_18  and  C_19
REMARK   10  A    between atoms: C_18  and  C_20
REMARK   11  A    between atoms: C_18  and  O_21
REMARK                            x       y       z     vdW  Elec       q    Type
REMARK                         _______ _______ _______ _____ _____    ______ ____
ROOT
ATOM      1  N   UNL     1       5.354   4.984  17.798  0.00  0.00    +0.000 N 
ATOM      2  C   UNL     1       4.399   5.471  16.821  0.00  0.00    +0.000 C 
ATOM      3  C   UNL     1       3.076   4.744  16.937  0.00  0.00    +0.000 C 
ATOM      4  C   UNL     1       2.576   4.844  18.387  0.00  0.00    +0.000 C 
ATOM      5  O   UNL     1       3.622   4.349  19.255  0.00  0.00    +0.000 OA
ATOM      6  C   UNL     1       4.956   4.438  19.007  0.00  0.00    +0.000 C 
ATOM      7  O   UNL     1       5.747   4.021  19.847  0.00  0.00    +0.000 OA
ENDROOT
BRANCH   4   8
ATOM      8  C   UNL     1       2.207   6.295  18.714  0.00  0.00    +0.000 A 
ATOM      9  C   UNL     1       2.150   7.265  17.694  0.00  0.00    +0.000 A 
ATOM     10  C   UNL     1       1.890   8.605  17.988  0.00  0.00    +0.000 A 
ATOM     11  C   UNL     1       1.681   9.001  19.305  0.00  0.00    +0.000 A 
ATOM     12  C   UNL     1       1.708   8.055  20.325  0.00  0.00    +0.000 A 
ATOM     13  C   UNL     1       1.963   6.714  20.033  0.00  0.00    +0.000 A 
ENDBRANCH   4   8
BRANCH   1  15
ATOM     14  C   UNL     1       7.061   4.632  16.053  0.00  0.00    +0.000 C 
ATOM     15  C   UNL     1       6.798   5.051  17.506  0.00  0.00    +0.000 C 
BRANCH  15  16
ATOM     16  C   UNL     1       7.430   6.384  17.896  0.00  0.00    +0.000 A 
ATOM     17  C   UNL     1       8.214   6.541  19.046  0.00  0.00    +0.000 A 
ATOM     18  C   UNL     1       8.760   7.780  19.376  0.00  0.00    +0.000 A 
ATOM     19  C   UNL     1       8.547   8.889  18.560  0.00  0.00    +0.000 A 
ATOM     20  C   UNL     1       7.755   8.759  17.420  0.00  0.00    +0.000 A 
ATOM     21  C   UNL     1       7.211   7.512  17.085  0.00  0.00    +0.000 A 
BRANCH  19  22
ATOM     22  O   UNL     1       9.130  10.042  18.998  0.00  0.00    +0.000 OA
BRANCH  22  23
ATOM     23  C   UNL     1       9.487  10.965  17.984  0.00  0.00    +0.000 C 
ATOM     24  F   UNL     1       8.854  12.141  18.222  0.00  0.00    +0.000 F 
ATOM     25  F   UNL     1      10.817  11.205  18.111  0.00  0.00    +0.000 F 
ENDBRANCH  22  23
ENDBRANCH  19  22
ENDBRANCH  15  16
ENDBRANCH   1  15
BRANCH   4  26
ATOM     26  C   UNL     1       1.373   3.868  18.558  0.00  0.00    +0.000 C 
BRANCH  26  27
ATOM     27  C   UNL     1       1.581   2.454  19.161  0.00  0.00    +0.000 C 
ATOM     28  C   UNL     1       2.791   1.698  18.606  0.00  0.00    +0.000 C 
ATOM     29  C   UNL     1       1.611   2.426  20.689  0.00  0.00    +0.000 C 
BRANCH  27  30
ATOM     30  O   UNL     1       0.406   1.697  18.797  0.00  0.00    +0.000 OA
ATOM     31  H   UNL     1      -0.211   1.720  19.548  0.00  0.00    +0.000 HD
ENDBRANCH  27  30
ENDBRANCH  26  27
ENDBRANCH   4  26
TORSDOF 8
ENDMDL
MODEL 6
REMARK VINA RESULT:      -8.9      4.343      5.514
REMARK  Name = 
REMARK  11 active torsions:
REMARK  status: ('A' for Active; 'I' for Inactive)
REMARK    1  A    between atoms: C_1  and  C_2
REMARK    2  A    between atoms: C_2  and  C_3
REMARK    3  A    between atoms: C_2  and  N_13
REMARK    4  A    between atoms: C_6  and  O_7
REMARK    5  A    between atoms: O_7  and  C_8
REMARK    6  A    between atoms: C_16  and  C_17
REMARK    7  A    between atoms: C_16  and  C_22
REMARK    8  A    between atoms: C_17  and  C_18
REMARK    9  A    between atoms: C_18  and  C_19
REMARK   10  A    between atoms: C_18  and  C_20
REMARK   11  A    between atoms: C_18  and  O_21
REMARK                            x       y       z     vdW  Elec       q    Type
REMARK                         _______ _______ _______ _____ _____    ______ ____
ROOT
ATOM      1  N   UNL     1       5.453   5.568  17.963  0.00  0.00    +0.000 N 
ATOM      2  C   UNL     1       4.367   5.861  17.048  0.00  0.00    +0.000 C 
ATOM      3  C   UNL     1       3.129   5.059  17.389  0.00  0.00    +0.000 C 
ATOM      4  C   UNL     1       2.771   5.296  18.865  0.00  0.00    +0.000 C 
ATOM      5  O   UNL     1       3.937   4.988  19.663  0.00  0.00    +0.000 OA
ATOM      6  C   UNL     1       5.226   5.143  19.262  0.00  0.00    +0.000 C 
ATOM      7  O   UNL     1       6.131   4.891  20.052  0.00  0.00    +0.000 OA
ENDROOT
BRANCH   4   8
ATOM      8  C   UNL     1       2.313   6.745  19.065  0.00  0.00    +0.000 A 
ATOM      9  C   UNL     1       1.875   7.190  20.328  0.00  0.00    +0.000 A 
ATOM     10  C   UNL     1       1.384   8.485  20.505  0.00  0.00    +0.000 A 
ATOM     11  C   UNL     1       1.323   9.360  19.426  0.00  0.00    +0.000 A 
ATOM     12  C   UNL     1       1.774   8.950  18.176  0.00  0.00    +0.000 A 
ATOM     13  C   UNL     1       2.269   7.657  17.996  0.00  0.00    +0.000 A 
ENDBRANCH   4   8
BRANCH   1  15
ATOM     14  C   UNL     1       6.968   5.285  16.037  0.00  0.00    +0.000 C 
ATOM     15  C   UNL     1       6.849   5.705  17.509  0.00  0.00    +0.000 C 
BRANCH  15  16
ATOM     16  C   UNL     1       7.452   7.071  17.819  0.00  0.00    +0.000 A 
ATOM     17  C   UNL     1       7.116   8.226  17.100  0.00  0.00    +0.000 A 
ATOM     18  C   UNL     1       7.701   9.453  17.404  0.00  0.00    +0.000 A 
ATOM     19  C   UNL     1       8.625   9.562  18.441  0.00  0.00    +0.000 A 
ATOM     20  C   UNL     1       8.986   8.421  19.158  0.00  0.00    +0.000 A 
ATOM     21  C   UNL     1       8.394   7.189  18.857  0.00  0.00    +0.000 A 
BRANCH  19  22
ATOM     22  O   UNL     1       9.128  10.816  18.632  0.00  0.00    +0.000 OA
BRANCH  22  23
ATOM     23  C   UNL     1       9.741  11.040  19.889  0.00  0.00    +0.000 C 
ATOM     24  F   UNL     1      11.044  11.356  19.690  0.00  0.00    +0.000 F 
ATOM     25  F   UNL     1       9.151  12.136  20.432  0.00  0.00    +0.000 F 
ENDBRANCH  22  23
ENDBRANCH  19  22
ENDBRANCH  15  16
ENDBRANCH   1  15
BRANCH   4  26
ATOM     26  C   UNL     1       1.678   4.262  19.275  0.00  0.00    +0.000 C 
BRANCH  26  27
ATOM     27  C   UNL     1       2.076   2.853  19.788  0.00  0.00    +0.000 C 
ATOM     28  C   UNL     1       2.425   2.795  21.277  0.00  0.00    +0.000 C 
ATOM     29  C   UNL     1       1.064   1.758  19.453  0.00  0.00    +0.000 C 
BRANCH  27  30
ATOM     30  O   UNL     1       3.270   2.495  19.060  0.00  0.00    +0.000 OA
ATOM     31  H   UNL     1       3.277   3.000  18.229  0.00  0.00    +0.000 HD
ENDBRANCH  27  30
ENDBRANCH  26  27
ENDBRANCH   4  26
TORSDOF 8
ENDMDL
MODEL 7
REMARK VINA RESULT:      -8.9      4.325      5.470
REMARK  Name = 
REMARK  11 active torsions:
REMARK  status: ('A' for Active; 'I' for Inactive)
REMARK    1  A    between atoms: C_1  and  C_2
REMARK    2  A    between atoms: C_2  and  C_3
REMARK    3  A    between atoms: C_2  and  N_13
REMARK    4  A    between atoms: C_6  and  O_7
REMARK    5  A    between atoms: O_7  and  C_8
REMARK    6  A    between atoms: C_16  and  C_17
REMARK    7  A    between atoms: C_16  and  C_22
REMARK    8  A    between atoms: C_17  and  C_18
REMARK    9  A    between atoms: C_18  and  C_19
REMARK   10  A    between atoms: C_18  and  C_20
REMARK   11  A    between atoms: C_18  and  O_21
REMARK                            x       y       z     vdW  Elec       q    Type
REMARK                         _______ _______ _______ _____ _____    ______ ____
ROOT
ATOM      1  N   UNL     1       5.653   5.764  17.921  0.00  0.00    +0.000 N 
ATOM      2  C   UNL     1       4.544   5.939  17.002  0.00  0.00    +0.000 C 
ATOM      3  C   UNL     1       3.359   5.086  17.404  0.00  0.00    +0.000 C 
ATOM      4  C   UNL     1       2.999   5.387  18.867  0.00  0.00    +0.000 C 
ATOM      5  O   UNL     1       4.188   5.195  19.669  0.00  0.00    +0.000 OA
ATOM      6  C   UNL     1       5.463   5.402  19.244  0.00  0.00    +0.000 C 
ATOM      7  O   UNL     1       6.387   5.249  20.037  0.00  0.00    +0.000 OA
ENDROOT
BRANCH   4   8
ATOM      8  C   UNL     1       2.458   6.816  18.989  0.00  0.00    +0.000 A 
ATOM      9  C   UNL     1       1.996   7.303  20.228  0.00  0.00    +0.000 A 
ATOM     10  C   UNL     1       1.431   8.575  20.336  0.00  0.00    +0.000 A 
ATOM     11  C   UNL     1       1.317   9.384  19.210  0.00  0.00    +0.000 A 
ATOM     12  C   UNL     1       1.788   8.932  17.982  0.00  0.00    +0.000 A 
ATOM     13  C   UNL     1       2.359   7.663  17.871  0.00  0.00    +0.000 A 
ENDBRANCH   4   8
BRANCH   1  15
ATOM     14  C   UNL     1       7.127   5.621  15.948  0.00  0.00    +0.000 C 
ATOM     15  C   UNL     1       7.035   5.956  17.444  0.00  0.00    +0.000 C 
BRANCH  15  16
ATOM     16  C   UNL     1       7.616   7.317  17.816  0.00  0.00    +0.000 A 
ATOM     17  C   UNL     1       8.526   7.488  18.867  0.00  0.00    +0.000 A 
ATOM     18  C   UNL     1       9.021   8.751  19.186  0.00  0.00    +0.000 A 
ATOM     19  C   UNL     1       8.631   9.871  18.456  0.00  0.00    +0.000 A 
ATOM     20  C   UNL     1       7.712   9.726  17.417  0.00  0.00    +0.000 A 
ATOM     21  C   UNL     1       7.219   8.456  17.092  0.00  0.00    +0.000 A 
BRANCH  19  22
ATOM     22  O   UNL     1       9.182  11.048  18.873  0.00  0.00    +0.000 OA
BRANCH  22  23
ATOM     23  C   UNL     1      10.518  11.272  18.460  0.00  0.00    +0.000 C 
ATOM     24  F   UNL     1      10.504  11.928  17.274  0.00  0.00    +0.000 F 
ATOM     25  F   UNL     1      11.080  12.114  19.365  0.00  0.00    +0.000 F 
ENDBRANCH  22  23
ENDBRANCH  19  22
ENDBRANCH  15  16
ENDBRANCH   1  15
BRANCH   4  26
ATOM     26  C   UNL     1       1.973   4.316  19.348  0.00  0.00    +0.000 C 
BRANCH  26  27
ATOM     27  C   UNL     1       2.238   3.488  20.634  0.00  0.00    +0.000 C 
ATOM     28  C   UNL     1       1.022   2.720  21.155  0.00  0.00    +0.000 C 
ATOM     29  C   UNL     1       3.439   2.548  20.534  0.00  0.00    +0.000 C 
BRANCH  27  30
ATOM     30  O   UNL     1       2.599   4.450  21.649  0.00  0.00    +0.000 OA
ATOM     31  H   UNL     1       2.644   3.984  22.501  0.00  0.00    +0.000 HD
ENDBRANCH  27  30
ENDBRANCH  26  27
ENDBRANCH   4  26
TORSDOF 8
ENDMDL
MODEL 8
REMARK VINA RESULT:      -8.8      4.420      5.624
REMARK  Name = 
REMARK  11 active torsions:
REMARK  status: ('A' for Active; 'I' for Inactive)
REMARK    1  A    between atoms: C_1  and  C_2
REMARK    2  A    between atoms: C_2  and  C_3
REMARK    3  A    between atoms: C_2  and  N_13
REMARK    4  A    between atoms: C_6  and  O_7
REMARK    5  A    between atoms: O_7  and  C_8
REMARK    6  A    between atoms: C_16  and  C_17
REMARK    7  A    between atoms: C_16  and  C_22
REMARK    8  A    between atoms: C_17  and  C_18
REMARK    9  A    between atoms: C_18  and  C_19
REMARK   10  A    between atoms: C_18  and  C_20
REMARK   11  A    between atoms: C_18  and  O_21
REMARK                            x       y       z     vdW  Elec       q    Type
REMARK                         _______ _______ _______ _____ _____    ______ ____
ROOT
ATOM      1  N   UNL     1       5.585   5.623  17.915  0.00  0.00    +0.000 N 
ATOM      2  C   UNL     1       4.507   5.883  16.980  0.00  0.00    +0.000 C 
ATOM      3  C   UNL     1       3.283   5.054  17.310  0.00  0.00    +0.000 C 
ATOM      4  C   UNL     1       2.896   5.295  18.778  0.00  0.00    +0.000 C 
ATOM      5  O   UNL     1       4.056   5.022  19.597  0.00  0.00    +0.000 OA
ATOM      6  C   UNL     1       5.348   5.204  19.214  0.00  0.00    +0.000 C 
ATOM      7  O   UNL     1       6.246   4.980  20.020  0.00  0.00    +0.000 OA
ENDROOT
BRANCH   4   8
ATOM      8  C   UNL     1       2.401   6.735  18.957  0.00  0.00    +0.000 A 
ATOM      9  C   UNL     1       1.968   7.190  20.218  0.00  0.00    +0.000 A 
ATOM     10  C   UNL     1       1.444   8.475  20.378  0.00  0.00    +0.000 A 
ATOM     11  C   UNL     1       1.344   9.328  19.285  0.00  0.00    +0.000 A 
ATOM     12  C   UNL     1       1.789   8.906  18.035  0.00  0.00    +0.000 A 
ATOM     13  C   UNL     1       2.317   7.625  17.872  0.00  0.00    +0.000 A 
ENDBRANCH   4   8
BRANCH   1  15
ATOM     14  C   UNL     1       7.127   5.405  16.002  0.00  0.00    +0.000 C 
ATOM     15  C   UNL     1       6.985   5.789  17.482  0.00  0.00    +0.000 C 
BRANCH  15  16
ATOM     16  C   UNL     1       7.564   7.157  17.830  0.00  0.00    +0.000 A 
ATOM     17  C   UNL     1       8.482   7.346  18.871  0.00  0.00    +0.000 A 
ATOM     18  C   UNL     1       8.975   8.614  19.169  0.00  0.00    +0.000 A 
ATOM     19  C   UNL     1       8.575   9.723  18.426  0.00  0.00    +0.000 A 
ATOM     20  C   UNL     1       7.649   9.560  17.396  0.00  0.00    +0.000 A 
ATOM     21  C   UNL     1       7.157   8.284  17.094  0.00  0.00    +0.000 A 
BRANCH  19  22
ATOM     22  O   UNL     1       9.126  10.907  18.822  0.00  0.00    +0.000 OA
BRANCH  22  23
ATOM     23  C   UNL     1       9.501  10.976  20.187  0.00  0.00    +0.000 C 
ATOM     24  F   UNL     1      10.814  11.302  20.263  0.00  0.00    +0.000 F 
ATOM     25  F   UNL     1       8.809  12.005  20.739  0.00  0.00    +0.000 F 
ENDBRANCH  22  23
ENDBRANCH  19  22
ENDBRANCH  15  16
ENDBRANCH   1  15
BRANCH   4  26
ATOM     26  C   UNL     1       1.822   4.239  19.180  0.00  0.00    +0.000 C 
BRANCH  26  27
ATOM     27  C   UNL     1       2.159   3.116  20.196  0.00  0.00    +0.000 C 
ATOM     28  C   UNL     1       3.397   2.289  19.841  0.00  0.00    +0.000 C 
ATOM     29  C   UNL     1       2.256   3.594  21.645  0.00  0.00    +0.000 C 
BRANCH  27  30
ATOM     30  O   UNL     1       1.029   2.217  20.173  0.00  0.00    +0.000 OA
ATOM     31  H   UNL     1       1.312   1.389  19.749  0.00  0.00    +0.000 HD
ENDBRANCH  27  30
ENDBRANCH  26  27
ENDBRANCH   4  26
TORSDOF 8
ENDMDL
MODEL 9
REMARK VINA RESULT:      -8.7      4.346      5.603
REMARK  Name = 
REMARK  11 active torsions:
REMARK  status: ('A' for Active; 'I' for Inactive)
REMARK    1  A    between atoms: C_1  and  C_2
REMARK    2  A    between atoms: C_2  and  C_3
REMARK    3  A    between atoms: C_2  and  N_13
REMARK    4  A    between atoms: C_6  and  O_7
REMARK    5  A    between atoms: O_7  and  C_8
REMARK    6  A    between atoms: C_16  and  C_17
REMARK    7  A    between atoms: C_16  and  C_22
REMARK    8  A    between atoms: C_17  and  C_18
REMARK    9  A    between atoms: C_18  and  C_19
REMARK   10  A    between atoms: C_18  and  C_20
REMARK   11  A    between atoms: C_18  and  O_21
REMARK                            x       y       z     vdW  Elec       q    Type
REMARK                         _______ _______ _______ _____ _____    ______ ____
ROOT
ATOM      1  N   UNL     1       5.533   5.403  17.900  0.00  0.00    +0.000 N 
ATOM      2  C   UNL     1       4.461   5.665  16.960  0.00  0.00    +0.000 C 
ATOM      3  C   UNL     1       3.242   4.820  17.268  0.00  0.00    +0.000 C 
ATOM      4  C   UNL     1       2.841   5.039  18.736  0.00  0.00    +0.000 C 
ATOM      5  O   UNL     1       3.997   4.766  19.561  0.00  0.00    +0.000 OA
ATOM      6  C   UNL     1       5.290   4.965  19.191  0.00  0.00    +0.000 C 
ATOM      7  O   UNL     1       6.184   4.738  20.001  0.00  0.00    +0.000 OA
ENDROOT
BRANCH   4   8
ATOM      8  C   UNL     1       2.331   6.471  18.931  0.00  0.00    +0.000 A 
ATOM      9  C   UNL     1       2.260   7.360  17.840  0.00  0.00    +0.000 A 
ATOM     10  C   UNL     1       1.870   8.688  18.017  0.00  0.00    +0.000 A 
ATOM     11  C   UNL     1       1.543   9.155  19.286  0.00  0.00    +0.000 A 
ATOM     12  C   UNL     1       1.583   8.287  20.374  0.00  0.00    +0.000 A 
ATOM     13  C   UNL     1       1.967   6.958  20.199  0.00  0.00    +0.000 A 
ENDBRANCH   4   8
BRANCH   1  15
ATOM     14  C   UNL     1       7.104   5.170  16.012  0.00  0.00    +0.000 C 
ATOM     15  C   UNL     1       6.935   5.588  17.479  0.00  0.00    +0.000 C 
BRANCH  15  16
ATOM     16  C   UNL     1       7.482   6.975  17.801  0.00  0.00    +0.000 A 
ATOM     17  C   UNL     1       7.125   8.116  17.070  0.00  0.00    +0.000 A 
ATOM     18  C   UNL     1       7.660   9.363  17.385  0.00  0.00    +0.000 A 
ATOM     19  C   UNL     1       8.552   9.506  18.445  0.00  0.00    +0.000 A 
ATOM     20  C   UNL     1       8.934   8.380  19.175  0.00  0.00    +0.000 A 
ATOM     21  C   UNL     1       8.392   7.128  18.862  0.00  0.00    +0.000 A 
BRANCH  19  22
ATOM     22  O   UNL     1       9.006  10.777  18.645  0.00  0.00    +0.000 OA
BRANCH  22  23
ATOM     23  C   UNL     1       9.869  10.946  19.756  0.00  0.00    +0.000 C 
ATOM     24  F   UNL     1      11.096  11.303  19.305  0.00  0.00    +0.000 F 
ATOM     25  F   UNL     1       9.395  11.997  20.474  0.00  0.00    +0.000 F 
ENDBRANCH  22  23
ENDBRANCH  19  22
ENDBRANCH  15  16
ENDBRANCH   1  15
BRANCH   4  26
ATOM     26  C   UNL     1       1.774   3.968  19.116  0.00  0.00    +0.000 C 
BRANCH  26  27
ATOM     27  C   UNL     1       2.195   2.638  19.796  0.00  0.00    +0.000 C 
ATOM     28  C   UNL     1       3.290   1.866  19.056  0.00  0.00    +0.000 C 
ATOM     29  C   UNL     1       2.573   2.784  21.269  0.00  0.00    +0.000 C 
BRANCH  27  30
ATOM     30  O   UNL     1       1.015   1.807  19.792  0.00  0.00    +0.000 OA
ATOM     31  H   UNL     1       0.805   1.586  18.869  0.00  0.00    +0.000 HD
ENDBRANCH  27  30
ENDBRANCH  26  27
ENDBRANCH   4  26
TORSDOF 8
ENDMDL
