MODEL 1
REMARK VINA RESULT:      -8.1      0.000      0.000
REMARK  Name = 
REMARK  9 active torsions:
REMARK  status: ('A' for Active; 'I' for Inactive)
REMARK    1  A    between atoms: C_1  and  C_2
REMARK    2  A    between atoms: C_2  and  C_3
REMARK    3  A    between atoms: C_3  and  N_4
REMARK    4  A    between atoms: N_4  and  C_5
REMARK    5  A    between atoms: C_5  and  C_6
REMARK    6  A    between atoms: C_6  and  C_7
REMARK    7  A    between atoms: C_8  and  C_10
REMARK    8  A    between atoms: C_10  and  C_11
REMARK    9  A    between atoms: C_12  and  C_13
REMARK                            x       y       z     vdW  Elec       q    Type
REMARK                         _______ _______ _______ _____ _____    ______ ____
ROOT
ATOM      1  C   UNL     1       3.406   5.821  19.217  0.00  0.00    +0.000 A 
ATOM      2  C   UNL     1       2.377   6.578  19.784  0.00  0.00    +0.000 A 
ATOM      3  N   UNL     1       1.749   5.742  20.688  0.00  0.00    +0.000 N 
ATOM      4  C   UNL     1       2.376   4.525  20.789  0.00  0.00    +0.000 A 
ATOM      5  C   UNL     1       2.080   3.416  21.586  0.00  0.00    +0.000 A 
ATOM      6  C   UNL     1       2.908   2.296  21.472  0.00  0.00    +0.000 A 
ATOM      7  C   UNL     1       3.981   2.288  20.586  0.00  0.00    +0.000 A 
ATOM      8  C   UNL     1       4.252   3.402  19.785  0.00  0.00    +0.000 A 
ATOM      9  C   UNL     1       3.434   4.549  19.885  0.00  0.00    +0.000 A 
ATOM     10  H   UNL     1       0.918   5.983  21.207  0.00  0.00    +0.000 HD
ENDROOT
BRANCH   2  11
ATOM     11  C   UNL     1       1.889   7.949  19.546  0.00  0.00    +0.000 A 
ATOM     12  C   UNL     1       1.271   8.697  20.558  0.00  0.00    +0.000 A 
ATOM     13  C   UNL     1       0.813   9.998  20.327  0.00  0.00    +0.000 A 
ATOM     14  C   UNL     1       0.996  10.583  19.079  0.00  0.00    +0.000 A 
ATOM     15 BR   UNL     1       0.425  12.359  18.781  0.00  0.00    +0.000 Br
ATOM     16  C   UNL     1       1.610   9.869  18.056  0.00  0.00    +0.000 A 
ATOM     17  C   UNL     1       2.041   8.556  18.286  0.00  0.00    +0.000 A 
ENDBRANCH   2  11
BRANCH   1  18
ATOM     18  C   UNL     1       4.343   6.200  18.102  0.00  0.00    +0.000 C 
BRANCH  18  20
ATOM     19  N   UNL     1       5.646   4.924  16.369  0.00  0.00    +0.000 N 
ATOM     20  C   UNL     1       4.419   5.114  17.020  0.00  0.00    +0.000 C 
ATOM     21  O   UNL     1       3.437   4.434  16.714  0.00  0.00    +0.000 OA
BRANCH  19  22
ATOM     22  C   UNL     1       5.720   3.860  15.356  0.00  0.00    +0.000 C 
BRANCH  22  24
ATOM     23  C   UNL     1       6.033   3.589  12.820  0.00  0.00    +0.000 C 
ATOM     24  C   UNL     1       6.563   4.189  14.112  0.00  0.00    +0.000 C 
ENDBRANCH  22  24
ENDBRANCH  19  22
BRANCH  19  25
ATOM     25  C   UNL     1       6.901   5.568  16.774  0.00  0.00    +0.000 C 
BRANCH  25  26
ATOM     26  C   UNL     1       7.649   4.882  17.926  0.00  0.00    +0.000 C 
ATOM     27  C   UNL     1       7.854   5.749  19.159  0.00  0.00    +0.000 C 
ENDBRANCH  25  26
ENDBRANCH  19  25
ENDBRANCH  18  20
ENDBRANCH   1  18
TORSDOF 7
ENDMDL
MODEL 2
REMARK VINA RESULT:      -7.7      0.592      1.157
REMARK  Name = 
REMARK  9 active torsions:
REMARK  status: ('A' for Active; 'I' for Inactive)
REMARK    1  A    between atoms: C_1  and  C_2
REMARK    2  A    between atoms: C_2  and  C_3
REMARK    3  A    between atoms: C_3  and  N_4
REMARK    4  A    between atoms: N_4  and  C_5
REMARK    5  A    between atoms: C_5  and  C_6
REMARK    6  A    between atoms: C_6  and  C_7
REMARK    7  A    between atoms: C_8  and  C_10
REMARK    8  A    between atoms: C_10  and  C_11
REMARK    9  A    between atoms: C_12  and  C_13
REMARK                            x       y       z     vdW  Elec       q    Type
REMARK                         _______ _______ _______ _____ _____    ______ ____
ROOT
ATOM      1  C   UNL     1       3.439   5.870  19.291  0.00  0.00    +0.000 A 
ATOM      2  C   UNL     1       2.346   6.592  19.779  0.00  0.00    +0.000 A 
ATOM      3  N   UNL     1       1.644   5.715  20.584  0.00  0.00    +0.000 N 
ATOM      4  C   UNL     1       2.277   4.502  20.703  0.00  0.00    +0.000 A 
ATOM      5  C   UNL     1       1.920   3.360  21.424  0.00  0.00    +0.000 A 
ATOM      6  C   UNL     1       2.773   2.256  21.353  0.00  0.00    +0.000 A 
ATOM      7  C   UNL     1       3.930   2.295  20.581  0.00  0.00    +0.000 A 
ATOM      8  C   UNL     1       4.263   3.442  19.853  0.00  0.00    +0.000 A 
ATOM      9  C   UNL     1       3.421   4.574  19.912  0.00  0.00    +0.000 A 
ATOM     10  H   UNL     1       0.761   5.925  21.024  0.00  0.00    +0.000 HD
ENDROOT
BRANCH   2  11
ATOM     11  C   UNL     1       1.863   7.965  19.543  0.00  0.00    +0.000 A 
ATOM     12  C   UNL     1       1.985   8.583  18.291  0.00  0.00    +0.000 A 
ATOM     13  C   UNL     1       1.522   9.885  18.071  0.00  0.00    +0.000 A 
ATOM     14  C   UNL     1       0.899  10.579  19.102  0.00  0.00    +0.000 A 
ATOM     15 BR   UNL     1       0.226  12.317  18.793  0.00  0.00    +0.000 Br
ATOM     16  C   UNL     1       0.758   9.991  20.354  0.00  0.00    +0.000 A 
ATOM     17  C   UNL     1       1.249   8.698  20.574  0.00  0.00    +0.000 A 
ENDBRANCH   2  11
BRANCH   1  18
ATOM     18  C   UNL     1       4.478   6.303  18.292  0.00  0.00    +0.000 C 
BRANCH  18  20
ATOM     19  N   UNL     1       5.980   5.000  16.751  0.00  0.00    +0.000 N 
ATOM     20  C   UNL     1       4.672   5.265  17.177  0.00  0.00    +0.000 C 
ATOM     21  O   UNL     1       3.714   4.688  16.656  0.00  0.00    +0.000 OA
BRANCH  19  22
ATOM     22  C   UNL     1       6.160   3.982  15.705  0.00  0.00    +0.000 C 
BRANCH  22  24
ATOM     23  C   UNL     1       6.047   3.619  13.164  0.00  0.00    +0.000 C 
ATOM     24  C   UNL     1       6.487   4.524  14.303  0.00  0.00    +0.000 C 
ENDBRANCH  22  24
ENDBRANCH  19  22
BRANCH  19  25
ATOM     25  C   UNL     1       7.183   5.514  17.417  0.00  0.00    +0.000 C 
BRANCH  25  26
ATOM     26  C   UNL     1       7.494   6.995  17.158  0.00  0.00    +0.000 C 
ATOM     27  C   UNL     1       8.172   7.716  18.312  0.00  0.00    +0.000 C 
ENDBRANCH  25  26
ENDBRANCH  19  25
ENDBRANCH  18  20
ENDBRANCH   1  18
TORSDOF 7
ENDMDL
MODEL 3
REMARK VINA RESULT:      -7.7      1.030      2.453
REMARK  Name = 
REMARK  9 active torsions:
REMARK  status: ('A' for Active; 'I' for Inactive)
REMARK    1  A    between atoms: C_1  and  C_2
REMARK    2  A    between atoms: C_2  and  C_3
REMARK    3  A    between atoms: C_3  and  N_4
REMARK    4  A    between atoms: N_4  and  C_5
REMARK    5  A    between atoms: C_5  and  C_6
REMARK    6  A    between atoms: C_6  and  C_7
REMARK    7  A    between atoms: C_8  and  C_10
REMARK    8  A    between atoms: C_10  and  C_11
REMARK    9  A    between atoms: C_12  and  C_13
REMARK                            x       y       z     vdW  Elec       q    Type
REMARK                         _______ _______ _______ _____ _____    ______ ____
ROOT
ATOM      1  C   UNL     1       2.910   5.819  18.798  0.00  0.00    +0.000 A 
ATOM      2  C   UNL     1       2.211   6.723  19.602  0.00  0.00    +0.000 A 
ATOM      3  N   UNL     1       1.851   6.020  20.736  0.00  0.00    +0.000 N 
ATOM      4  C   UNL     1       2.360   4.745  20.736  0.00  0.00    +0.000 A 
ATOM      5  C   UNL     1       2.250   3.726  21.686  0.00  0.00    +0.000 A 
ATOM      6  C   UNL     1       2.882   2.510  21.408  0.00  0.00    +0.000 A 
ATOM      7  C   UNL     1       3.585   2.326  20.222  0.00  0.00    +0.000 A 
ATOM      8  C   UNL     1       3.671   3.352  19.277  0.00  0.00    +0.000 A 
ATOM      9  C   UNL     1       3.046   4.592  19.535  0.00  0.00    +0.000 A 
ATOM     10  H   UNL     1       1.272   6.387  21.476  0.00  0.00    +0.000 HD
ENDROOT
BRANCH   2  11
ATOM     11  C   UNL     1       1.800   8.128  19.412  0.00  0.00    +0.000 A 
ATOM     12  C   UNL     1       1.228   8.874  20.451  0.00  0.00    +0.000 A 
ATOM     13  C   UNL     1       0.843  10.206  20.266  0.00  0.00    +0.000 A 
ATOM     14  C   UNL     1       1.055  10.822  19.038  0.00  0.00    +0.000 A 
ATOM     15 BR   UNL     1       0.585  12.636  18.803  0.00  0.00    +0.000 Br
ATOM     16  C   UNL     1       1.626  10.109  17.989  0.00  0.00    +0.000 A 
ATOM     17  C   UNL     1       1.983   8.768  18.173  0.00  0.00    +0.000 A 
ENDBRANCH   2  11
BRANCH   1  18
ATOM     18  C   UNL     1       3.445   6.021  17.406  0.00  0.00    +0.000 C 
BRANCH  18  20
ATOM     19  N   UNL     1       5.913   5.723  17.021  0.00  0.00    +0.000 N 
ATOM     20  C   UNL     1       4.875   6.579  17.414  0.00  0.00    +0.000 C 
ATOM     21  O   UNL     1       5.117   7.736  17.766  0.00  0.00    +0.000 OA
BRANCH  19  22
ATOM     22  C   UNL     1       7.277   6.274  17.000  0.00  0.00    +0.000 C 
BRANCH  22  24
ATOM     23  C   UNL     1       7.760   5.625  19.439  0.00  0.00    +0.000 C 
ATOM     24  C   UNL     1       7.839   6.700  18.367  0.00  0.00    +0.000 C 
ENDBRANCH  22  24
ENDBRANCH  19  22
BRANCH  19  25
ATOM     25  C   UNL     1       5.707   4.392  16.437  0.00  0.00    +0.000 C 
BRANCH  25  26
ATOM     26  C   UNL     1       6.606   4.055  15.239  0.00  0.00    +0.000 C 
ATOM     27  C   UNL     1       5.903   4.064  13.891  0.00  0.00    +0.000 C 
ENDBRANCH  25  26
ENDBRANCH  19  25
ENDBRANCH  18  20
ENDBRANCH   1  18
TORSDOF 7
ENDMDL
MODEL 4
REMARK VINA RESULT:      -7.5      1.673      1.690
REMARK  Name = 
REMARK  9 active torsions:
REMARK  status: ('A' for Active; 'I' for Inactive)
REMARK    1  A    between atoms: C_1  and  C_2
REMARK    2  A    between atoms: C_2  and  C_3
REMARK    3  A    between atoms: C_3  and  N_4
REMARK    4  A    between atoms: N_4  and  C_5
REMARK    5  A    between atoms: C_5  and  C_6
REMARK    6  A    between atoms: C_6  and  C_7
REMARK    7  A    between atoms: C_8  and  C_10
REMARK    8  A    between atoms: C_10  and  C_11
REMARK    9  A    between atoms: C_12  and  C_13
REMARK                            x       y       z     vdW  Elec       q    Type
REMARK                         _______ _______ _______ _____ _____    ______ ____
ROOT
ATOM      1  C   UNL     1       3.568   5.925  18.141  0.00  0.00    +0.000 A 
ATOM      2  C   UNL     1       2.364   6.555  18.468  0.00  0.00    +0.000 A 
ATOM      3  N   UNL     1       1.414   5.552  18.511  0.00  0.00    +0.000 N 
ATOM      4  C   UNL     1       1.964   4.309  18.315  0.00  0.00    +0.000 A 
ATOM      5  C   UNL     1       1.367   3.046  18.297  0.00  0.00    +0.000 A 
ATOM      6  C   UNL     1       2.193   1.942  18.067  0.00  0.00    +0.000 A 
ATOM      7  C   UNL     1       3.558   2.104  17.853  0.00  0.00    +0.000 A 
ATOM      8  C   UNL     1       4.135   3.378  17.858  0.00  0.00    +0.000 A 
ATOM      9  C   UNL     1       3.324   4.509  18.094  0.00  0.00    +0.000 A 
ATOM     10  H   UNL     1       0.427   5.705  18.654  0.00  0.00    +0.000 HD
ENDROOT
BRANCH   2  11
ATOM     11  C   UNL     1       1.995   7.966  18.689  0.00  0.00    +0.000 A 
ATOM     12  C   UNL     1       1.440   8.400  19.901  0.00  0.00    +0.000 A 
ATOM     13  C   UNL     1       1.095   9.740  20.106  0.00  0.00    +0.000 A 
ATOM     14  C   UNL     1       1.331  10.675  19.105  0.00  0.00    +0.000 A 
ATOM     15 BR   UNL     1       0.914  12.493  19.400  0.00  0.00    +0.000 Br
ATOM     16  C   UNL     1       1.885  10.276  17.894  0.00  0.00    +0.000 A 
ATOM     17  C   UNL     1       2.203   8.928  17.685  0.00  0.00    +0.000 A 
ENDBRANCH   2  11
BRANCH   1  18
ATOM     18  C   UNL     1       4.908   6.551  17.865  0.00  0.00    +0.000 C 
BRANCH  18  20
ATOM     19  N   UNL     1       6.387   5.307  16.254  0.00  0.00    +0.000 N 
ATOM     20  C   UNL     1       5.389   6.275  16.433  0.00  0.00    +0.000 C 
ATOM     21  O   UNL     1       4.930   6.888  15.467  0.00  0.00    +0.000 OA
BRANCH  19  22
ATOM     22  C   UNL     1       6.819   5.025  14.877  0.00  0.00    +0.000 C 
BRANCH  22  24
ATOM     23  C   UNL     1       6.332   3.715  12.720  0.00  0.00    +0.000 C 
ATOM     24  C   UNL     1       6.204   3.770  14.234  0.00  0.00    +0.000 C 
ENDBRANCH  22  24
ENDBRANCH  19  22
BRANCH  19  25
ATOM     25  C   UNL     1       6.873   4.420  17.317  0.00  0.00    +0.000 C 
BRANCH  25  26
ATOM     26  C   UNL     1       8.115   4.918  18.070  0.00  0.00    +0.000 C 
ATOM     27  C   UNL     1       7.818   5.738  19.316  0.00  0.00    +0.000 C 
ENDBRANCH  25  26
ENDBRANCH  19  25
ENDBRANCH  18  20
ENDBRANCH   1  18
TORSDOF 7
ENDMDL
MODEL 5
REMARK VINA RESULT:      -7.4      1.389      1.757
REMARK  Name = 
REMARK  9 active torsions:
REMARK  status: ('A' for Active; 'I' for Inactive)
REMARK    1  A    between atoms: C_1  and  C_2
REMARK    2  A    between atoms: C_2  and  C_3
REMARK    3  A    between atoms: C_3  and  N_4
REMARK    4  A    between atoms: N_4  and  C_5
REMARK    5  A    between atoms: C_5  and  C_6
REMARK    6  A    between atoms: C_6  and  C_7
REMARK    7  A    between atoms: C_8  and  C_10
REMARK    8  A    between atoms: C_10  and  C_11
REMARK    9  A    between atoms: C_12  and  C_13
REMARK                            x       y       z     vdW  Elec       q    Type
REMARK                         _______ _______ _______ _____ _____    ______ ____
ROOT
ATOM      1  C   UNL     1       3.529   5.708  18.631  0.00  0.00    +0.000 A 
ATOM      2  C   UNL     1       2.305   6.326  18.904  0.00  0.00    +0.000 A 
ATOM      3  N   UNL     1       1.372   5.308  18.954  0.00  0.00    +0.000 N 
ATOM      4  C   UNL     1       1.949   4.070  18.814  0.00  0.00    +0.000 A 
ATOM      5  C   UNL     1       1.374   2.796  18.821  0.00  0.00    +0.000 A 
ATOM      6  C   UNL     1       2.225   1.701  18.651  0.00  0.00    +0.000 A 
ATOM      7  C   UNL     1       3.593   1.880  18.470  0.00  0.00    +0.000 A 
ATOM      8  C   UNL     1       4.147   3.163  18.449  0.00  0.00    +0.000 A 
ATOM      9  C   UNL     1       3.310   4.287  18.624  0.00  0.00    +0.000 A 
ATOM     10  H   UNL     1       0.379   5.448  19.064  0.00  0.00    +0.000 HD
ENDROOT
BRANCH   2  11
ATOM     11  C   UNL     1       1.906   7.736  19.069  0.00  0.00    +0.000 A 
ATOM     12  C   UNL     1       1.962   8.646  18.004  0.00  0.00    +0.000 A 
ATOM     13  C   UNL     1       1.579   9.982  18.164  0.00  0.00    +0.000 A 
ATOM     14  C   UNL     1       1.105  10.421  19.395  0.00  0.00    +0.000 A 
ATOM     15 BR   UNL     1       0.539  12.211  19.600  0.00  0.00    +0.000 Br
ATOM     16  C   UNL     1       1.033   9.541  20.470  0.00  0.00    +0.000 A 
ATOM     17  C   UNL     1       1.444   8.212  20.309  0.00  0.00    +0.000 A 
ENDBRANCH   2  11
BRANCH   1  18
ATOM     18  C   UNL     1       4.865   6.349  18.372  0.00  0.00    +0.000 C 
BRANCH  18  20
ATOM     19  N   UNL     1       6.604   5.410  16.815  0.00  0.00    +0.000 N 
ATOM     20  C   UNL     1       5.373   6.067  16.951  0.00  0.00    +0.000 C 
ATOM     21  O   UNL     1       4.735   6.414  15.955  0.00  0.00    +0.000 OA
BRANCH  19  22
ATOM     22  C   UNL     1       7.069   5.115  15.451  0.00  0.00    +0.000 C 
BRANCH  22  24
ATOM     23  C   UNL     1       5.733   4.020  13.548  0.00  0.00    +0.000 C 
ATOM     24  C   UNL     1       6.521   3.817  14.832  0.00  0.00    +0.000 C 
ENDBRANCH  22  24
ENDBRANCH  19  22
BRANCH  19  25
ATOM     25  C   UNL     1       7.350   4.820  17.932  0.00  0.00    +0.000 C 
BRANCH  25  26
ATOM     26  C   UNL     1       7.956   5.826  18.921  0.00  0.00    +0.000 C 
ATOM     27  C   UNL     1       8.155   7.227  18.364  0.00  0.00    +0.000 C 
ENDBRANCH  25  26
ENDBRANCH  19  25
ENDBRANCH  18  20
ENDBRANCH   1  18
TORSDOF 7
ENDMDL
MODEL 6
REMARK VINA RESULT:      -7.3      1.262      2.507
REMARK  Name = 
REMARK  9 active torsions:
REMARK  status: ('A' for Active; 'I' for Inactive)
REMARK    1  A    between atoms: C_1  and  C_2
REMARK    2  A    between atoms: C_2  and  C_3
REMARK    3  A    between atoms: C_3  and  N_4
REMARK    4  A    between atoms: N_4  and  C_5
REMARK    5  A    between atoms: C_5  and  C_6
REMARK    6  A    between atoms: C_6  and  C_7
REMARK    7  A    between atoms: C_8  and  C_10
REMARK    8  A    between atoms: C_10  and  C_11
REMARK    9  A    between atoms: C_12  and  C_13
REMARK                            x       y       z     vdW  Elec       q    Type
REMARK                         _______ _______ _______ _____ _____    ______ ____
ROOT
ATOM      1  C   UNL     1       2.976   5.521  19.106  0.00  0.00    +0.000 A 
ATOM      2  C   UNL     1       2.172   6.427  19.804  0.00  0.00    +0.000 A 
ATOM      3  N   UNL     1       1.642   5.720  20.866  0.00  0.00    +0.000 N 
ATOM      4  C   UNL     1       2.132   4.439  20.931  0.00  0.00    +0.000 A 
ATOM      5  C   UNL     1       1.872   3.414  21.845  0.00  0.00    +0.000 A 
ATOM      6  C   UNL     1       2.527   2.194  21.654  0.00  0.00    +0.000 A 
ATOM      7  C   UNL     1       3.398   2.011  20.585  0.00  0.00    +0.000 A 
ATOM      8  C   UNL     1       3.633   3.043  19.671  0.00  0.00    +0.000 A 
ATOM      9  C   UNL     1       2.988   4.287  19.844  0.00  0.00    +0.000 A 
ATOM     10  H   UNL     1       0.962   6.087  21.515  0.00  0.00    +0.000 HD
ENDROOT
BRANCH   2  11
ATOM     11  C   UNL     1       1.808   7.837  19.567  0.00  0.00    +0.000 A 
ATOM     12  C   UNL     1       1.240   8.629  20.574  0.00  0.00    +0.000 A 
ATOM     13  C   UNL     1       0.899   9.966  20.345  0.00  0.00    +0.000 A 
ATOM     14  C   UNL     1       1.152  10.540  19.104  0.00  0.00    +0.000 A 
ATOM     15 BR   UNL     1       0.741  12.360  18.809  0.00  0.00    +0.000 Br
ATOM     16  C   UNL     1       1.720   9.781  18.086  0.00  0.00    +0.000 A 
ATOM     17  C   UNL     1       2.033   8.435  18.314  0.00  0.00    +0.000 A 
ENDBRANCH   2  11
BRANCH   1  18
ATOM     18  C   UNL     1       3.714   5.727  17.811  0.00  0.00    +0.000 C 
BRANCH  18  20
ATOM     19  N   UNL     1       6.014   6.202  16.909  0.00  0.00    +0.000 N 
ATOM     20  C   UNL     1       5.202   6.029  18.038  0.00  0.00    +0.000 C 
ATOM     21  O   UNL     1       5.681   6.106  19.172  0.00  0.00    +0.000 OA
BRANCH  19  22
ATOM     22  C   UNL     1       7.432   6.523  17.135  0.00  0.00    +0.000 C 
BRANCH  22  24
ATOM     23  C   UNL     1       8.476   8.413  18.528  0.00  0.00    +0.000 C 
ATOM     24  C   UNL     1       7.761   8.021  17.245  0.00  0.00    +0.000 C 
ENDBRANCH  22  24
ENDBRANCH  19  22
BRANCH  19  25
ATOM     25  C   UNL     1       5.506   6.288  15.535  0.00  0.00    +0.000 C 
BRANCH  25  26
ATOM     26  C   UNL     1       5.948   5.154  14.600  0.00  0.00    +0.000 C 
ATOM     27  C   UNL     1       5.927   3.767  15.224  0.00  0.00    +0.000 C 
ENDBRANCH  25  26
ENDBRANCH  19  25
ENDBRANCH  18  20
ENDBRANCH   1  18
TORSDOF 7
ENDMDL
MODEL 7
REMARK VINA RESULT:      -7.3      1.190      2.630
REMARK  Name = 
REMARK  9 active torsions:
REMARK  status: ('A' for Active; 'I' for Inactive)
REMARK    1  A    between atoms: C_1  and  C_2
REMARK    2  A    between atoms: C_2  and  C_3
REMARK    3  A    between atoms: C_3  and  N_4
REMARK    4  A    between atoms: N_4  and  C_5
REMARK    5  A    between atoms: C_5  and  C_6
REMARK    6  A    between atoms: C_6  and  C_7
REMARK    7  A    between atoms: C_8  and  C_10
REMARK    8  A    between atoms: C_10  and  C_11
REMARK    9  A    between atoms: C_12  and  C_13
REMARK                            x       y       z     vdW  Elec       q    Type
REMARK                         _______ _______ _______ _____ _____    ______ ____
ROOT
ATOM      1  C   UNL     1       2.880   5.583  19.113  0.00  0.00    +0.000 A 
ATOM      2  C   UNL     1       2.063   6.493  19.788  0.00  0.00    +0.000 A 
ATOM      3  N   UNL     1       1.457   5.776  20.802  0.00  0.00    +0.000 N 
ATOM      4  C   UNL     1       1.910   4.481  20.862  0.00  0.00    +0.000 A 
ATOM      5  C   UNL     1       1.574   3.443  21.734  0.00  0.00    +0.000 A 
ATOM      6  C   UNL     1       2.207   2.211  21.549  0.00  0.00    +0.000 A 
ATOM      7  C   UNL     1       3.130   2.029  20.524  0.00  0.00    +0.000 A 
ATOM      8  C   UNL     1       3.441   3.075  19.651  0.00  0.00    +0.000 A 
ATOM      9  C   UNL     1       2.820   4.332  19.819  0.00  0.00    +0.000 A 
ATOM     10  H   UNL     1       0.752   6.147  21.422  0.00  0.00    +0.000 HD
ENDROOT
BRANCH   2  11
ATOM     11  C   UNL     1       1.749   7.918  19.567  0.00  0.00    +0.000 A 
ATOM     12  C   UNL     1       2.010   8.547  18.342  0.00  0.00    +0.000 A 
ATOM     13  C   UNL     1       1.707   9.897  18.137  0.00  0.00    +0.000 A 
ATOM     14  C   UNL     1       1.107  10.632  19.153  0.00  0.00    +0.000 A 
ATOM     15 BR   UNL     1       0.649  12.442  18.860  0.00  0.00    +0.000 Br
ATOM     16  C   UNL     1       0.831  10.035  20.378  0.00  0.00    +0.000 A 
ATOM     17  C   UNL     1       1.162   8.690  20.586  0.00  0.00    +0.000 A 
ENDBRANCH   2  11
BRANCH   1  18
ATOM     18  C   UNL     1       3.693   5.799  17.865  0.00  0.00    +0.000 C 
BRANCH  18  20
ATOM     19  N   UNL     1       6.077   5.804  17.061  0.00  0.00    +0.000 N 
ATOM     20  C   UNL     1       5.201   5.808  18.155  0.00  0.00    +0.000 C 
ATOM     21  O   UNL     1       5.638   5.804  19.308  0.00  0.00    +0.000 OA
BRANCH  19  22
ATOM     22  C   UNL     1       7.519   5.845  17.346  0.00  0.00    +0.000 C 
BRANCH  22  24
ATOM     23  C   UNL     1       7.778   8.390  17.593  0.00  0.00    +0.000 C 
ATOM     24  C   UNL     1       7.987   7.021  18.220  0.00  0.00    +0.000 C 
ENDBRANCH  22  24
ENDBRANCH  19  22
BRANCH  19  25
ATOM     25  C   UNL     1       5.653   5.971  15.666  0.00  0.00    +0.000 C 
BRANCH  25  26
ATOM     26  C   UNL     1       5.489   4.668  14.870  0.00  0.00    +0.000 C 
ATOM     27  C   UNL     1       6.615   4.373  13.891  0.00  0.00    +0.000 C 
ENDBRANCH  25  26
ENDBRANCH  19  25
ENDBRANCH  18  20
ENDBRANCH   1  18
TORSDOF 7
ENDMDL
MODEL 8
REMARK VINA RESULT:      -7.1      1.263      1.426
REMARK  Name = 
REMARK  9 active torsions:
REMARK  status: ('A' for Active; 'I' for Inactive)
REMARK    1  A    between atoms: C_1  and  C_2
REMARK    2  A    between atoms: C_2  and  C_3
REMARK    3  A    between atoms: C_3  and  N_4
REMARK    4  A    between atoms: N_4  and  C_5
REMARK    5  A    between atoms: C_5  and  C_6
REMARK    6  A    between atoms: C_6  and  C_7
REMARK    7  A    between atoms: C_8  and  C_10
REMARK    8  A    between atoms: C_10  and  C_11
REMARK    9  A    between atoms: C_12  and  C_13
REMARK                            x       y       z     vdW  Elec       q    Type
REMARK                         _______ _______ _______ _____ _____    ______ ____
ROOT
ATOM      1  C   UNL     1       3.367   5.709  19.300  0.00  0.00    +0.000 A 
ATOM      2  C   UNL     1       2.147   6.266  19.693  0.00  0.00    +0.000 A 
ATOM      3  N   UNL     1       1.258   5.210  19.768  0.00  0.00    +0.000 N 
ATOM      4  C   UNL     1       1.867   4.003  19.530  0.00  0.00    +0.000 A 
ATOM      5  C   UNL     1       1.341   2.708  19.525  0.00  0.00    +0.000 A 
ATOM      6  C   UNL     1       2.216   1.655  19.242  0.00  0.00    +0.000 A 
ATOM      7  C   UNL     1       3.558   1.896  18.965  0.00  0.00    +0.000 A 
ATOM      8  C   UNL     1       4.062   3.200  18.958  0.00  0.00    +0.000 A 
ATOM      9  C   UNL     1       3.201   4.282  19.247  0.00  0.00    +0.000 A 
ATOM     10  H   UNL     1       0.272   5.306  19.961  0.00  0.00    +0.000 HD
ENDROOT
BRANCH   2  11
ATOM     11  C   UNL     1       1.711   7.651  19.949  0.00  0.00    +0.000 A 
ATOM     12  C   UNL     1       1.269   8.061  21.215  0.00  0.00    +0.000 A 
ATOM     13  C   UNL     1       0.860   9.378  21.454  0.00  0.00    +0.000 A 
ATOM     14  C   UNL     1       0.915  10.314  20.428  0.00  0.00    +0.000 A 
ATOM     15 BR   UNL     1       0.412  12.104  20.762  0.00  0.00    +0.000 Br
ATOM     16  C   UNL     1       1.353   9.939  19.163  0.00  0.00    +0.000 A 
ATOM     17  C   UNL     1       1.736   8.613  18.924  0.00  0.00    +0.000 A 
ENDBRANCH   2  11
BRANCH   1  18
ATOM     18  C   UNL     1       4.655   6.412  18.968  0.00  0.00    +0.000 C 
BRANCH  18  20
ATOM     19  N   UNL     1       6.203   5.676  17.126  0.00  0.00    +0.000 N 
ATOM     20  C   UNL     1       5.001   6.307  17.476  0.00  0.00    +0.000 C 
ATOM     21  O   UNL     1       4.260   6.770  16.605  0.00  0.00    +0.000 OA
BRANCH  19  22
ATOM     22  C   UNL     1       6.512   5.550  15.694  0.00  0.00    +0.000 C 
BRANCH  22  24
ATOM     23  C   UNL     1       5.824   3.918  13.832  0.00  0.00    +0.000 C 
ATOM     24  C   UNL     1       6.554   4.111  15.151  0.00  0.00    +0.000 C 
ENDBRANCH  22  24
ENDBRANCH  19  22
BRANCH  19  25
ATOM     25  C   UNL     1       7.061   4.957  18.075  0.00  0.00    +0.000 C 
BRANCH  25  26
ATOM     26  C   UNL     1       7.829   5.844  19.066  0.00  0.00    +0.000 C 
ATOM     27  C   UNL     1       8.208   7.217  18.533  0.00  0.00    +0.000 C 
ENDBRANCH  25  26
ENDBRANCH  19  25
ENDBRANCH  18  20
ENDBRANCH   1  18
TORSDOF 7
ENDMDL
MODEL 9
REMARK VINA RESULT:      -7.0      1.355      1.781
REMARK  Name = 
REMARK  9 active torsions:
REMARK  status: ('A' for Active; 'I' for Inactive)
REMARK    1  A    between atoms: C_1  and  C_2
REMARK    2  A    between atoms: C_2  and  C_3
REMARK    3  A    between atoms: C_3  and  N_4
REMARK    4  A    between atoms: N_4  and  C_5
REMARK    5  A    between atoms: C_5  and  C_6
REMARK    6  A    between atoms: C_6  and  C_7
REMARK    7  A    between atoms: C_8  and  C_10
REMARK    8  A    between atoms: C_10  and  C_11
REMARK    9  A    between atoms: C_12  and  C_13
REMARK                            x       y       z     vdW  Elec       q    Type
REMARK                         _______ _______ _______ _____ _____    ______ ____
ROOT
ATOM      1  C   UNL     1       3.047   5.996  19.660  0.00  0.00    +0.000 A 
ATOM      2  C   UNL     1       1.899   6.589  20.190  0.00  0.00    +0.000 A 
ATOM      3  N   UNL     1       1.028   5.551  20.461  0.00  0.00    +0.000 N 
ATOM      4  C   UNL     1       1.594   4.324  20.214  0.00  0.00    +0.000 A 
ATOM      5  C   UNL     1       1.071   3.038  20.367  0.00  0.00    +0.000 A 
ATOM      6  C   UNL     1       1.893   1.960  20.027  0.00  0.00    +0.000 A 
ATOM      7  C   UNL     1       3.181   2.168  19.543  0.00  0.00    +0.000 A 
ATOM      8  C   UNL     1       3.680   3.464  19.380  0.00  0.00    +0.000 A 
ATOM      9  C   UNL     1       2.873   4.570  19.722  0.00  0.00    +0.000 A 
ATOM     10  H   UNL     1       0.081   5.669  20.788  0.00  0.00    +0.000 HD
ENDROOT
BRANCH   2  11
ATOM     11  C   UNL     1       1.507   7.993  20.420  0.00  0.00    +0.000 A 
ATOM     12  C   UNL     1       1.387   8.906  19.362  0.00  0.00    +0.000 A 
ATOM     13  C   UNL     1       1.012  10.235  19.585  0.00  0.00    +0.000 A 
ATOM     14  C   UNL     1       0.722  10.663  20.875  0.00  0.00    +0.000 A 
ATOM     15 BR   UNL     1       0.165  12.444  21.171  0.00  0.00    +0.000 Br
ATOM     16  C   UNL     1       0.827   9.780  21.944  0.00  0.00    +0.000 A 
ATOM     17  C   UNL     1       1.230   8.458  21.717  0.00  0.00    +0.000 A 
ENDBRANCH   2  11
BRANCH   1  18
ATOM     18  C   UNL     1       4.274   6.663  19.101  0.00  0.00    +0.000 C 
BRANCH  18  20
ATOM     19  N   UNL     1       5.325   6.048  16.899  0.00  0.00    +0.000 N 
ATOM     20  C   UNL     1       4.269   6.684  17.566  0.00  0.00    +0.000 C 
ATOM     21  O   UNL     1       3.378   7.252  16.929  0.00  0.00    +0.000 OA
BRANCH  19  22
ATOM     22  C   UNL     1       5.296   6.044  15.429  0.00  0.00    +0.000 C 
BRANCH  22  24
ATOM     23  C   UNL     1       7.056   4.789  14.039  0.00  0.00    +0.000 C 
ATOM     24  C   UNL     1       5.720   4.724  14.762  0.00  0.00    +0.000 C 
ENDBRANCH  22  24
ENDBRANCH  19  22
BRANCH  19  25
ATOM     25  C   UNL     1       6.335   5.215  17.563  0.00  0.00    +0.000 C 
BRANCH  25  26
ATOM     26  C   UNL     1       7.527   5.979  18.158  0.00  0.00    +0.000 C 
ATOM     27  C   UNL     1       7.704   7.395  17.632  0.00  0.00    +0.000 C 
ENDBRANCH  25  26
ENDBRANCH  19  25
ENDBRANCH  18  20
ENDBRANCH   1  18
TORSDOF 7
ENDMDL
