MODEL 1
REMARK VINA RESULT:      -6.3      0.000      0.000
REMARK  Name = 
REMARK  4 active torsions:
REMARK  status: ('A' for Active; 'I' for Inactive)
REMARK    1  A    between atoms: C_5  and  C_6
REMARK    2  A    between atoms: C_6  and  N_7
REMARK    3  A    between atoms: N_13  and  C_14
REMARK    4  A    between atoms: C_14  and  C_15
REMARK                            x       y       z     vdW  Elec       q    Type
REMARK                         _______ _______ _______ _____ _____    ______ ____
ROOT
ATOM      1  N   UNL     1       3.475   5.070  17.415  0.00  0.00    +0.000 NA
ATOM      2  C   UNL     1       4.513   5.822  18.108  0.00  0.00    +0.000 C 
ATOM      3  C   UNL     1       3.937   7.199  18.374  0.00  0.00    +0.000 C 
ATOM      4  C   UNL     1       2.410   7.029  18.424  0.00  0.00    +0.000 C 
ATOM      5  C   UNL     1       1.726   8.209  17.695  0.00  0.00    +0.000 C 
ATOM      6  C   UNL     1       1.868   9.515  18.487  0.00  0.00    +0.000 C 
ATOM      7  N   UNL     1       1.299   9.446  19.843  0.00  0.00    +0.000 NA
ATOM      8  C   UNL     1       1.929   8.348  20.592  0.00  0.00    +0.000 C 
ATOM      9  C   UNL     1       1.870   6.985  19.878  0.00  0.00    +0.000 C 
ATOM     10  C   UNL     1       2.169   5.682  17.702  0.00  0.00    +0.000 C 
ENDROOT
BRANCH   1  11
ATOM     11  C   UNL     1       3.531   3.628  17.710  0.00  0.00    +0.000 C 
BRANCH  11  16
ATOM     12  F   UNL     1       0.802   2.328  22.507  0.00  0.00    +0.000 F 
ATOM     13  C   UNL     1       1.450   2.615  21.372  0.00  0.00    +0.000 A 
ATOM     14  C   UNL     1       2.842   2.724  21.381  0.00  0.00    +0.000 A 
ATOM     15  C   UNL     1       3.522   3.041  20.196  0.00  0.00    +0.000 A 
ATOM     16  C   UNL     1       2.818   3.238  18.997  0.00  0.00    +0.000 A 
ATOM     17  C   UNL     1       1.419   3.130  19.018  0.00  0.00    +0.000 A 
ATOM     18  C   UNL     1       0.737   2.821  20.205  0.00  0.00    +0.000 A 
ENDBRANCH  11  16
ENDBRANCH   1  11
BRANCH   7  19
ATOM     19  C   UNL     1      -0.178   9.329  19.860  0.00  0.00    +0.000 C 
BRANCH  19  20
ATOM     20  C   UNL     1      -0.890  10.419  19.095  0.00  0.00    +0.000 A 
ATOM     21  N   UNL     1      -0.852  11.696  19.424  0.00  0.00    +0.000 NA
ATOM     22  C   UNL     1      -1.640  12.424  18.557  0.00  0.00    +0.000 A 
ATOM     23  C   UNL     1      -2.233  11.701  17.546  0.00  0.00    +0.000 A 
ATOM     24  S   UNL     1      -1.814  10.047  17.691  0.00  0.00    +0.000 S 
ENDBRANCH  19  20
ENDBRANCH   7  19
TORSDOF 4
ENDMDL
MODEL 2
REMARK VINA RESULT:      -6.3      2.932      4.176
REMARK  Name = 
REMARK  4 active torsions:
REMARK  status: ('A' for Active; 'I' for Inactive)
REMARK    1  A    between atoms: C_5  and  C_6
REMARK    2  A    between atoms: C_6  and  N_7
REMARK    3  A    between atoms: N_13  and  C_14
REMARK    4  A    between atoms: C_14  and  C_15
REMARK                            x       y       z     vdW  Elec       q    Type
REMARK                         _______ _______ _______ _____ _____    ______ ____
ROOT
ATOM      1  N   UNL     1       1.460   8.227  19.028  0.00  0.00    +0.000 NA
ATOM      2  C   UNL     1       1.869   9.311  18.143  0.00  0.00    +0.000 C 
ATOM      3  C   UNL     1       0.982  10.495  18.481  0.00  0.00    +0.000 C 
ATOM      4  C   UNL     1       0.541  10.304  19.941  0.00  0.00    +0.000 C 
ATOM      5  C   UNL     1      -0.949  10.686  20.093  0.00  0.00    +0.000 C 
ATOM      6  C   UNL     1      -1.156  12.200  19.955  0.00  0.00    +0.000 C 
ATOM      7  N   UNL     1      -0.396  12.990  20.937  0.00  0.00    +0.000 NA
ATOM      8  C   UNL     1       1.037  12.679  20.824  0.00  0.00    +0.000 C 
ATOM      9  C   UNL     1       1.365  11.178  20.924  0.00  0.00    +0.000 C 
ATOM     10  C   UNL     1       0.784   8.798  20.202  0.00  0.00    +0.000 C 
ENDROOT
BRANCH   1  11
ATOM     11  C   UNL     1       2.575   7.326  19.367  0.00  0.00    +0.000 C 
BRANCH  11  16
ATOM     12  F   UNL     1       1.083   1.866  19.026  0.00  0.00    +0.000 F 
ATOM     13  C   UNL     1       1.454   3.149  19.113  0.00  0.00    +0.000 A 
ATOM     14  C   UNL     1       1.427   3.793  20.352  0.00  0.00    +0.000 A 
ATOM     15  C   UNL     1       1.800   5.142  20.442  0.00  0.00    +0.000 A 
ATOM     16  C   UNL     1       2.211   5.849  19.300  0.00  0.00    +0.000 A 
ATOM     17  C   UNL     1       2.220   5.180  18.067  0.00  0.00    +0.000 A 
ATOM     18  C   UNL     1       1.840   3.833  17.974  0.00  0.00    +0.000 A 
ENDBRANCH  11  16
ENDBRANCH   1  11
BRANCH   7  19
ATOM     19  C   UNL     1      -0.874  12.821  22.330  0.00  0.00    +0.000 C 
BRANCH  19  20
ATOM     20  C   UNL     1      -2.324  13.190  22.532  0.00  0.00    +0.000 A 
ATOM     21  N   UNL     1      -3.250  12.343  22.943  0.00  0.00    +0.000 NA
ATOM     22  C   UNL     1      -4.475  12.975  22.980  0.00  0.00    +0.000 A 
ATOM     23  C   UNL     1      -4.464  14.309  22.641  0.00  0.00    +0.000 A 
ATOM     24  S   UNL     1      -2.871  14.795  22.240  0.00  0.00    +0.000 S 
ENDBRANCH  19  20
ENDBRANCH   7  19
TORSDOF 4
ENDMDL
MODEL 3
REMARK VINA RESULT:      -6.3      3.514      7.472
REMARK  Name = 
REMARK  4 active torsions:
REMARK  status: ('A' for Active; 'I' for Inactive)
REMARK    1  A    between atoms: C_5  and  C_6
REMARK    2  A    between atoms: C_6  and  N_7
REMARK    3  A    between atoms: N_13  and  C_14
REMARK    4  A    between atoms: C_14  and  C_15
REMARK                            x       y       z     vdW  Elec       q    Type
REMARK                         _______ _______ _______ _____ _____    ______ ____
ROOT
ATOM      1  N   UNL     1       1.466   7.250  20.489  0.00  0.00    +0.000 NA
ATOM      2  C   UNL     1       1.306   5.951  21.130  0.00  0.00    +0.000 C 
ATOM      3  C   UNL     1       1.727   4.914  20.106  0.00  0.00    +0.000 C 
ATOM      4  C   UNL     1       2.710   5.616  19.156  0.00  0.00    +0.000 C 
ATOM      5  C   UNL     1       2.432   5.184  17.698  0.00  0.00    +0.000 C 
ATOM      6  C   UNL     1       2.838   3.724  17.460  0.00  0.00    +0.000 C 
ATOM      7  N   UNL     1       4.259   3.455  17.736  0.00  0.00    +0.000 NA
ATOM      8  C   UNL     1       4.577   3.832  19.121  0.00  0.00    +0.000 C 
ATOM      9  C   UNL     1       4.188   5.277  19.485  0.00  0.00    +0.000 C 
ATOM     10  C   UNL     1       2.424   7.121  19.381  0.00  0.00    +0.000 C 
ENDROOT
BRANCH   1  11
ATOM     11  C   UNL     1       1.811   8.313  21.448  0.00  0.00    +0.000 C 
BRANCH  11  16
ATOM     12  F   UNL     1      -2.237  12.201  22.257  0.00  0.00    +0.000 F 
ATOM     13  C   UNL     1      -1.296  11.269  22.062  0.00  0.00    +0.000 A 
ATOM     14  C   UNL     1      -0.954  10.406  23.106  0.00  0.00    +0.000 A 
ATOM     15  C   UNL     1       0.043   9.440  22.909  0.00  0.00    +0.000 A 
ATOM     16  C   UNL     1       0.694   9.324  21.670  0.00  0.00    +0.000 A 
ATOM     17  C   UNL     1       0.336  10.209  20.642  0.00  0.00    +0.000 A 
ATOM     18  C   UNL     1      -0.656  11.181  20.839  0.00  0.00    +0.000 A 
ENDBRANCH  11  16
ENDBRANCH   1  11
BRANCH   7  19
ATOM     19  C   UNL     1       5.181   4.108  16.776  0.00  0.00    +0.000 C 
BRANCH  19  20
ATOM     20  C   UNL     1       6.252   4.950  17.428  0.00  0.00    +0.000 A 
ATOM     21  N   UNL     1       7.222   4.460  18.176  0.00  0.00    +0.000 NA
ATOM     22  C   UNL     1       8.004   5.491  18.658  0.00  0.00    +0.000 A 
ATOM     23  C   UNL     1       7.650   6.751  18.233  0.00  0.00    +0.000 A 
ATOM     24  S   UNL     1       6.278   6.657  17.212  0.00  0.00    +0.000 S 
ENDBRANCH  19  20
ENDBRANCH   7  19
TORSDOF 4
ENDMDL
MODEL 4
REMARK VINA RESULT:      -6.2      2.874      4.179
REMARK  Name = 
REMARK  4 active torsions:
REMARK  status: ('A' for Active; 'I' for Inactive)
REMARK    1  A    between atoms: C_5  and  C_6
REMARK    2  A    between atoms: C_6  and  N_7
REMARK    3  A    between atoms: N_13  and  C_14
REMARK    4  A    between atoms: C_14  and  C_15
REMARK                            x       y       z     vdW  Elec       q    Type
REMARK                         _______ _______ _______ _____ _____    ______ ____
ROOT
ATOM      1  N   UNL     1       1.468   8.272  18.961  0.00  0.00    +0.000 NA
ATOM      2  C   UNL     1       1.978   9.397  18.187  0.00  0.00    +0.000 C 
ATOM      3  C   UNL     1       1.076  10.576  18.504  0.00  0.00    +0.000 C 
ATOM      4  C   UNL     1       0.486  10.310  19.897  0.00  0.00    +0.000 C 
ATOM      5  C   UNL     1      -1.007  10.710  19.921  0.00  0.00    +0.000 C 
ATOM      6  C   UNL     1      -1.180  12.232  19.851  0.00  0.00    +0.000 C 
ATOM      7  N   UNL     1      -0.514  12.951  20.950  0.00  0.00    +0.000 NA
ATOM      8  C   UNL     1       0.919  12.621  20.964  0.00  0.00    +0.000 C 
ATOM      9  C   UNL     1       1.217  11.111  21.008  0.00  0.00    +0.000 C 
ATOM     10  C   UNL     1       0.683   8.787  20.093  0.00  0.00    +0.000 C 
ENDROOT
BRANCH   1  11
ATOM     11  C   UNL     1       2.532   7.333  19.357  0.00  0.00    +0.000 C 
BRANCH  11  16
ATOM     12  F   UNL     1       1.130   1.843  19.133  0.00  0.00    +0.000 F 
ATOM     13  C   UNL     1       1.442   3.144  19.179  0.00  0.00    +0.000 A 
ATOM     14  C   UNL     1       1.840   3.800  18.012  0.00  0.00    +0.000 A 
ATOM     15  C   UNL     1       2.183   5.159  18.062  0.00  0.00    +0.000 A 
ATOM     16  C   UNL     1       2.120   5.870  19.271  0.00  0.00    +0.000 A 
ATOM     17  C   UNL     1       1.725   5.184  20.430  0.00  0.00    +0.000 A 
ATOM     18  C   UNL     1       1.388   3.823  20.383  0.00  0.00    +0.000 A 
ENDBRANCH  11  16
ENDBRANCH   1  11
BRANCH   7  19
ATOM     19  C   UNL     1      -1.133  12.712  22.275  0.00  0.00    +0.000 C 
BRANCH  19  20
ATOM     20  C   UNL     1      -2.576  13.149  22.369  0.00  0.00    +0.000 A 
ATOM     21  N   UNL     1      -3.570  12.346  22.699  0.00  0.00    +0.000 NA
ATOM     22  C   UNL     1      -4.763  13.038  22.648  0.00  0.00    +0.000 A 
ATOM     23  C   UNL     1      -4.661  14.372  22.325  0.00  0.00    +0.000 A 
ATOM     24  S   UNL     1      -3.020  14.781  22.053  0.00  0.00    +0.000 S 
ENDBRANCH  19  20
ENDBRANCH   7  19
TORSDOF 4
ENDMDL
MODEL 5
REMARK VINA RESULT:      -6.2      3.182      4.375
REMARK  Name = 
REMARK  4 active torsions:
REMARK  status: ('A' for Active; 'I' for Inactive)
REMARK    1  A    between atoms: C_5  and  C_6
REMARK    2  A    between atoms: C_6  and  N_7
REMARK    3  A    between atoms: N_13  and  C_14
REMARK    4  A    between atoms: C_14  and  C_15
REMARK                            x       y       z     vdW  Elec       q    Type
REMARK                         _______ _______ _______ _____ _____    ______ ____
ROOT
ATOM      1  N   UNL     1       1.896   7.957  18.680  0.00  0.00    +0.000 NA
ATOM      2  C   UNL     1       1.964   9.125  17.812  0.00  0.00    +0.000 C 
ATOM      3  C   UNL     1       0.941  10.111  18.342  0.00  0.00    +0.000 C 
ATOM      4  C   UNL     1       0.768   9.796  19.836  0.00  0.00    +0.000 C 
ATOM      5  C   UNL     1      -0.726   9.889  20.223  0.00  0.00    +0.000 C 
ATOM      6  C   UNL     1      -1.220  11.341  20.205  0.00  0.00    +0.000 C 
ATOM      7  N   UNL     1      -0.474  12.228  21.113  0.00  0.00    +0.000 NA
ATOM      8  C   UNL     1       0.958  12.193  20.778  0.00  0.00    +0.000 C 
ATOM      9  C   UNL     1       1.561  10.777  20.740  0.00  0.00    +0.000 C 
ATOM     10  C   UNL     1       1.315   8.354  19.971  0.00  0.00    +0.000 C 
ENDROOT
BRANCH   1  11
ATOM     11  C   UNL     1       3.193   7.269  18.802  0.00  0.00    +0.000 C 
BRANCH  11  16
ATOM     12  F   UNL     1       3.057   1.744  17.536  0.00  0.00    +0.000 F 
ATOM     13  C   UNL     1       3.081   3.043  17.853  0.00  0.00    +0.000 A 
ATOM     14  C   UNL     1       1.930   3.816  17.683  0.00  0.00    +0.000 A 
ATOM     15  C   UNL     1       1.958   5.182  17.999  0.00  0.00    +0.000 A 
ATOM     16  C   UNL     1       3.127   5.779  18.496  0.00  0.00    +0.000 A 
ATOM     17  C   UNL     1       4.271   4.981  18.650  0.00  0.00    +0.000 A 
ATOM     18  C   UNL     1       4.248   3.616  18.327  0.00  0.00    +0.000 A 
ENDBRANCH  11  16
ENDBRANCH   1  11
BRANCH   7  19
ATOM     19  C   UNL     1      -0.697  11.929  22.548  0.00  0.00    +0.000 C 
BRANCH  19  20
ATOM     20  C   UNL     1      -1.956  12.540  23.115  0.00  0.00    +0.000 A 
ATOM     21  N   UNL     1      -3.032  11.845  23.435  0.00  0.00    +0.000 NA
ATOM     22  C   UNL     1      -4.021  12.699  23.880  0.00  0.00    +0.000 A 
ATOM     23  C   UNL     1      -3.672  14.029  23.940  0.00  0.00    +0.000 A 
ATOM     24  S   UNL     1      -2.059  14.233  23.401  0.00  0.00    +0.000 S 
ENDBRANCH  19  20
ENDBRANCH   7  19
TORSDOF 4
ENDMDL
MODEL 6
REMARK VINA RESULT:      -6.2      3.380      4.961
REMARK  Name = 
REMARK  4 active torsions:
REMARK  status: ('A' for Active; 'I' for Inactive)
REMARK    1  A    between atoms: C_5  and  C_6
REMARK    2  A    between atoms: C_6  and  N_7
REMARK    3  A    between atoms: N_13  and  C_14
REMARK    4  A    between atoms: C_14  and  C_15
REMARK                            x       y       z     vdW  Elec       q    Type
REMARK                         _______ _______ _______ _____ _____    ______ ____
ROOT
ATOM      1  N   UNL     1       4.558   3.935  18.311  0.00  0.00    +0.000 NA
ATOM      2  C   UNL     1       3.434   4.047  17.391  0.00  0.00    +0.000 C 
ATOM      3  C   UNL     1       2.315   4.719  18.164  0.00  0.00    +0.000 C 
ATOM      4  C   UNL     1       2.988   5.551  19.267  0.00  0.00    +0.000 C 
ATOM      5  C   UNL     1       2.190   5.421  20.584  0.00  0.00    +0.000 C 
ATOM      6  C   UNL     1       0.842   6.148  20.496  0.00  0.00    +0.000 C 
ATOM      7  N   UNL     1       0.966   7.584  20.195  0.00  0.00    +0.000 NA
ATOM      8  C   UNL     1       1.705   7.767  18.937  0.00  0.00    +0.000 C 
ATOM      9  C   UNL     1       3.070   7.057  18.900  0.00  0.00    +0.000 C 
ATOM     10  C   UNL     1       4.402   4.931  19.380  0.00  0.00    +0.000 C 
ENDROOT
BRANCH   1  11
ATOM     11  C   UNL     1       5.859   4.004  17.623  0.00  0.00    +0.000 C 
BRANCH  11  16
ATOM     12  F   UNL     1       8.541   8.983  18.034  0.00  0.00    +0.000 F 
ATOM     13  C   UNL     1       7.896   7.814  17.953  0.00  0.00    +0.000 A 
ATOM     14  C   UNL     1       8.249   6.770  18.812  0.00  0.00    +0.000 A 
ATOM     15  C   UNL     1       7.585   5.538  18.716  0.00  0.00    +0.000 A 
ATOM     16  C   UNL     1       6.561   5.347  17.774  0.00  0.00    +0.000 A 
ATOM     17  C   UNL     1       6.232   6.409  16.919  0.00  0.00    +0.000 A 
ATOM     18  C   UNL     1       6.901   7.640  17.008  0.00  0.00    +0.000 A 
ENDBRANCH  11  16
ENDBRANCH   1  11
BRANCH   7  19
ATOM     19  C   UNL     1       1.576   8.368  21.295  0.00  0.00    +0.000 C 
BRANCH  19  20
ATOM     20  C   UNL     1       0.686   9.459  21.841  0.00  0.00    +0.000 A 
ATOM     21  N   UNL     1      -0.020   9.349  22.951  0.00  0.00    +0.000 NA
ATOM     22  C   UNL     1      -0.760  10.497  23.147  0.00  0.00    +0.000 A 
ATOM     23  C   UNL     1      -0.575  11.488  22.211  0.00  0.00    +0.000 A 
ATOM     24  S   UNL     1       0.546  10.968  21.026  0.00  0.00    +0.000 S 
ENDBRANCH  19  20
ENDBRANCH   7  19
TORSDOF 4
ENDMDL
MODEL 7
REMARK VINA RESULT:      -6.2      3.160      4.401
REMARK  Name = 
REMARK  4 active torsions:
REMARK  status: ('A' for Active; 'I' for Inactive)
REMARK    1  A    between atoms: C_5  and  C_6
REMARK    2  A    between atoms: C_6  and  N_7
REMARK    3  A    between atoms: N_13  and  C_14
REMARK    4  A    between atoms: C_14  and  C_15
REMARK                            x       y       z     vdW  Elec       q    Type
REMARK                         _______ _______ _______ _____ _____    ______ ____
ROOT
ATOM      1  N   UNL     1       1.573   8.240  18.886  0.00  0.00    +0.000 NA
ATOM      2  C   UNL     1       2.209   9.366  18.215  0.00  0.00    +0.000 C 
ATOM      3  C   UNL     1       1.298  10.560  18.428  0.00  0.00    +0.000 C 
ATOM      4  C   UNL     1       0.515  10.283  19.721  0.00  0.00    +0.000 C 
ATOM      5  C   UNL     1      -0.958  10.719  19.547  0.00  0.00    +0.000 C 
ATOM      6  C   UNL     1      -1.087  12.247  19.486  0.00  0.00    +0.000 C 
ATOM      7  N   UNL     1      -0.564  12.929  20.682  0.00  0.00    +0.000 NA
ATOM      8  C   UNL     1       0.845  12.564  20.887  0.00  0.00    +0.000 C 
ATOM      9  C   UNL     1       1.101  11.046  20.939  0.00  0.00    +0.000 C 
ATOM     10  C   UNL     1       0.650   8.753  19.909  0.00  0.00    +0.000 C 
ENDROOT
BRANCH   1  11
ATOM     11  C   UNL     1       2.550   7.268  19.405  0.00  0.00    +0.000 C 
BRANCH  11  16
ATOM     12  F   UNL     1       1.036   1.822  18.958  0.00  0.00    +0.000 F 
ATOM     13  C   UNL     1       1.375   3.112  19.057  0.00  0.00    +0.000 A 
ATOM     14  C   UNL     1       1.810   3.800  17.922  0.00  0.00    +0.000 A 
ATOM     15  C   UNL     1       2.182   5.149  18.027  0.00  0.00    +0.000 A 
ATOM     16  C   UNL     1       2.109   5.818  19.259  0.00  0.00    +0.000 A 
ATOM     17  C   UNL     1       1.675   5.101  20.385  0.00  0.00    +0.000 A 
ATOM     18  C   UNL     1       1.311   3.750  20.283  0.00  0.00    +0.000 A 
ENDBRANCH  11  16
ENDBRANCH   1  11
BRANCH   7  19
ATOM     19  C   UNL     1      -1.367  12.680  21.903  0.00  0.00    +0.000 C 
BRANCH  19  20
ATOM     20  C   UNL     1      -1.545  13.896  22.781  0.00  0.00    +0.000 A 
ATOM     21  N   UNL     1      -0.875  14.103  23.899  0.00  0.00    +0.000 NA
ATOM     22  C   UNL     1      -1.302  15.277  24.486  0.00  0.00    +0.000 A 
ATOM     23  C   UNL     1      -2.257  15.977  23.785  0.00  0.00    +0.000 A 
ATOM     24  S   UNL     1      -2.661  15.134  22.350  0.00  0.00    +0.000 S 
ENDBRANCH  19  20
ENDBRANCH   7  19
TORSDOF 4
ENDMDL
MODEL 8
REMARK VINA RESULT:      -6.1      3.245      4.421
REMARK  Name = 
REMARK  4 active torsions:
REMARK  status: ('A' for Active; 'I' for Inactive)
REMARK    1  A    between atoms: C_5  and  C_6
REMARK    2  A    between atoms: C_6  and  N_7
REMARK    3  A    between atoms: N_13  and  C_14
REMARK    4  A    between atoms: C_14  and  C_15
REMARK                            x       y       z     vdW  Elec       q    Type
REMARK                         _______ _______ _______ _____ _____    ______ ____
ROOT
ATOM      1  N   UNL     1       1.578   8.371  18.768  0.00  0.00    +0.000 NA
ATOM      2  C   UNL     1       2.020   9.530  18.002  0.00  0.00    +0.000 C 
ATOM      3  C   UNL     1       1.124  10.682  18.416  0.00  0.00    +0.000 C 
ATOM      4  C   UNL     1       0.629  10.360  19.834  0.00  0.00    +0.000 C 
ATOM      5  C   UNL     1      -0.865  10.734  19.967  0.00  0.00    +0.000 C 
ATOM      6  C   UNL     1      -1.064  12.255  19.961  0.00  0.00    +0.000 C 
ATOM      7  N   UNL     1      -0.339  12.948  21.039  0.00  0.00    +0.000 NA
ATOM      8  C   UNL     1       1.096  12.642  20.950  0.00  0.00    +0.000 C 
ATOM      9  C   UNL     1       1.418  11.136  20.922  0.00  0.00    +0.000 C 
ATOM     10  C   UNL     1       0.860   8.835  19.965  0.00  0.00    +0.000 C 
ENDROOT
BRANCH   1  11
ATOM     11  C   UNL     1       2.678   7.437  19.063  0.00  0.00    +0.000 C 
BRANCH  11  16
ATOM     12  F   UNL     1       0.910   2.054  19.276  0.00  0.00    +0.000 F 
ATOM     13  C   UNL     1       1.346   3.318  19.231  0.00  0.00    +0.000 A 
ATOM     14  C   UNL     1       1.411   4.067  20.409  0.00  0.00    +0.000 A 
ATOM     15  C   UNL     1       1.852   5.398  20.362  0.00  0.00    +0.000 A 
ATOM     16  C   UNL     1       2.240   5.981  19.145  0.00  0.00    +0.000 A 
ATOM     17  C   UNL     1       2.157   5.209  17.976  0.00  0.00    +0.000 A 
ATOM     18  C   UNL     1       1.709   3.880  18.020  0.00  0.00    +0.000 A 
ENDBRANCH  11  16
ENDBRANCH   1  11
BRANCH   7  19
ATOM     19  C   UNL     1      -0.868  12.654  22.392  0.00  0.00    +0.000 C 
BRANCH  19  20
ATOM     20  C   UNL     1      -1.457  13.853  23.096  0.00  0.00    +0.000 A 
ATOM     21  N   UNL     1      -0.764  14.667  23.871  0.00  0.00    +0.000 NA
ATOM     22  C   UNL     1      -1.600  15.630  24.398  0.00  0.00    +0.000 A 
ATOM     23  C   UNL     1      -2.910  15.571  23.982  0.00  0.00    +0.000 A 
ATOM     24  S   UNL     1      -3.121  14.252  22.909  0.00  0.00    +0.000 S 
ENDBRANCH  19  20
ENDBRANCH   7  19
TORSDOF 4
ENDMDL
MODEL 9
REMARK VINA RESULT:      -6.0      3.365      4.933
REMARK  Name = 
REMARK  4 active torsions:
REMARK  status: ('A' for Active; 'I' for Inactive)
REMARK    1  A    between atoms: C_5  and  C_6
REMARK    2  A    between atoms: C_6  and  N_7
REMARK    3  A    between atoms: N_13  and  C_14
REMARK    4  A    between atoms: C_14  and  C_15
REMARK                            x       y       z     vdW  Elec       q    Type
REMARK                         _______ _______ _______ _____ _____    ______ ____
ROOT
ATOM      1  N   UNL     1       4.403   4.043  18.497  0.00  0.00    +0.000 NA
ATOM      2  C   UNL     1       3.297   4.151  17.554  0.00  0.00    +0.000 C 
ATOM      3  C   UNL     1       2.208   4.935  18.261  0.00  0.00    +0.000 C 
ATOM      4  C   UNL     1       2.913   5.805  19.314  0.00  0.00    +0.000 C 
ATOM      5  C   UNL     1       2.094   5.811  20.625  0.00  0.00    +0.000 C 
ATOM      6  C   UNL     1       0.789   6.602  20.466  0.00  0.00    +0.000 C 
ATOM      7  N   UNL     1       0.995   8.005  20.068  0.00  0.00    +0.000 NA
ATOM      8  C   UNL     1       1.758   8.059  18.812  0.00  0.00    +0.000 C 
ATOM      9  C   UNL     1       3.082   7.274  18.845  0.00  0.00    +0.000 C 
ATOM     10  C   UNL     1       4.289   5.119  19.492  0.00  0.00    +0.000 C 
ENDROOT
BRANCH   1  11
ATOM     11  C   UNL     1       5.713   3.993  17.826  0.00  0.00    +0.000 C 
BRANCH  11  16
ATOM     12  F   UNL     1       8.411   8.977  17.993  0.00  0.00    +0.000 F 
ATOM     13  C   UNL     1       7.786   7.796  17.937  0.00  0.00    +0.000 A 
ATOM     14  C   UNL     1       6.742   7.609  17.028  0.00  0.00    +0.000 A 
ATOM     15  C   UNL     1       6.075   6.377  16.980  0.00  0.00    +0.000 A 
ATOM     16  C   UNL     1       6.453   5.324  17.829  0.00  0.00    +0.000 A 
ATOM     17  C   UNL     1       7.500   5.541  18.738  0.00  0.00    +0.000 A 
ATOM     18  C   UNL     1       8.163   6.776  18.792  0.00  0.00    +0.000 A 
ENDBRANCH  11  16
ENDBRANCH   1  11
BRANCH   7  19
ATOM     19  C   UNL     1       1.635   8.830  21.121  0.00  0.00    +0.000 C 
BRANCH  19  20
ATOM     20  C   UNL     1       0.756   9.934  21.657  0.00  0.00    +0.000 A 
ATOM     21  N   UNL     1       0.802  11.184  21.236  0.00  0.00    +0.000 NA
ATOM     22  C   UNL     1      -0.092  11.950  21.955  0.00  0.00    +0.000 A 
ATOM     23  C   UNL     1      -0.844  11.268  22.884  0.00  0.00    +0.000 A 
ATOM     24  S   UNL     1      -0.411   9.611  22.881  0.00  0.00    +0.000 S 
ENDBRANCH  19  20
ENDBRANCH   7  19
TORSDOF 4
ENDMDL
