MODEL 1
REMARK VINA RESULT:      -7.3      0.000      0.000
REMARK  Name = 
REMARK  3 active torsions:
REMARK  status: ('A' for Active; 'I' for Inactive)
REMARK    1  A    between atoms: C_2  and  S_3
REMARK    2  A    between atoms: C_7  and  C_8
REMARK    3  A    between atoms: C_12  and  C_13
REMARK                            x       y       z     vdW  Elec       q    Type
REMARK                         _______ _______ _______ _____ _____    ______ ____
ROOT
ATOM      1  N   UNL     1       7.623   5.629  14.648  0.00  0.00    +0.000 NA
ATOM      2  C   UNL     1       6.529   4.963  14.836  0.00  0.00    +0.000 C 
ATOM      3  N   UNL     1       5.681   5.158  15.906  0.00  0.00    +0.000 N 
ATOM      4  C   UNL     1       5.996   6.128  16.945  0.00  0.00    +0.000 C 
ATOM      5  C   UNL     1       4.824   6.039  17.904  0.00  0.00    +0.000 C 
ATOM      6  C   UNL     1       4.134   4.820  17.369  0.00  0.00    +0.000 C 
ATOM      7  N   UNL     1       4.611   4.368  16.251  0.00  0.00    +0.000 NA
ATOM      8  H   UNL     1       8.078   5.283  13.803  0.00  0.00    +0.000 HD
ENDROOT
BRANCH   6   9
ATOM      9  C   UNL     1       2.993   4.193  18.075  0.00  0.00    +0.000 A 
ATOM     10  C   UNL     1       1.772   3.976  17.430  0.00  0.00    +0.000 A 
ATOM     11  C   UNL     1       0.701   3.417  18.128  0.00  0.00    +0.000 A 
ATOM     12  C   UNL     1       0.842   3.076  19.473  0.00  0.00    +0.000 A 
ATOM     13  C   UNL     1       2.060   3.282  20.138  0.00  0.00    +0.000 A 
ATOM     14  C   UNL     1       3.137   3.835  19.423  0.00  0.00    +0.000 A 
BRANCH  13  15
ATOM     15  C   UNL     1       2.222   2.931  21.598  0.00  0.00    +0.000 C 
ATOM     16  F   UNL     1       1.125   2.323  22.131  0.00  0.00    +0.000 F 
ATOM     17  F   UNL     1       3.261   2.082  21.821  0.00  0.00    +0.000 F 
ATOM     18  F   UNL     1       2.452   4.025  22.375  0.00  0.00    +0.000 F 
ENDBRANCH  13  15
ENDBRANCH   6   9
BRANCH   2  19
ATOM     19  S   UNL     1       6.116   3.737  13.647  0.00  0.00    +0.000 S 
ATOM     20  H   UNL     1       6.690   4.296  12.580  0.00  0.00    +0.000 HD
ENDBRANCH   2  19
TORSDOF 3
ENDMDL
MODEL 2
REMARK VINA RESULT:      -7.3      1.427      1.811
REMARK  Name = 
REMARK  3 active torsions:
REMARK  status: ('A' for Active; 'I' for Inactive)
REMARK    1  A    between atoms: C_2  and  S_3
REMARK    2  A    between atoms: C_7  and  C_8
REMARK    3  A    between atoms: C_12  and  C_13
REMARK                            x       y       z     vdW  Elec       q    Type
REMARK                         _______ _______ _______ _____ _____    ______ ____
ROOT
ATOM      1  N   UNL     1       8.016   5.535  13.750  0.00  0.00    +0.000 NA
ATOM      2  C   UNL     1       6.972   4.840  14.069  0.00  0.00    +0.000 C 
ATOM      3  N   UNL     1       6.347   4.904  15.297  0.00  0.00    +0.000 N 
ATOM      4  C   UNL     1       6.867   5.753  16.359  0.00  0.00    +0.000 C 
ATOM      5  C   UNL     1       5.901   5.543  17.509  0.00  0.00    +0.000 C 
ATOM      6  C   UNL     1       5.107   4.385  16.982  0.00  0.00    +0.000 C 
ATOM      7  N   UNL     1       5.355   4.067  15.749  0.00  0.00    +0.000 NA
ATOM      8  H   UNL     1       8.296   5.293  12.800  0.00  0.00    +0.000 HD
ENDROOT
BRANCH   6   9
ATOM      9  C   UNL     1       4.116   3.669  17.819  0.00  0.00    +0.000 A 
ATOM     10  C   UNL     1       3.788   2.332  17.570  0.00  0.00    +0.000 A 
ATOM     11  C   UNL     1       2.824   1.692  18.350  0.00  0.00    +0.000 A 
ATOM     12  C   UNL     1       2.181   2.382  19.378  0.00  0.00    +0.000 A 
ATOM     13  C   UNL     1       2.499   3.722  19.646  0.00  0.00    +0.000 A 
ATOM     14  C   UNL     1       3.479   4.356  18.862  0.00  0.00    +0.000 A 
BRANCH  13  15
ATOM     15  C   UNL     1       1.800   4.485  20.746  0.00  0.00    +0.000 C 
ATOM     16  F   UNL     1       2.159   4.080  21.996  0.00  0.00    +0.000 F 
ATOM     17  F   UNL     1       2.054   5.821  20.701  0.00  0.00    +0.000 F 
ATOM     18  F   UNL     1       0.446   4.355  20.690  0.00  0.00    +0.000 F 
ENDBRANCH  13  15
ENDBRANCH   6   9
BRANCH   2  19
ATOM     19  S   UNL     1       6.324   3.753  12.850  0.00  0.00    +0.000 S 
ATOM     20  H   UNL     1       6.215   2.655  13.603  0.00  0.00    +0.000 HD
ENDBRANCH   2  19
TORSDOF 3
ENDMDL
MODEL 3
REMARK VINA RESULT:      -7.2      1.303      1.506
REMARK  Name = 
REMARK  3 active torsions:
REMARK  status: ('A' for Active; 'I' for Inactive)
REMARK    1  A    between atoms: C_2  and  S_3
REMARK    2  A    between atoms: C_7  and  C_8
REMARK    3  A    between atoms: C_12  and  C_13
REMARK                            x       y       z     vdW  Elec       q    Type
REMARK                         _______ _______ _______ _____ _____    ______ ____
ROOT
ATOM      1  N   UNL     1       7.811   5.509  13.993  0.00  0.00    +0.000 NA
ATOM      2  C   UNL     1       6.781   4.778  14.279  0.00  0.00    +0.000 C 
ATOM      3  N   UNL     1       6.126   4.808  15.492  0.00  0.00    +0.000 N 
ATOM      4  C   UNL     1       6.593   5.661  16.575  0.00  0.00    +0.000 C 
ATOM      5  C   UNL     1       5.607   5.409  17.699  0.00  0.00    +0.000 C 
ATOM      6  C   UNL     1       4.863   4.232  17.141  0.00  0.00    +0.000 C 
ATOM      7  N   UNL     1       5.150   3.936  15.911  0.00  0.00    +0.000 NA
ATOM      8  H   UNL     1       8.121   5.286  13.047  0.00  0.00    +0.000 HD
ENDROOT
BRANCH   6   9
ATOM      9  C   UNL     1       3.875   3.476  17.946  0.00  0.00    +0.000 A 
ATOM     10  C   UNL     1       3.504   2.173  17.601  0.00  0.00    +0.000 A 
ATOM     11  C   UNL     1       2.544   1.497  18.355  0.00  0.00    +0.000 A 
ATOM     12  C   UNL     1       1.948   2.117  19.453  0.00  0.00    +0.000 A 
ATOM     13  C   UNL     1       2.310   3.423  19.817  0.00  0.00    +0.000 A 
ATOM     14  C   UNL     1       3.285   4.093  19.059  0.00  0.00    +0.000 A 
BRANCH  13  15
ATOM     15  C   UNL     1       1.662   4.112  20.994  0.00  0.00    +0.000 C 
ATOM     16  F   UNL     1       0.643   4.945  20.639  0.00  0.00    +0.000 F 
ATOM     17  F   UNL     1       1.130   3.235  21.888  0.00  0.00    +0.000 F 
ATOM     18  F   UNL     1       2.539   4.882  21.696  0.00  0.00    +0.000 F 
ENDBRANCH  13  15
ENDBRANCH   6   9
BRANCH   2  19
ATOM     19  S   UNL     1       6.198   3.684  13.034  0.00  0.00    +0.000 S 
ATOM     20  H   UNL     1       4.921   3.611  13.418  0.00  0.00    +0.000 HD
ENDBRANCH   2  19
TORSDOF 3
ENDMDL
MODEL 4
REMARK VINA RESULT:      -7.1      1.569      2.092
REMARK  Name = 
REMARK  3 active torsions:
REMARK  status: ('A' for Active; 'I' for Inactive)
REMARK    1  A    between atoms: C_2  and  S_3
REMARK    2  A    between atoms: C_7  and  C_8
REMARK    3  A    between atoms: C_12  and  C_13
REMARK                            x       y       z     vdW  Elec       q    Type
REMARK                         _______ _______ _______ _____ _____    ______ ____
ROOT
ATOM      1  N   UNL     1       7.855   5.297  14.230  0.00  0.00    +0.000 NA
ATOM      2  C   UNL     1       6.671   4.967  14.636  0.00  0.00    +0.000 C 
ATOM      3  N   UNL     1       6.089   5.448  15.791  0.00  0.00    +0.000 N 
ATOM      4  C   UNL     1       6.812   6.353  16.673  0.00  0.00    +0.000 C 
ATOM      5  C   UNL     1       5.830   6.643  17.792  0.00  0.00    +0.000 C 
ATOM      6  C   UNL     1       4.768   5.630  17.484  0.00  0.00    +0.000 C 
ATOM      7  N   UNL     1       4.922   5.001  16.360  0.00  0.00    +0.000 NA
ATOM      8  H   UNL     1       8.060   4.793  13.367  0.00  0.00    +0.000 HD
ENDROOT
BRANCH   6   9
ATOM      9  C   UNL     1       3.634   5.380  18.404  0.00  0.00    +0.000 A 
ATOM     10  C   UNL     1       3.110   6.401  19.203  0.00  0.00    +0.000 A 
ATOM     11  C   UNL     1       2.066   6.130  20.088  0.00  0.00    +0.000 A 
ATOM     12  C   UNL     1       1.542   4.841  20.182  0.00  0.00    +0.000 A 
ATOM     13  C   UNL     1       2.051   3.804  19.386  0.00  0.00    +0.000 A 
ATOM     14  C   UNL     1       3.096   4.088  18.490  0.00  0.00    +0.000 A 
BRANCH  13  15
ATOM     15  C   UNL     1       1.503   2.401  19.489  0.00  0.00    +0.000 C 
ATOM     16  F   UNL     1       2.307   1.463  18.912  0.00  0.00    +0.000 F 
ATOM     17  F   UNL     1       1.328   1.999  20.777  0.00  0.00    +0.000 F 
ATOM     18  F   UNL     1       0.290   2.270  18.883  0.00  0.00    +0.000 F 
ENDBRANCH  13  15
ENDBRANCH   6   9
BRANCH   2  19
ATOM     19  S   UNL     1       5.764   3.835  13.646  0.00  0.00    +0.000 S 
ATOM     20  H   UNL     1       4.894   3.418  14.569  0.00  0.00    +0.000 HD
ENDBRANCH   2  19
TORSDOF 3
ENDMDL
MODEL 5
REMARK VINA RESULT:      -7.1      4.651      5.619
REMARK  Name = 
REMARK  3 active torsions:
REMARK  status: ('A' for Active; 'I' for Inactive)
REMARK    1  A    between atoms: C_2  and  S_3
REMARK    2  A    between atoms: C_7  and  C_8
REMARK    3  A    between atoms: C_12  and  C_13
REMARK                            x       y       z     vdW  Elec       q    Type
REMARK                         _______ _______ _______ _____ _____    ______ ____
ROOT
ATOM      1  N   UNL     1       4.966   2.096  19.835  0.00  0.00    +0.000 NA
ATOM      2  C   UNL     1       3.986   2.918  20.038  0.00  0.00    +0.000 C 
ATOM      3  N   UNL     1       3.839   4.121  19.381  0.00  0.00    +0.000 N 
ATOM      4  C   UNL     1       4.831   4.575  18.418  0.00  0.00    +0.000 C 
ATOM      5  C   UNL     1       4.294   5.907  17.930  0.00  0.00    +0.000 C 
ATOM      6  C   UNL     1       3.175   6.116  18.907  0.00  0.00    +0.000 C 
ATOM      7  N   UNL     1       2.928   5.105  19.681  0.00  0.00    +0.000 NA
ATOM      8  H   UNL     1       4.858   1.294  20.456  0.00  0.00    +0.000 HD
ENDROOT
BRANCH   6   9
ATOM      9  C   UNL     1       2.418   7.389  18.970  0.00  0.00    +0.000 A 
ATOM     10  C   UNL     1       2.371   8.258  17.876  0.00  0.00    +0.000 A 
ATOM     11  C   UNL     1       1.681   9.467  17.973  0.00  0.00    +0.000 A 
ATOM     12  C   UNL     1       1.039   9.816  19.161  0.00  0.00    +0.000 A 
ATOM     13  C   UNL     1       1.071   8.954  20.269  0.00  0.00    +0.000 A 
ATOM     14  C   UNL     1       1.759   7.734  20.158  0.00  0.00    +0.000 A 
BRANCH  13  15
ATOM     15  C   UNL     1       0.393   9.326  21.566  0.00  0.00    +0.000 C 
ATOM     16  F   UNL     1       1.236   9.326  22.636  0.00  0.00    +0.000 F 
ATOM     17  F   UNL     1      -0.162  10.567  21.530  0.00  0.00    +0.000 F 
ATOM     18  F   UNL     1      -0.615   8.469  21.890  0.00  0.00    +0.000 F 
ENDBRANCH  13  15
ENDBRANCH   6   9
BRANCH   2  19
ATOM     19  S   UNL     1       2.780   2.456  21.229  0.00  0.00    +0.000 S 
ATOM     20  H   UNL     1       1.816   2.065  20.392  0.00  0.00    +0.000 HD
ENDBRANCH   2  19
TORSDOF 3
ENDMDL
MODEL 6
REMARK VINA RESULT:      -7.0      5.052      7.146
REMARK  Name = 
REMARK  3 active torsions:
REMARK  status: ('A' for Active; 'I' for Inactive)
REMARK    1  A    between atoms: C_2  and  S_3
REMARK    2  A    between atoms: C_7  and  C_8
REMARK    3  A    between atoms: C_12  and  C_13
REMARK                            x       y       z     vdW  Elec       q    Type
REMARK                         _______ _______ _______ _____ _____    ______ ____
ROOT
ATOM      1  N   UNL     1       0.767   3.237  20.772  0.00  0.00    +0.000 NA
ATOM      2  C   UNL     1       1.568   4.007  20.108  0.00  0.00    +0.000 C 
ATOM      3  N   UNL     1       2.337   3.588  19.043  0.00  0.00    +0.000 N 
ATOM      4  C   UNL     1       2.325   2.198  18.612  0.00  0.00    +0.000 C 
ATOM      5  C   UNL     1       3.275   2.167  17.430  0.00  0.00    +0.000 C 
ATOM      6  C   UNL     1       3.881   3.534  17.541  0.00  0.00    +0.000 C 
ATOM      7  N   UNL     1       3.329   4.308  18.422  0.00  0.00    +0.000 NA
ATOM      8  H   UNL     1       0.333   3.778  21.520  0.00  0.00    +0.000 HD
ENDROOT
BRANCH   6   9
ATOM      9  C   UNL     1       5.025   3.954  16.697  0.00  0.00    +0.000 A 
ATOM     10  C   UNL     1       6.093   4.680  17.233  0.00  0.00    +0.000 A 
ATOM     11  C   UNL     1       7.140   5.095  16.409  0.00  0.00    +0.000 A 
ATOM     12  C   UNL     1       7.124   4.793  15.048  0.00  0.00    +0.000 A 
ATOM     13  C   UNL     1       6.063   4.062  14.491  0.00  0.00    +0.000 A 
ATOM     14  C   UNL     1       5.018   3.639  15.331  0.00  0.00    +0.000 A 
BRANCH  13  15
ATOM     15  C   UNL     1       6.026   3.741  13.016  0.00  0.00    +0.000 C 
ATOM     16  F   UNL     1       6.290   2.432  12.742  0.00  0.00    +0.000 F 
ATOM     17  F   UNL     1       4.816   4.001  12.452  0.00  0.00    +0.000 F 
ATOM     18  F   UNL     1       6.938   4.458  12.304  0.00  0.00    +0.000 F 
ENDBRANCH  13  15
ENDBRANCH   6   9
BRANCH   2  19
ATOM     19  S   UNL     1       1.672   5.688  20.611  0.00  0.00    +0.000 S 
ATOM     20  H   UNL     1       0.368   5.973  20.618  0.00  0.00    +0.000 HD
ENDBRANCH   2  19
TORSDOF 3
ENDMDL
MODEL 7
REMARK VINA RESULT:      -6.9      5.033      6.016
REMARK  Name = 
REMARK  3 active torsions:
REMARK  status: ('A' for Active; 'I' for Inactive)
REMARK    1  A    between atoms: C_2  and  S_3
REMARK    2  A    between atoms: C_7  and  C_8
REMARK    3  A    between atoms: C_12  and  C_13
REMARK                            x       y       z     vdW  Elec       q    Type
REMARK                         _______ _______ _______ _____ _____    ______ ____
ROOT
ATOM      1  N   UNL     1      -0.115  10.989  20.787  0.00  0.00    +0.000 NA
ATOM      2  C   UNL     1       0.588   9.904  20.861  0.00  0.00    +0.000 C 
ATOM      3  N   UNL     1       1.230   9.325  19.787  0.00  0.00    +0.000 N 
ATOM      4  C   UNL     1       1.118   9.893  18.451  0.00  0.00    +0.000 C 
ATOM      5  C   UNL     1       1.965   8.980  17.586  0.00  0.00    +0.000 C 
ATOM      6  C   UNL     1       2.227   7.865  18.554  0.00  0.00    +0.000 C 
ATOM      7  N   UNL     1       1.833   8.090  19.769  0.00  0.00    +0.000 NA
ATOM      8  H   UNL     1      -0.499  11.197  21.708  0.00  0.00    +0.000 HD
ENDROOT
BRANCH   6   9
ATOM      9  C   UNL     1       2.890   6.606  18.138  0.00  0.00    +0.000 A 
ATOM     10  C   UNL     1       4.115   6.622  17.463  0.00  0.00    +0.000 A 
ATOM     11  C   UNL     1       4.700   5.424  17.049  0.00  0.00    +0.000 A 
ATOM     12  C   UNL     1       4.066   4.208  17.304  0.00  0.00    +0.000 A 
ATOM     13  C   UNL     1       2.839   4.172  17.984  0.00  0.00    +0.000 A 
ATOM     14  C   UNL     1       2.262   5.382  18.406  0.00  0.00    +0.000 A 
BRANCH  13  15
ATOM     15  C   UNL     1       2.135   2.864  18.254  0.00  0.00    +0.000 C 
ATOM     16  F   UNL     1       2.456   2.316  19.460  0.00  0.00    +0.000 F 
ATOM     17  F   UNL     1       0.780   2.987  18.250  0.00  0.00    +0.000 F 
ATOM     18  F   UNL     1       2.431   1.912  17.326  0.00  0.00    +0.000 F 
ENDBRANCH  13  15
ENDBRANCH   6   9
BRANCH   2  19
ATOM     19  S   UNL     1       0.719   9.135  22.435  0.00  0.00    +0.000 S 
ATOM     20  H   UNL     1       0.627   7.862  22.041  0.00  0.00    +0.000 HD
ENDBRANCH   2  19
TORSDOF 3
ENDMDL
MODEL 8
REMARK VINA RESULT:      -6.8      4.361      5.295
REMARK  Name = 
REMARK  3 active torsions:
REMARK  status: ('A' for Active; 'I' for Inactive)
REMARK    1  A    between atoms: C_2  and  S_3
REMARK    2  A    between atoms: C_7  and  C_8
REMARK    3  A    between atoms: C_12  and  C_13
REMARK                            x       y       z     vdW  Elec       q    Type
REMARK                         _______ _______ _______ _____ _____    ______ ____
ROOT
ATOM      1  N   UNL     1       4.154   2.166  17.795  0.00  0.00    +0.000 NA
ATOM      2  C   UNL     1       3.207   2.999  18.089  0.00  0.00    +0.000 C 
ATOM      3  N   UNL     1       3.314   4.367  17.953  0.00  0.00    +0.000 N 
ATOM      4  C   UNL     1       4.552   4.981  17.499  0.00  0.00    +0.000 C 
ATOM      5  C   UNL     1       4.246   6.467  17.479  0.00  0.00    +0.000 C 
ATOM      6  C   UNL     1       2.923   6.474  18.185  0.00  0.00    +0.000 C 
ATOM      7  N   UNL     1       2.417   5.302  18.413  0.00  0.00    +0.000 NA
ATOM      8  H   UNL     1       3.836   1.219  18.002  0.00  0.00    +0.000 HD
ENDROOT
BRANCH   6   9
ATOM      9  C   UNL     1       2.254   7.736  18.582  0.00  0.00    +0.000 A 
ATOM     10  C   UNL     1       2.198   8.831  17.714  0.00  0.00    +0.000 A 
ATOM     11  C   UNL     1       1.595  10.020  18.127  0.00  0.00    +0.000 A 
ATOM     12  C   UNL     1       1.050  10.123  19.406  0.00  0.00    +0.000 A 
ATOM     13  C   UNL     1       1.093   9.034  20.291  0.00  0.00    +0.000 A 
ATOM     14  C   UNL     1       1.693   7.838  19.863  0.00  0.00    +0.000 A 
BRANCH  13  15
ATOM     15  C   UNL     1       0.520   9.138  21.684  0.00  0.00    +0.000 C 
ATOM     16  F   UNL     1       0.037  10.378  21.978  0.00  0.00    +0.000 F 
ATOM     17  F   UNL     1      -0.514   8.278  21.891  0.00  0.00    +0.000 F 
ATOM     18  F   UNL     1       1.441   8.862  22.648  0.00  0.00    +0.000 F 
ENDBRANCH  13  15
ENDBRANCH   6   9
BRANCH   2  19
ATOM     19  S   UNL     1       1.701   2.328  18.696  0.00  0.00    +0.000 S 
ATOM     20  H   UNL     1       1.100   2.101  17.525  0.00  0.00    +0.000 HD
ENDBRANCH   2  19
TORSDOF 3
ENDMDL
MODEL 9
REMARK VINA RESULT:      -6.8      4.088      4.833
REMARK  Name = 
REMARK  3 active torsions:
REMARK  status: ('A' for Active; 'I' for Inactive)
REMARK    1  A    between atoms: C_2  and  S_3
REMARK    2  A    between atoms: C_7  and  C_8
REMARK    3  A    between atoms: C_12  and  C_13
REMARK                            x       y       z     vdW  Elec       q    Type
REMARK                         _______ _______ _______ _____ _____    ______ ____
ROOT
ATOM      1  N   UNL     1       5.914   3.545  16.494  0.00  0.00    +0.000 NA
ATOM      2  C   UNL     1       5.721   4.733  16.971  0.00  0.00    +0.000 C 
ATOM      3  N   UNL     1       4.519   5.173  17.485  0.00  0.00    +0.000 N 
ATOM      4  C   UNL     1       3.344   4.314  17.483  0.00  0.00    +0.000 C 
ATOM      5  C   UNL     1       2.265   5.159  18.134  0.00  0.00    +0.000 C 
ATOM      6  C   UNL     1       2.957   6.489  18.174  0.00  0.00    +0.000 C 
ATOM      7  N   UNL     1       4.208   6.465  17.834  0.00  0.00    +0.000 NA
ATOM      8  H   UNL     1       6.875   3.476  16.160  0.00  0.00    +0.000 HD
ENDROOT
BRANCH   6   9
ATOM      9  C   UNL     1       2.249   7.727  18.576  0.00  0.00    +0.000 A 
ATOM     10  C   UNL     1       2.118   8.805  17.696  0.00  0.00    +0.000 A 
ATOM     11  C   UNL     1       1.480   9.974  18.112  0.00  0.00    +0.000 A 
ATOM     12  C   UNL     1       0.974  10.075  19.407  0.00  0.00    +0.000 A 
ATOM     13  C   UNL     1       1.092   9.002  20.305  0.00  0.00    +0.000 A 
ATOM     14  C   UNL     1       1.727   7.825  19.873  0.00  0.00    +0.000 A 
BRANCH  13  15
ATOM     15  C   UNL     1       0.561   9.103  21.715  0.00  0.00    +0.000 C 
ATOM     16  F   UNL     1      -0.503   8.285  21.951  0.00  0.00    +0.000 F 
ATOM     17  F   UNL     1       1.493   8.778  22.651  0.00  0.00    +0.000 F 
ATOM     18  F   UNL     1       0.136  10.360  22.023  0.00  0.00    +0.000 F 
ENDBRANCH  13  15
ENDBRANCH   6   9
BRANCH   2  19
ATOM     19  S   UNL     1       7.084   5.841  16.952  0.00  0.00    +0.000 S 
ATOM     20  H   UNL     1       7.215   6.016  18.269  0.00  0.00    +0.000 HD
ENDBRANCH   2  19
TORSDOF 3
ENDMDL
