MODEL 1
REMARK VINA RESULT:      -6.6      0.000      0.000
REMARK  Name = 
REMARK  23 active torsions:
REMARK  status: ('A' for Active; 'I' for Inactive)
REMARK    1  A    between atoms: C_1  and  C_2
REMARK    2  A    between atoms: C_2  and  C_3
REMARK    3  A    between atoms: C_3  and  C_4
REMARK    4  A    between atoms: C_4  and  C_5
REMARK    5  A    between atoms: C_5  and  C_6
REMARK    6  A    between atoms: C_6  and  C_7
REMARK    7  A    between atoms: C_7  and  C_8
REMARK    8  A    between atoms: C_8  and  C_9
REMARK    9  A    between atoms: C_9  and  C_10
REMARK   10  A    between atoms: C_10  and  C_11
REMARK   11  A    between atoms: C_11  and  C_12
REMARK   12  A    between atoms: C_12  and  C_13
REMARK   13  A    between atoms: C_13  and  C_14
REMARK   14  A    between atoms: C_15  and  C_16
REMARK   15  A    between atoms: C_16  and  O_17
REMARK   16  A    between atoms: C_16  and  C_18
REMARK   17  A    between atoms: C_21  and  C_22
REMARK   18  A    between atoms: C_21  and  C_23
REMARK   19  A    between atoms: C_25  and  O_27
REMARK   20  A    between atoms: O_27  and  C_28
REMARK   21  A    between atoms: C_28  and  C_29
REMARK   22  A    between atoms: C_28  and  C_30
REMARK   23  A    between atoms: C_28  and  C_31
REMARK                            x       y       z     vdW  Elec       q    Type
REMARK                         _______ _______ _______ _____ _____    ______ ____
ROOT
ATOM      1  C   UNL     1       7.936   5.394  18.890  0.00  0.00    +0.000 C 
ENDROOT
BRANCH   1   2
ATOM      2  C   UNL     1       7.189   4.571  17.798  0.00  0.00    +0.000 C 
ATOM      3  C   UNL     1       7.598   4.956  16.382  0.00  0.00    +0.000 C 
ATOM      4  O   UNL     1       6.636   5.937  15.964  0.00  0.00    +0.000 OA
ATOM      5  C   UNL     1       5.379   5.555  16.577  0.00  0.00    +0.000 C 
ATOM      6  C   UNL     1       4.646   4.700  15.543  0.00  0.00    +0.000 C 
ATOM      7  C   UNL     1       4.608   6.827  16.910  0.00  0.00    +0.000 C 
ATOM      8  N   UNL     1       5.735   4.782  17.759  0.00  0.00    +0.000 N 
ATOM      9  C   UNL     1       4.922   4.263  18.756  0.00  0.00    +0.000 C 
ATOM     10  O   UNL     1       5.417   3.631  19.690  0.00  0.00    +0.000 OA
BRANCH   9  11
ATOM     11  O   UNL     1       3.567   4.484  18.600  0.00  0.00    +0.000 OA
BRANCH  11  12
ATOM     12  C   UNL     1       2.631   3.358  18.582  0.00  0.00    +0.000 C 
ATOM     13  C   UNL     1       3.264   2.149  17.884  0.00  0.00    +0.000 C 
ATOM     14  C   UNL     1       2.278   2.967  20.031  0.00  0.00    +0.000 C 
ATOM     15  C   UNL     1       1.334   3.765  17.880  0.00  0.00    +0.000 C 
ENDBRANCH  11  12
ENDBRANCH   9  11
ENDBRANCH   1   2
BRANCH   1  16
ATOM     16  O   UNL     1       7.295   5.329  20.170  0.00  0.00    +0.000 OA
ATOM     17  H   UNL     1       7.666   4.592  20.683  0.00  0.00    +0.000 HD
ENDBRANCH   1  16
BRANCH   1  19
ATOM     18  C   UNL     1       8.100   7.979  18.180  0.00  0.00    +0.000 C 
ATOM     19  C   UNL     1       8.057   6.808  18.475  0.00  0.00    +0.000 C 
BRANCH  18  20
ATOM     20  C   UNL     1       8.141   9.407  17.876  0.00  0.00    +0.000 C 
BRANCH  20  21
ATOM     21  C   UNL     1       9.031  10.140  18.876  0.00  0.00    +0.000 C 
BRANCH  21  22
ATOM     22  C   UNL     1       9.409  11.515  18.348  0.00  0.00    +0.000 C 
BRANCH  22  23
ATOM     23  C   UNL     1       8.234  12.140  17.615  0.00  0.00    +0.000 C 
BRANCH  23  24
ATOM     24  C   UNL     1       8.488  13.619  17.389  0.00  0.00    +0.000 C 
BRANCH  24  25
ATOM     25  C   UNL     1       7.540  14.444  18.240  0.00  0.00    +0.000 C 
BRANCH  25  26
ATOM     26  C   UNL     1       8.179  15.778  18.583  0.00  0.00    +0.000 C 
BRANCH  26  27
ATOM     27  C   UNL     1       9.500  15.550  19.295  0.00  0.00    +0.000 C 
BRANCH  27  28
ATOM     28  C   UNL     1       9.265  15.414  20.788  0.00  0.00    +0.000 C 
BRANCH  28  29
ATOM     29  C   UNL     1      10.349  14.550  21.406  0.00  0.00    +0.000 C 
BRANCH  29  30
ATOM     30  C   UNL     1       9.923  13.091  21.397  0.00  0.00    +0.000 C 
BRANCH  30  32
ATOM     31  C   UNL     1       8.231  11.718  22.605  0.00  0.00    +0.000 C 
ATOM     32  C   UNL     1       8.455  12.964  21.772  0.00  0.00    +0.000 C 
ENDBRANCH  30  32
ENDBRANCH  29  30
ENDBRANCH  28  29
ENDBRANCH  27  28
ENDBRANCH  26  27
ENDBRANCH  25  26
ENDBRANCH  24  25
ENDBRANCH  23  24
ENDBRANCH  22  23
ENDBRANCH  21  22
ENDBRANCH  20  21
ENDBRANCH  18  20
ENDBRANCH   1  19
TORSDOF 17
ENDMDL
MODEL 2
REMARK VINA RESULT:      -6.5      1.525      2.084
REMARK  Name = 
REMARK  23 active torsions:
REMARK  status: ('A' for Active; 'I' for Inactive)
REMARK    1  A    between atoms: C_1  and  C_2
REMARK    2  A    between atoms: C_2  and  C_3
REMARK    3  A    between atoms: C_3  and  C_4
REMARK    4  A    between atoms: C_4  and  C_5
REMARK    5  A    between atoms: C_5  and  C_6
REMARK    6  A    between atoms: C_6  and  C_7
REMARK    7  A    between atoms: C_7  and  C_8
REMARK    8  A    between atoms: C_8  and  C_9
REMARK    9  A    between atoms: C_9  and  C_10
REMARK   10  A    between atoms: C_10  and  C_11
REMARK   11  A    between atoms: C_11  and  C_12
REMARK   12  A    between atoms: C_12  and  C_13
REMARK   13  A    between atoms: C_13  and  C_14
REMARK   14  A    between atoms: C_15  and  C_16
REMARK   15  A    between atoms: C_16  and  O_17
REMARK   16  A    between atoms: C_16  and  C_18
REMARK   17  A    between atoms: C_21  and  C_22
REMARK   18  A    between atoms: C_21  and  C_23
REMARK   19  A    between atoms: C_25  and  O_27
REMARK   20  A    between atoms: O_27  and  C_28
REMARK   21  A    between atoms: C_28  and  C_29
REMARK   22  A    between atoms: C_28  and  C_30
REMARK   23  A    between atoms: C_28  and  C_31
REMARK                            x       y       z     vdW  Elec       q    Type
REMARK                         _______ _______ _______ _____ _____    ______ ____
ROOT
ATOM      1  C   UNL     1       6.992   5.206  18.313  0.00  0.00    +0.000 C 
ENDROOT
BRANCH   1   2
ATOM      2  C   UNL     1       5.629   4.872  17.635  0.00  0.00    +0.000 C 
ATOM      3  C   UNL     1       5.252   5.865  16.542  0.00  0.00    +0.000 C 
ATOM      4  O   UNL     1       4.420   6.840  17.190  0.00  0.00    +0.000 OA
ATOM      5  C   UNL     1       3.666   6.122  18.198  0.00  0.00    +0.000 C 
ATOM      6  C   UNL     1       2.341   5.735  17.541  0.00  0.00    +0.000 C 
ATOM      7  C   UNL     1       3.458   7.052  19.387  0.00  0.00    +0.000 C 
ATOM      8  N   UNL     1       4.465   4.949  18.528  0.00  0.00    +0.000 N 
ATOM      9  C   UNL     1       4.259   3.981  19.499  0.00  0.00    +0.000 C 
ATOM     10  O   UNL     1       5.059   3.055  19.628  0.00  0.00    +0.000 OA
BRANCH   9  11
ATOM     11  O   UNL     1       3.112   4.126  20.256  0.00  0.00    +0.000 OA
BRANCH  11  12
ATOM     12  C   UNL     1       2.064   3.105  20.215  0.00  0.00    +0.000 C 
ATOM     13  C   UNL     1       2.276   2.170  19.019  0.00  0.00    +0.000 C 
ATOM     14  C   UNL     1       2.115   2.272  21.512  0.00  0.00    +0.000 C 
ATOM     15  C   UNL     1       0.686   3.768  20.141  0.00  0.00    +0.000 C 
ENDBRANCH  11  12
ENDBRANCH   9  11
ENDBRANCH   1   2
BRANCH   1  16
ATOM     16  O   UNL     1       6.969   5.011  19.732  0.00  0.00    +0.000 OA
ATOM     17  H   UNL     1       6.551   5.778  20.160  0.00  0.00    +0.000 HD
ENDBRANCH   1  16
BRANCH   1  19
ATOM     18  C   UNL     1       7.692   7.756  17.846  0.00  0.00    +0.000 C 
ATOM     19  C   UNL     1       7.385   6.600  18.017  0.00  0.00    +0.000 C 
BRANCH  18  20
ATOM     20  C   UNL     1       8.087   9.153  17.688  0.00  0.00    +0.000 C 
BRANCH  20  21
ATOM     21  C   UNL     1       8.994   9.585  18.838  0.00  0.00    +0.000 C 
BRANCH  21  22
ATOM     22  C   UNL     1       9.151  11.097  18.857  0.00  0.00    +0.000 C 
BRANCH  22  23
ATOM     23  C   UNL     1      10.198  11.532  17.846  0.00  0.00    +0.000 C 
BRANCH  23  24
ATOM     24  C   UNL     1      11.589  11.344  18.423  0.00  0.00    +0.000 C 
BRANCH  24  25
ATOM     25  C   UNL     1      12.013  12.593  19.175  0.00  0.00    +0.000 C 
BRANCH  25  26
ATOM     26  C   UNL     1      11.565  13.830  18.417  0.00  0.00    +0.000 C 
BRANCH  26  27
ATOM     27  C   UNL     1      10.873  14.793  19.364  0.00  0.00    +0.000 C 
BRANCH  27  28
ATOM     28  C   UNL     1      10.757  14.168  20.742  0.00  0.00    +0.000 C 
BRANCH  28  29
ATOM     29  C   UNL     1       9.504  14.673  21.436  0.00  0.00    +0.000 C 
BRANCH  29  30
ATOM     30  C   UNL     1       8.323  13.780  21.096  0.00  0.00    +0.000 C 
BRANCH  30  32
ATOM     31  C   UNL     1       8.282  11.739  22.525  0.00  0.00    +0.000 C 
ATOM     32  C   UNL     1       7.753  13.150  22.358  0.00  0.00    +0.000 C 
ENDBRANCH  30  32
ENDBRANCH  29  30
ENDBRANCH  28  29
ENDBRANCH  27  28
ENDBRANCH  26  27
ENDBRANCH  25  26
ENDBRANCH  24  25
ENDBRANCH  23  24
ENDBRANCH  22  23
ENDBRANCH  21  22
ENDBRANCH  20  21
ENDBRANCH  18  20
ENDBRANCH   1  19
TORSDOF 17
ENDMDL
MODEL 3
REMARK VINA RESULT:      -6.4      0.722      1.228
REMARK  Name = 
REMARK  23 active torsions:
REMARK  status: ('A' for Active; 'I' for Inactive)
REMARK    1  A    between atoms: C_1  and  C_2
REMARK    2  A    between atoms: C_2  and  C_3
REMARK    3  A    between atoms: C_3  and  C_4
REMARK    4  A    between atoms: C_4  and  C_5
REMARK    5  A    between atoms: C_5  and  C_6
REMARK    6  A    between atoms: C_6  and  C_7
REMARK    7  A    between atoms: C_7  and  C_8
REMARK    8  A    between atoms: C_8  and  C_9
REMARK    9  A    between atoms: C_9  and  C_10
REMARK   10  A    between atoms: C_10  and  C_11
REMARK   11  A    between atoms: C_11  and  C_12
REMARK   12  A    between atoms: C_12  and  C_13
REMARK   13  A    between atoms: C_13  and  C_14
REMARK   14  A    between atoms: C_15  and  C_16
REMARK   15  A    between atoms: C_16  and  O_17
REMARK   16  A    between atoms: C_16  and  C_18
REMARK   17  A    between atoms: C_21  and  C_22
REMARK   18  A    between atoms: C_21  and  C_23
REMARK   19  A    between atoms: C_25  and  O_27
REMARK   20  A    between atoms: O_27  and  C_28
REMARK   21  A    between atoms: C_28  and  C_29
REMARK   22  A    between atoms: C_28  and  C_30
REMARK   23  A    between atoms: C_28  and  C_31
REMARK                            x       y       z     vdW  Elec       q    Type
REMARK                         _______ _______ _______ _____ _____    ______ ____
ROOT
ATOM      1  C   UNL     1       8.006   5.522  18.851  0.00  0.00    +0.000 C 
ENDROOT
BRANCH   1   2
ATOM      2  C   UNL     1       7.213   4.598  17.879  0.00  0.00    +0.000 C 
ATOM      3  C   UNL     1       7.605   4.798  16.420  0.00  0.00    +0.000 C 
ATOM      4  O   UNL     1       6.663   5.751  15.904  0.00  0.00    +0.000 OA
ATOM      5  C   UNL     1       5.408   5.485  16.580  0.00  0.00    +0.000 C 
ATOM      6  C   UNL     1       4.630   4.536  15.669  0.00  0.00    +0.000 C 
ATOM      7  C   UNL     1       4.681   6.811  16.770  0.00  0.00    +0.000 C 
ATOM      8  N   UNL     1       5.766   4.848  17.840  0.00  0.00    +0.000 N 
ATOM      9  C   UNL     1       4.959   4.477  18.906  0.00  0.00    +0.000 C 
ATOM     10  O   UNL     1       5.454   3.946  19.900  0.00  0.00    +0.000 OA
BRANCH   9  11
ATOM     11  O   UNL     1       3.609   4.720  18.747  0.00  0.00    +0.000 OA
BRANCH  11  12
ATOM     12  C   UNL     1       2.656   3.608  18.705  0.00  0.00    +0.000 C 
ATOM     13  C   UNL     1       1.512   3.921  17.735  0.00  0.00    +0.000 C 
ATOM     14  C   UNL     1       3.383   2.335  18.223  0.00  0.00    +0.000 C 
ATOM     15  C   UNL     1       2.111   3.330  20.108  0.00  0.00    +0.000 C 
ENDBRANCH  11  12
ENDBRANCH   9  11
ENDBRANCH   1   2
BRANCH   1  16
ATOM     16  O   UNL     1       7.490   5.495  20.188  0.00  0.00    +0.000 OA
ATOM     17  H   UNL     1       6.564   5.790  20.186  0.00  0.00    +0.000 HD
ENDBRANCH   1  16
BRANCH   1  19
ATOM     18  C   UNL     1       8.049   8.069  18.003  0.00  0.00    +0.000 C 
ATOM     19  C   UNL     1       8.004   6.914  18.354  0.00  0.00    +0.000 C 
BRANCH  18  20
ATOM     20  C   UNL     1       8.156   9.466  17.590  0.00  0.00    +0.000 C 
BRANCH  20  21
ATOM     21  C   UNL     1       8.424  10.360  18.797  0.00  0.00    +0.000 C 
BRANCH  21  22
ATOM     22  C   UNL     1       9.878  10.255  19.229  0.00  0.00    +0.000 C 
BRANCH  22  23
ATOM     23  C   UNL     1      10.648  11.491  18.798  0.00  0.00    +0.000 C 
BRANCH  23  24
ATOM     24  C   UNL     1       9.806  12.324  17.848  0.00  0.00    +0.000 C 
BRANCH  24  25
ATOM     25  C   UNL     1      10.363  13.733  17.759  0.00  0.00    +0.000 C 
BRANCH  25  26
ATOM     26  C   UNL     1       9.252  14.745  17.972  0.00  0.00    +0.000 C 
BRANCH  26  27
ATOM     27  C   UNL     1       9.442  15.448  19.303  0.00  0.00    +0.000 C 
BRANCH  27  28
ATOM     28  C   UNL     1       8.888  14.590  20.426  0.00  0.00    +0.000 C 
BRANCH  28  29
ATOM     29  C   UNL     1      10.007  14.185  21.369  0.00  0.00    +0.000 C 
BRANCH  29  30
ATOM     30  C   UNL     1       9.480  13.223  22.421  0.00  0.00    +0.000 C 
BRANCH  30  32
ATOM     31  C   UNL     1       7.511  11.813  23.010  0.00  0.00    +0.000 C 
ATOM     32  C   UNL     1       8.302  12.432  21.874  0.00  0.00    +0.000 C 
ENDBRANCH  30  32
ENDBRANCH  29  30
ENDBRANCH  28  29
ENDBRANCH  27  28
ENDBRANCH  26  27
ENDBRANCH  25  26
ENDBRANCH  24  25
ENDBRANCH  23  24
ENDBRANCH  22  23
ENDBRANCH  21  22
ENDBRANCH  20  21
ENDBRANCH  18  20
ENDBRANCH   1  19
TORSDOF 17
ENDMDL
MODEL 4
REMARK VINA RESULT:      -6.3      3.831     10.675
REMARK  Name = 
REMARK  23 active torsions:
REMARK  status: ('A' for Active; 'I' for Inactive)
REMARK    1  A    between atoms: C_1  and  C_2
REMARK    2  A    between atoms: C_2  and  C_3
REMARK    3  A    between atoms: C_3  and  C_4
REMARK    4  A    between atoms: C_4  and  C_5
REMARK    5  A    between atoms: C_5  and  C_6
REMARK    6  A    between atoms: C_6  and  C_7
REMARK    7  A    between atoms: C_7  and  C_8
REMARK    8  A    between atoms: C_8  and  C_9
REMARK    9  A    between atoms: C_9  and  C_10
REMARK   10  A    between atoms: C_10  and  C_11
REMARK   11  A    between atoms: C_11  and  C_12
REMARK   12  A    between atoms: C_12  and  C_13
REMARK   13  A    between atoms: C_13  and  C_14
REMARK   14  A    between atoms: C_15  and  C_16
REMARK   15  A    between atoms: C_16  and  O_17
REMARK   16  A    between atoms: C_16  and  C_18
REMARK   17  A    between atoms: C_21  and  C_22
REMARK   18  A    between atoms: C_21  and  C_23
REMARK   19  A    between atoms: C_25  and  O_27
REMARK   20  A    between atoms: O_27  and  C_28
REMARK   21  A    between atoms: C_28  and  C_29
REMARK   22  A    between atoms: C_28  and  C_30
REMARK   23  A    between atoms: C_28  and  C_31
REMARK                            x       y       z     vdW  Elec       q    Type
REMARK                         _______ _______ _______ _____ _____    ______ ____
ROOT
ATOM      1  C   UNL     1       9.113  11.282  19.144  0.00  0.00    +0.000 C 
ENDROOT
BRANCH   1   2
ATOM      2  C   UNL     1       9.796  12.040  17.967  0.00  0.00    +0.000 C 
ATOM      3  C   UNL     1      11.249  11.631  17.763  0.00  0.00    +0.000 C 
ATOM      4  O   UNL     1      12.019  12.585  18.511  0.00  0.00    +0.000 OA
ATOM      5  C   UNL     1      11.306  13.844  18.413  0.00  0.00    +0.000 C 
ATOM      6  C   UNL     1      11.923  14.588  17.228  0.00  0.00    +0.000 C 
ATOM      7  C   UNL     1      11.499  14.602  19.720  0.00  0.00    +0.000 C 
ATOM      8  N   UNL     1       9.915  13.491  18.161  0.00  0.00    +0.000 N 
ATOM      9  C   UNL     1       8.795  14.306  18.081  0.00  0.00    +0.000 C 
ATOM     10  O   UNL     1       7.688  13.814  17.860  0.00  0.00    +0.000 OA
BRANCH   9  11
ATOM     11  O   UNL     1       9.026  15.659  18.236  0.00  0.00    +0.000 OA
BRANCH  11  12
ATOM     12  C   UNL     1       8.333  16.413  19.283  0.00  0.00    +0.000 C 
ATOM     13  C   UNL     1       7.006  16.966  18.752  0.00  0.00    +0.000 C 
ATOM     14  C   UNL     1       8.040  15.477  20.474  0.00  0.00    +0.000 C 
ATOM     15  C   UNL     1       9.224  17.548  19.791  0.00  0.00    +0.000 C 
ENDBRANCH  11  12
ENDBRANCH   9  11
ENDBRANCH   1   2
BRANCH   1  16
ATOM     16  O   UNL     1       9.956  11.172  20.299  0.00  0.00    +0.000 OA
ATOM     17  H   UNL     1      10.267  12.055  20.560  0.00  0.00    +0.000 HD
ENDBRANCH   1  16
BRANCH   1  19
ATOM     18  C   UNL     1       8.411   8.828  18.310  0.00  0.00    +0.000 C 
ATOM     19  C   UNL     1       8.696   9.931  18.713  0.00  0.00    +0.000 C 
BRANCH  18  20
ATOM     20  C   UNL     1       8.118   7.484  17.820  0.00  0.00    +0.000 C 
BRANCH  20  21
ATOM     21  C   UNL     1       6.815   7.477  17.026  0.00  0.00    +0.000 C 
BRANCH  21  22
ATOM     22  C   UNL     1       6.144   6.115  17.109  0.00  0.00    +0.000 C 
BRANCH  22  23
ATOM     23  C   UNL     1       5.145   6.089  18.253  0.00  0.00    +0.000 C 
BRANCH  23  24
ATOM     24  C   UNL     1       3.813   6.654  17.794  0.00  0.00    +0.000 C 
BRANCH  24  25
ATOM     25  C   UNL     1       2.807   5.532  17.613  0.00  0.00    +0.000 C 
BRANCH  25  26
ATOM     26  C   UNL     1       3.528   4.199  17.528  0.00  0.00    +0.000 C 
BRANCH  26  27
ATOM     27  C   UNL     1       2.522   3.080  17.328  0.00  0.00    +0.000 C 
BRANCH  27  28
ATOM     28  C   UNL     1       1.220   3.425  18.028  0.00  0.00    +0.000 C 
BRANCH  28  29
ATOM     29  C   UNL     1       0.855   2.328  19.012  0.00  0.00    +0.000 C 
BRANCH  29  30
ATOM     30  C   UNL     1       1.218   2.753  20.426  0.00  0.00    +0.000 C 
BRANCH  30  32
ATOM     31  C   UNL     1       2.340   4.841  21.195  0.00  0.00    +0.000 C 
ATOM     32  C   UNL     1       1.083   4.260  20.578  0.00  0.00    +0.000 C 
ENDBRANCH  30  32
ENDBRANCH  29  30
ENDBRANCH  28  29
ENDBRANCH  27  28
ENDBRANCH  26  27
ENDBRANCH  25  26
ENDBRANCH  24  25
ENDBRANCH  23  24
ENDBRANCH  22  23
ENDBRANCH  21  22
ENDBRANCH  20  21
ENDBRANCH  18  20
ENDBRANCH   1  19
TORSDOF 17
ENDMDL
MODEL 5
REMARK VINA RESULT:      -6.3      5.854     10.844
REMARK  Name = 
REMARK  23 active torsions:
REMARK  status: ('A' for Active; 'I' for Inactive)
REMARK    1  A    between atoms: C_1  and  C_2
REMARK    2  A    between atoms: C_2  and  C_3
REMARK    3  A    between atoms: C_3  and  C_4
REMARK    4  A    between atoms: C_4  and  C_5
REMARK    5  A    between atoms: C_5  and  C_6
REMARK    6  A    between atoms: C_6  and  C_7
REMARK    7  A    between atoms: C_7  and  C_8
REMARK    8  A    between atoms: C_8  and  C_9
REMARK    9  A    between atoms: C_9  and  C_10
REMARK   10  A    between atoms: C_10  and  C_11
REMARK   11  A    between atoms: C_11  and  C_12
REMARK   12  A    between atoms: C_12  and  C_13
REMARK   13  A    between atoms: C_13  and  C_14
REMARK   14  A    between atoms: C_15  and  C_16
REMARK   15  A    between atoms: C_16  and  O_17
REMARK   16  A    between atoms: C_16  and  C_18
REMARK   17  A    between atoms: C_21  and  C_22
REMARK   18  A    between atoms: C_21  and  C_23
REMARK   19  A    between atoms: C_25  and  O_27
REMARK   20  A    between atoms: O_27  and  C_28
REMARK   21  A    between atoms: C_28  and  C_29
REMARK   22  A    between atoms: C_28  and  C_30
REMARK   23  A    between atoms: C_28  and  C_31
REMARK                            x       y       z     vdW  Elec       q    Type
REMARK                         _______ _______ _______ _____ _____    ______ ____
ROOT
ATOM      1  C   UNL     1       1.125  10.265  18.104  0.00  0.00    +0.000 C 
ENDROOT
BRANCH   1   2
ATOM      2  C   UNL     1       1.135  11.065  19.441  0.00  0.00    +0.000 C 
ATOM      3  C   UNL     1       0.575  10.268  20.612  0.00  0.00    +0.000 C 
ATOM      4  O   UNL     1      -0.814  10.628  20.682  0.00  0.00    +0.000 OA
ATOM      5  C   UNL     1      -0.891  12.020  20.287  0.00  0.00    +0.000 C 
ATOM      6  C   UNL     1      -0.830  12.832  21.580  0.00  0.00    +0.000 C 
ATOM      7  C   UNL     1      -2.206  12.231  19.547  0.00  0.00    +0.000 C 
ATOM      8  N   UNL     1       0.276  12.257  19.448  0.00  0.00    +0.000 N 
ATOM      9  C   UNL     1       0.636  13.387  18.729  0.00  0.00    +0.000 C 
ATOM     10  O   UNL     1       1.675  13.394  18.067  0.00  0.00    +0.000 OA
BRANCH   9  11
ATOM     11  O   UNL     1      -0.221  14.465  18.839  0.00  0.00    +0.000 OA
BRANCH  11  12
ATOM     12  C   UNL     1       0.225  15.703  19.481  0.00  0.00    +0.000 C 
ATOM     13  C   UNL     1      -0.924  16.339  20.270  0.00  0.00    +0.000 C 
ATOM     14  C   UNL     1       1.379  15.383  20.454  0.00  0.00    +0.000 C 
ATOM     15  C   UNL     1       0.760  16.678  18.430  0.00  0.00    +0.000 C 
ENDBRANCH  11  12
ENDBRANCH   9  11
ENDBRANCH   1   2
BRANCH   1  16
ATOM     16  O   UNL     1      -0.198  10.025  17.609  0.00  0.00    +0.000 OA
ATOM     17  H   UNL     1      -0.785  10.748  17.887  0.00  0.00    +0.000 HD
ENDBRANCH   1  16
BRANCH   1  19
ATOM     18  C   UNL     1       2.384   7.923  18.483  0.00  0.00    +0.000 C 
ATOM     19  C   UNL     1       1.825   8.973  18.272  0.00  0.00    +0.000 C 
BRANCH  18  20
ATOM     20  C   UNL     1       3.021   6.641  18.773  0.00  0.00    +0.000 C 
BRANCH  20  21
ATOM     21  C   UNL     1       1.974   5.601  19.163  0.00  0.00    +0.000 C 
BRANCH  21  22
ATOM     22  C   UNL     1       2.143   5.191  20.617  0.00  0.00    +0.000 C 
BRANCH  22  23
ATOM     23  C   UNL     1       2.109   3.677  20.745  0.00  0.00    +0.000 C 
BRANCH  23  24
ATOM     24  C   UNL     1       0.878   3.123  20.050  0.00  0.00    +0.000 C 
BRANCH  24  25
ATOM     25  C   UNL     1       1.293   2.195  18.923  0.00  0.00    +0.000 C 
BRANCH  25  26
ATOM     26  C   UNL     1       2.801   2.018  18.926  0.00  0.00    +0.000 C 
BRANCH  26  27
ATOM     27  C   UNL     1       3.369   2.407  17.573  0.00  0.00    +0.000 C 
BRANCH  27  28
ATOM     28  C   UNL     1       4.468   3.438  17.751  0.00  0.00    +0.000 C 
BRANCH  28  29
ATOM     29  C   UNL     1       4.738   4.141  16.433  0.00  0.00    +0.000 C 
BRANCH  29  30
ATOM     30  C   UNL     1       5.779   5.232  16.627  0.00  0.00    +0.000 C 
BRANCH  30  32
ATOM     31  C   UNL     1       7.511   5.720  18.350  0.00  0.00    +0.000 C 
ATOM     32  C   UNL     1       6.986   4.687  17.374  0.00  0.00    +0.000 C 
ENDBRANCH  30  32
ENDBRANCH  29  30
ENDBRANCH  28  29
ENDBRANCH  27  28
ENDBRANCH  26  27
ENDBRANCH  25  26
ENDBRANCH  24  25
ENDBRANCH  23  24
ENDBRANCH  22  23
ENDBRANCH  21  22
ENDBRANCH  20  21
ENDBRANCH  18  20
ENDBRANCH   1  19
TORSDOF 17
ENDMDL
MODEL 6
REMARK VINA RESULT:      -6.3      3.498      9.958
REMARK  Name = 
REMARK  23 active torsions:
REMARK  status: ('A' for Active; 'I' for Inactive)
REMARK    1  A    between atoms: C_1  and  C_2
REMARK    2  A    between atoms: C_2  and  C_3
REMARK    3  A    between atoms: C_3  and  C_4
REMARK    4  A    between atoms: C_4  and  C_5
REMARK    5  A    between atoms: C_5  and  C_6
REMARK    6  A    between atoms: C_6  and  C_7
REMARK    7  A    between atoms: C_7  and  C_8
REMARK    8  A    between atoms: C_8  and  C_9
REMARK    9  A    between atoms: C_9  and  C_10
REMARK   10  A    between atoms: C_10  and  C_11
REMARK   11  A    between atoms: C_11  and  C_12
REMARK   12  A    between atoms: C_12  and  C_13
REMARK   13  A    between atoms: C_13  and  C_14
REMARK   14  A    between atoms: C_15  and  C_16
REMARK   15  A    between atoms: C_16  and  O_17
REMARK   16  A    between atoms: C_16  and  C_18
REMARK   17  A    between atoms: C_21  and  C_22
REMARK   18  A    between atoms: C_21  and  C_23
REMARK   19  A    between atoms: C_25  and  O_27
REMARK   20  A    between atoms: O_27  and  C_28
REMARK   21  A    between atoms: C_28  and  C_29
REMARK   22  A    between atoms: C_28  and  C_30
REMARK   23  A    between atoms: C_28  and  C_31
REMARK                            x       y       z     vdW  Elec       q    Type
REMARK                         _______ _______ _______ _____ _____    ______ ____
ROOT
ATOM      1  C   UNL     1       9.626  10.765  18.699  0.00  0.00    +0.000 C 
ENDROOT
BRANCH   1   2
ATOM      2  C   UNL     1       8.663  11.954  18.991  0.00  0.00    +0.000 C 
ATOM      3  C   UNL     1       8.562  12.934  17.828  0.00  0.00    +0.000 C 
ATOM      4  O   UNL     1       9.530  13.957  18.112  0.00  0.00    +0.000 OA
ATOM      5  C   UNL     1       9.546  14.108  19.553  0.00  0.00    +0.000 C 
ATOM      6  C   UNL     1       8.567  15.237  19.872  0.00  0.00    +0.000 C 
ATOM      7  C   UNL     1      10.968  14.454  19.977  0.00  0.00    +0.000 C 
ATOM      8  N   UNL     1       9.089  12.832  20.089  0.00  0.00    +0.000 N 
ATOM      9  C   UNL     1       9.011  12.401  21.405  0.00  0.00    +0.000 C 
ATOM     10  O   UNL     1       8.594  11.271  21.662  0.00  0.00    +0.000 OA
BRANCH   9  11
ATOM     11  O   UNL     1       9.397  13.321  22.361  0.00  0.00    +0.000 OA
BRANCH  11  12
ATOM     12  C   UNL     1       8.425  13.839  23.326  0.00  0.00    +0.000 C 
ATOM     13  C   UNL     1       8.795  15.266  23.743  0.00  0.00    +0.000 C 
ATOM     14  C   UNL     1       7.025  13.858  22.677  0.00  0.00    +0.000 C 
ATOM     15  C   UNL     1       8.359  12.922  24.549  0.00  0.00    +0.000 C 
ENDBRANCH  11  12
ENDBRANCH   9  11
ENDBRANCH   1   2
BRANCH   1  16
ATOM     16  O   UNL     1      10.621  11.082  17.718  0.00  0.00    +0.000 OA
ATOM     17  H   UNL     1      10.218  11.082  16.834  0.00  0.00    +0.000 HD
ENDBRANCH   1  16
BRANCH   1  19
ATOM     18  C   UNL     1       8.205   8.610  17.958  0.00  0.00    +0.000 C 
ATOM     19  C   UNL     1       8.860   9.581  18.254  0.00  0.00    +0.000 C 
BRANCH  18  20
ATOM     20  C   UNL     1       7.372   7.457  17.629  0.00  0.00    +0.000 C 
BRANCH  20  21
ATOM     21  C   UNL     1       7.514   6.374  18.695  0.00  0.00    +0.000 C 
BRANCH  21  22
ATOM     22  C   UNL     1       7.838   5.032  18.055  0.00  0.00    +0.000 C 
BRANCH  22  23
ATOM     23  C   UNL     1       7.052   4.859  16.767  0.00  0.00    +0.000 C 
BRANCH  23  24
ATOM     24  C   UNL     1       5.740   4.149  17.047  0.00  0.00    +0.000 C 
BRANCH  24  25
ATOM     25  C   UNL     1       4.587   4.933  16.448  0.00  0.00    +0.000 C 
BRANCH  25  26
ATOM     26  C   UNL     1       3.476   5.085  17.472  0.00  0.00    +0.000 C 
BRANCH  26  27
ATOM     27  C   UNL     1       3.818   6.201  18.442  0.00  0.00    +0.000 C 
BRANCH  27  28
ATOM     28  C   UNL     1       3.248   5.886  19.813  0.00  0.00    +0.000 C 
BRANCH  28  29
ATOM     29  C   UNL     1       1.879   5.246  19.671  0.00  0.00    +0.000 C 
BRANCH  29  30
ATOM     30  C   UNL     1       1.812   3.968  20.490  0.00  0.00    +0.000 C 
BRANCH  30  32
ATOM     31  C   UNL     1       1.506   2.172  18.789  0.00  0.00    +0.000 C 
ATOM     32  C   UNL     1       0.825   2.990  19.868  0.00  0.00    +0.000 C 
ENDBRANCH  30  32
ENDBRANCH  29  30
ENDBRANCH  28  29
ENDBRANCH  27  28
ENDBRANCH  26  27
ENDBRANCH  25  26
ENDBRANCH  24  25
ENDBRANCH  23  24
ENDBRANCH  22  23
ENDBRANCH  21  22
ENDBRANCH  20  21
ENDBRANCH  18  20
ENDBRANCH   1  19
TORSDOF 17
ENDMDL
MODEL 7
REMARK VINA RESULT:      -6.3      5.860     10.805
REMARK  Name = 
REMARK  23 active torsions:
REMARK  status: ('A' for Active; 'I' for Inactive)
REMARK    1  A    between atoms: C_1  and  C_2
REMARK    2  A    between atoms: C_2  and  C_3
REMARK    3  A    between atoms: C_3  and  C_4
REMARK    4  A    between atoms: C_4  and  C_5
REMARK    5  A    between atoms: C_5  and  C_6
REMARK    6  A    between atoms: C_6  and  C_7
REMARK    7  A    between atoms: C_7  and  C_8
REMARK    8  A    between atoms: C_8  and  C_9
REMARK    9  A    between atoms: C_9  and  C_10
REMARK   10  A    between atoms: C_10  and  C_11
REMARK   11  A    between atoms: C_11  and  C_12
REMARK   12  A    between atoms: C_12  and  C_13
REMARK   13  A    between atoms: C_13  and  C_14
REMARK   14  A    between atoms: C_15  and  C_16
REMARK   15  A    between atoms: C_16  and  O_17
REMARK   16  A    between atoms: C_16  and  C_18
REMARK   17  A    between atoms: C_21  and  C_22
REMARK   18  A    between atoms: C_21  and  C_23
REMARK   19  A    between atoms: C_25  and  O_27
REMARK   20  A    between atoms: O_27  and  C_28
REMARK   21  A    between atoms: C_28  and  C_29
REMARK   22  A    between atoms: C_28  and  C_30
REMARK   23  A    between atoms: C_28  and  C_31
REMARK                            x       y       z     vdW  Elec       q    Type
REMARK                         _______ _______ _______ _____ _____    ______ ____
ROOT
ATOM      1  C   UNL     1       1.567   9.586  18.470  0.00  0.00    +0.000 C 
ENDROOT
BRANCH   1   2
ATOM      2  C   UNL     1       0.941  10.462  19.596  0.00  0.00    +0.000 C 
ATOM      3  C   UNL     1      -0.263   9.804  20.258  0.00  0.00    +0.000 C 
ATOM      4  O   UNL     1      -1.407  10.313  19.553  0.00  0.00    +0.000 OA
ATOM      5  C   UNL     1      -1.081  11.678  19.190  0.00  0.00    +0.000 C 
ATOM      6  C   UNL     1      -1.640  12.558  20.308  0.00  0.00    +0.000 C 
ATOM      7  C   UNL     1      -1.738  11.981  17.848  0.00  0.00    +0.000 C 
ATOM      8  N   UNL     1       0.373  11.736  19.136  0.00  0.00    +0.000 N 
ATOM      9  C   UNL     1       1.204  12.775  18.742  0.00  0.00    +0.000 C 
ATOM     10  O   UNL     1       2.427  12.630  18.763  0.00  0.00    +0.000 OA
BRANCH   9  11
ATOM     11  O   UNL     1       0.568  13.943  18.368  0.00  0.00    +0.000 OA
BRANCH  11  12
ATOM     12  C   UNL     1       0.827  15.191  19.089  0.00  0.00    +0.000 C 
ATOM     13  C   UNL     1      -0.385  16.124  18.993  0.00  0.00    +0.000 C 
ATOM     14  C   UNL     1       1.095  14.874  20.574  0.00  0.00    +0.000 C 
ATOM     15  C   UNL     1       2.076  15.873  18.526  0.00  0.00    +0.000 C 
ENDBRANCH  11  12
ENDBRANCH   9  11
ENDBRANCH   1   2
BRANCH   1  16
ATOM     16  O   UNL     1       0.660   9.338  17.388  0.00  0.00    +0.000 OA
ATOM     17  H   UNL     1       0.356   8.415  17.423  0.00  0.00    +0.000 HD
ENDBRANCH   1  16
BRANCH   1  19
ATOM     18  C   UNL     1       2.386   7.209  19.413  0.00  0.00    +0.000 C 
ATOM     19  C   UNL     1       2.033   8.296  19.022  0.00  0.00    +0.000 C 
BRANCH  18  20
ATOM     20  C   UNL     1       2.826   5.881  19.835  0.00  0.00    +0.000 C 
BRANCH  20  21
ATOM     21  C   UNL     1       1.864   5.304  20.869  0.00  0.00    +0.000 C 
BRANCH  21  22
ATOM     22  C   UNL     1       1.895   3.784  20.839  0.00  0.00    +0.000 C 
BRANCH  22  23
ATOM     23  C   UNL     1       0.749   3.250  19.996  0.00  0.00    +0.000 C 
BRANCH  23  24
ATOM     24  C   UNL     1       1.234   2.111  19.118  0.00  0.00    +0.000 C 
BRANCH  24  25
ATOM     25  C   UNL     1       2.603   2.441  18.549  0.00  0.00    +0.000 C 
BRANCH  25  26
ATOM     26  C   UNL     1       2.462   3.409  17.388  0.00  0.00    +0.000 C 
BRANCH  26  27
ATOM     27  C   UNL     1       3.729   3.400  16.553  0.00  0.00    +0.000 C 
BRANCH  27  28
ATOM     28  C   UNL     1       4.825   4.169  17.269  0.00  0.00    +0.000 C 
BRANCH  28  29
ATOM     29  C   UNL     1       5.967   4.457  16.311  0.00  0.00    +0.000 C 
BRANCH  29  30
ATOM     30  C   UNL     1       5.488   4.330  14.875  0.00  0.00    +0.000 C 
BRANCH  30  32
ATOM     31  C   UNL     1       6.369   3.654  12.643  0.00  0.00    +0.000 C 
ATOM     32  C   UNL     1       6.663   4.428  13.913  0.00  0.00    +0.000 C 
ENDBRANCH  30  32
ENDBRANCH  29  30
ENDBRANCH  28  29
ENDBRANCH  27  28
ENDBRANCH  26  27
ENDBRANCH  25  26
ENDBRANCH  24  25
ENDBRANCH  23  24
ENDBRANCH  22  23
ENDBRANCH  21  22
ENDBRANCH  20  21
ENDBRANCH  18  20
ENDBRANCH   1  19
TORSDOF 17
ENDMDL
MODEL 8
REMARK VINA RESULT:      -6.3      6.232     10.224
REMARK  Name = 
REMARK  23 active torsions:
REMARK  status: ('A' for Active; 'I' for Inactive)
REMARK    1  A    between atoms: C_1  and  C_2
REMARK    2  A    between atoms: C_2  and  C_3
REMARK    3  A    between atoms: C_3  and  C_4
REMARK    4  A    between atoms: C_4  and  C_5
REMARK    5  A    between atoms: C_5  and  C_6
REMARK    6  A    between atoms: C_6  and  C_7
REMARK    7  A    between atoms: C_7  and  C_8
REMARK    8  A    between atoms: C_8  and  C_9
REMARK    9  A    between atoms: C_9  and  C_10
REMARK   10  A    between atoms: C_10  and  C_11
REMARK   11  A    between atoms: C_11  and  C_12
REMARK   12  A    between atoms: C_12  and  C_13
REMARK   13  A    between atoms: C_13  and  C_14
REMARK   14  A    between atoms: C_15  and  C_16
REMARK   15  A    between atoms: C_16  and  O_17
REMARK   16  A    between atoms: C_16  and  C_18
REMARK   17  A    between atoms: C_21  and  C_22
REMARK   18  A    between atoms: C_21  and  C_23
REMARK   19  A    between atoms: C_25  and  O_27
REMARK   20  A    between atoms: O_27  and  C_28
REMARK   21  A    between atoms: C_28  and  C_29
REMARK   22  A    between atoms: C_28  and  C_30
REMARK   23  A    between atoms: C_28  and  C_31
REMARK                            x       y       z     vdW  Elec       q    Type
REMARK                         _______ _______ _______ _____ _____    ______ ____
ROOT
ATOM      1  C   UNL     1       0.238  10.037  21.020  0.00  0.00    +0.000 C 
ENDROOT
BRANCH   1   2
ATOM      2  C   UNL     1       0.553  11.292  20.153  0.00  0.00    +0.000 C 
ATOM      3  C   UNL     1       0.924  12.511  20.988  0.00  0.00    +0.000 C 
ATOM      4  O   UNL     1      -0.304  13.235  21.166  0.00  0.00    +0.000 OA
ATOM      5  C   UNL     1      -1.062  13.047  19.945  0.00  0.00    +0.000 C 
ATOM      6  C   UNL     1      -0.730  14.242  19.052  0.00  0.00    +0.000 C 
ATOM      7  C   UNL     1      -2.542  13.005  20.308  0.00  0.00    +0.000 C 
ATOM      8  N   UNL     1      -0.583  11.797  19.371  0.00  0.00    +0.000 N 
ATOM      9  C   UNL     1      -1.037  11.101  18.260  0.00  0.00    +0.000 C 
ATOM     10  O   UNL     1      -0.496  10.045  17.929  0.00  0.00    +0.000 OA
BRANCH   9  11
ATOM     11  O   UNL     1      -2.082  11.686  17.572  0.00  0.00    +0.000 OA
BRANCH  11  12
ATOM     12  C   UNL     1      -3.124  10.856  16.963  0.00  0.00    +0.000 C 
ATOM     13  C   UNL     1      -3.330   9.574  17.779  0.00  0.00    +0.000 C 
ATOM     14  C   UNL     1      -4.449  11.644  16.933  0.00  0.00    +0.000 C 
ATOM     15  C   UNL     1      -2.749  10.519  15.518  0.00  0.00    +0.000 C 
ENDBRANCH  11  12
ENDBRANCH   9  11
ENDBRANCH   1   2
BRANCH   1  16
ATOM     16  O   UNL     1       0.456  10.258  22.420  0.00  0.00    +0.000 OA
ATOM     17  H   UNL     1      -0.313  10.713  22.801  0.00  0.00    +0.000 HD
ENDBRANCH   1  16
BRANCH   1  19
ATOM     18  C   UNL     1       1.680   7.904  20.258  0.00  0.00    +0.000 C 
ATOM     19  C   UNL     1       1.052   8.886  20.575  0.00  0.00    +0.000 C 
BRANCH  18  20
ATOM     20  C   UNL     1       2.393   6.687  19.878  0.00  0.00    +0.000 C 
BRANCH  20  21
ATOM     21  C   UNL     1       2.746   6.718  18.393  0.00  0.00    +0.000 C 
BRANCH  21  22
ATOM     22  C   UNL     1       4.247   6.563  18.197  0.00  0.00    +0.000 C 
BRANCH  22  23
ATOM     23  C   UNL     1       4.575   6.434  16.720  0.00  0.00    +0.000 C 
BRANCH  23  24
ATOM     24  C   UNL     1       5.965   5.850  16.543  0.00  0.00    +0.000 C 
BRANCH  24  25
ATOM     25  C   UNL     1       5.901   4.334  16.590  0.00  0.00    +0.000 C 
BRANCH  25  26
ATOM     26  C   UNL     1       4.475   3.868  16.359  0.00  0.00    +0.000 C 
BRANCH  26  27
ATOM     27  C   UNL     1       4.087   2.851  17.416  0.00  0.00    +0.000 C 
BRANCH  27  28
ATOM     28  C   UNL     1       2.575   2.772  17.526  0.00  0.00    +0.000 C 
BRANCH  28  29
ATOM     29  C   UNL     1       2.140   3.124  18.937  0.00  0.00    +0.000 C 
BRANCH  29  30
ATOM     30  C   UNL     1       3.254   2.811  19.921  0.00  0.00    +0.000 C 
BRANCH  30  32
ATOM     31  C   UNL     1       1.213   2.994  21.339  0.00  0.00    +0.000 C 
ATOM     32  C   UNL     1       2.700   2.698  21.333  0.00  0.00    +0.000 C 
ENDBRANCH  30  32
ENDBRANCH  29  30
ENDBRANCH  28  29
ENDBRANCH  27  28
ENDBRANCH  26  27
ENDBRANCH  25  26
ENDBRANCH  24  25
ENDBRANCH  23  24
ENDBRANCH  22  23
ENDBRANCH  21  22
ENDBRANCH  20  21
ENDBRANCH  18  20
ENDBRANCH   1  19
TORSDOF 17
ENDMDL
MODEL 9
REMARK VINA RESULT:      -6.2      5.610      8.211
REMARK  Name = 
REMARK  23 active torsions:
REMARK  status: ('A' for Active; 'I' for Inactive)
REMARK    1  A    between atoms: C_1  and  C_2
REMARK    2  A    between atoms: C_2  and  C_3
REMARK    3  A    between atoms: C_3  and  C_4
REMARK    4  A    between atoms: C_4  and  C_5
REMARK    5  A    between atoms: C_5  and  C_6
REMARK    6  A    between atoms: C_6  and  C_7
REMARK    7  A    between atoms: C_7  and  C_8
REMARK    8  A    between atoms: C_8  and  C_9
REMARK    9  A    between atoms: C_9  and  C_10
REMARK   10  A    between atoms: C_10  and  C_11
REMARK   11  A    between atoms: C_11  and  C_12
REMARK   12  A    between atoms: C_12  and  C_13
REMARK   13  A    between atoms: C_13  and  C_14
REMARK   14  A    between atoms: C_15  and  C_16
REMARK   15  A    between atoms: C_16  and  O_17
REMARK   16  A    between atoms: C_16  and  C_18
REMARK   17  A    between atoms: C_21  and  C_22
REMARK   18  A    between atoms: C_21  and  C_23
REMARK   19  A    between atoms: C_25  and  O_27
REMARK   20  A    between atoms: O_27  and  C_28
REMARK   21  A    between atoms: C_28  and  C_29
REMARK   22  A    between atoms: C_28  and  C_30
REMARK   23  A    between atoms: C_28  and  C_31
REMARK                            x       y       z     vdW  Elec       q    Type
REMARK                         _______ _______ _______ _____ _____    ______ ____
ROOT
ATOM      1  C   UNL     1       2.400   5.801  20.603  0.00  0.00    +0.000 C 
ENDROOT
BRANCH   1   2
ATOM      2  C   UNL     1       2.051   5.069  19.273  0.00  0.00    +0.000 C 
ATOM      3  C   UNL     1       1.046   3.941  19.463  0.00  0.00    +0.000 C 
ATOM      4  O   UNL     1       1.837   2.754  19.631  0.00  0.00    +0.000 OA
ATOM      5  C   UNL     1       3.006   2.927  18.791  0.00  0.00    +0.000 C 
ATOM      6  C   UNL     1       2.670   2.261  17.456  0.00  0.00    +0.000 C 
ATOM      7  C   UNL     1       4.187   2.253  19.478  0.00  0.00    +0.000 C 
ATOM      8  N   UNL     1       3.179   4.366  18.646  0.00  0.00    +0.000 N 
ATOM      9  C   UNL     1       4.196   5.078  18.028  0.00  0.00    +0.000 C 
ATOM     10  O   UNL     1       4.167   6.309  18.012  0.00  0.00    +0.000 OA
BRANCH   9  11
ATOM     11  O   UNL     1       5.185   4.317  17.435  0.00  0.00    +0.000 OA
BRANCH  11  12
ATOM     12  C   UNL     1       5.962   4.855  16.316  0.00  0.00    +0.000 C 
ATOM     13  C   UNL     1       7.323   5.361  16.806  0.00  0.00    +0.000 C 
ATOM     14  C   UNL     1       6.191   3.741  15.274  0.00  0.00    +0.000 C 
ATOM     15  C   UNL     1       5.185   5.981  15.630  0.00  0.00    +0.000 C 
ENDBRANCH  11  12
ENDBRANCH   9  11
ENDBRANCH   1   2
BRANCH   1  16
ATOM     16  O   UNL     1       2.383   4.927  21.739  0.00  0.00    +0.000 OA
ATOM     17  H   UNL     1       2.478   4.006  21.443  0.00  0.00    +0.000 HD
ENDBRANCH   1  16
BRANCH   1  19
ATOM     18  C   UNL     1       0.745   7.861  21.077  0.00  0.00    +0.000 C 
ATOM     19  C   UNL     1       1.464   6.922  20.834  0.00  0.00    +0.000 C 
BRANCH  18  20
ATOM     20  C   UNL     1      -0.081   9.028  21.377  0.00  0.00    +0.000 C 
BRANCH  20  21
ATOM     21  C   UNL     1      -0.046   9.336  22.872  0.00  0.00    +0.000 C 
BRANCH  21  22
ATOM     22  C   UNL     1      -0.974  10.495  23.201  0.00  0.00    +0.000 C 
BRANCH  22  23
ATOM     23  C   UNL     1      -1.081  11.438  22.015  0.00  0.00    +0.000 C 
BRANCH  23  24
ATOM     24  C   UNL     1      -0.842  12.869  22.463  0.00  0.00    +0.000 C 
BRANCH  24  25
ATOM     25  C   UNL     1      -0.298  13.690  21.309  0.00  0.00    +0.000 C 
BRANCH  25  26
ATOM     26  C   UNL     1      -1.187  13.524  20.090  0.00  0.00    +0.000 C 
BRANCH  26  27
ATOM     27  C   UNL     1      -0.356  13.075  18.902  0.00  0.00    +0.000 C 
BRANCH  27  28
ATOM     28  C   UNL     1      -1.218  12.278  17.940  0.00  0.00    +0.000 C 
BRANCH  28  29
ATOM     29  C   UNL     1      -1.168  10.804  18.300  0.00  0.00    +0.000 C 
BRANCH  29  30
ATOM     30  C   UNL     1      -1.905   9.985  17.253  0.00  0.00    +0.000 C 
BRANCH  30  32
ATOM     31  C   UNL     1      -2.985  10.186  15.016  0.00  0.00    +0.000 C 
ATOM     32  C   UNL     1      -2.689  10.897  16.322  0.00  0.00    +0.000 C 
ENDBRANCH  30  32
ENDBRANCH  29  30
ENDBRANCH  28  29
ENDBRANCH  27  28
ENDBRANCH  26  27
ENDBRANCH  25  26
ENDBRANCH  24  25
ENDBRANCH  23  24
ENDBRANCH  22  23
ENDBRANCH  21  22
ENDBRANCH  20  21
ENDBRANCH  18  20
ENDBRANCH   1  19
TORSDOF 17
ENDMDL
