MODEL 1
REMARK VINA RESULT:      -7.3      0.000      0.000
REMARK  Name = 
REMARK  5 active torsions:
REMARK  status: ('A' for Active; 'I' for Inactive)
REMARK    1  A    between atoms: C_1  and  N_2
REMARK    2  A    between atoms: C_3  and  S_4
REMARK    3  A    between atoms: C_7  and  C_8
REMARK    4  A    between atoms: C_8  and  N_9
REMARK    5  A    between atoms: C_10  and  C_11
REMARK                            x       y       z     vdW  Elec       q    Type
REMARK                         _______ _______ _______ _____ _____    ______ ____
ROOT
ATOM      1  N   UNL     1       3.120   5.132  19.120  0.00  0.00    +0.000 N 
ATOM      2  C   UNL     1       2.330   4.155  18.560  0.00  0.00    +0.000 A 
ATOM      3  N   UNL     1       2.864   3.707  17.442  0.00  0.00    +0.000 NA
ATOM      4  C   UNL     1       4.046   4.382  17.297  0.00  0.00    +0.000 A 
ATOM      5  C   UNL     1       4.937   4.409  16.218  0.00  0.00    +0.000 A 
ATOM      6  C   UNL     1       6.112   5.166  16.340  0.00  0.00    +0.000 A 
ATOM      7 CL   UNL     1       7.104   5.321  14.931  0.00  0.00    +0.000 Cl
ATOM      8  C   UNL     1       6.434   5.800  17.548  0.00  0.00    +0.000 A 
ATOM      9 CL   UNL     1       7.939   6.618  17.785  0.00  0.00    +0.000 Cl
ATOM     10  C   UNL     1       5.528   5.816  18.618  0.00  0.00    +0.000 A 
ATOM     11  C   UNL     1       4.313   5.148  18.424  0.00  0.00    +0.000 A 
ENDROOT
BRANCH   2  12
ATOM     12  C   UNL     1       1.001   3.644  19.109  0.00  0.00    +0.000 C 
ATOM     13  C   UNL     1       0.688   2.166  18.999  0.00  0.00    +0.000 C 
ATOM     14  C   UNL     1       1.062   2.737  20.323  0.00  0.00    +0.000 C 
ENDBRANCH   2  12
BRANCH   1  15
ATOM     15  C   UNL     1       2.641   6.233  19.939  0.00  0.00    +0.000 C 
BRANCH  15  21
ATOM     16  C   UNL     1       1.064   8.803  21.092  0.00  0.00    +0.000 C 
ATOM     17  N   UNL     1       1.526   8.585  19.745  0.00  0.00    +0.000 N 
ATOM     18  C   UNL     1       1.398   9.430  18.670  0.00  0.00    +0.000 A 
ATOM     19  N   UNL     1       1.981   8.912  17.617  0.00  0.00    +0.000 NA
ATOM     20  N   UNL     1       2.478   7.693  17.979  0.00  0.00    +0.000 NA
ATOM     21  C   UNL     1       2.213   7.489  19.264  0.00  0.00    +0.000 A 
BRANCH  18  22
ATOM     22  S   UNL     1       0.614  10.968  18.676  0.00  0.00    +0.000 S 
ATOM     23  H   UNL     1      -0.170  10.825  19.750  0.00  0.00    +0.000 HD
ENDBRANCH  18  22
ENDBRANCH  15  21
ENDBRANCH   1  15
TORSDOF 4
ENDMDL
MODEL 2
REMARK VINA RESULT:      -7.0      3.481      5.554
REMARK  Name = 
REMARK  5 active torsions:
REMARK  status: ('A' for Active; 'I' for Inactive)
REMARK    1  A    between atoms: C_1  and  N_2
REMARK    2  A    between atoms: C_3  and  S_4
REMARK    3  A    between atoms: C_7  and  C_8
REMARK    4  A    between atoms: C_8  and  N_9
REMARK    5  A    between atoms: C_10  and  C_11
REMARK                            x       y       z     vdW  Elec       q    Type
REMARK                         _______ _______ _______ _____ _____    ______ ____
ROOT
ATOM      1  N   UNL     1       3.170   5.585  19.605  0.00  0.00    +0.000 N 
ATOM      2  C   UNL     1       2.470   4.819  20.509  0.00  0.00    +0.000 A 
ATOM      3  N   UNL     1       1.514   5.525  21.078  0.00  0.00    +0.000 NA
ATOM      4  C   UNL     1       1.572   6.763  20.499  0.00  0.00    +0.000 A 
ATOM      5  C   UNL     1       0.892   7.942  20.832  0.00  0.00    +0.000 A 
ATOM      6  C   UNL     1       1.108   9.082  20.045  0.00  0.00    +0.000 A 
ATOM      7 CL   UNL     1       0.392  10.563  20.583  0.00  0.00    +0.000 Cl
ATOM      8  C   UNL     1       1.908   9.020  18.896  0.00  0.00    +0.000 A 
ATOM      9 CL   UNL     1       2.080  10.364  17.820  0.00  0.00    +0.000 Cl
ATOM     10  C   UNL     1       2.628   7.859  18.580  0.00  0.00    +0.000 A 
ATOM     11  C   UNL     1       2.481   6.772  19.450  0.00  0.00    +0.000 A 
ENDROOT
BRANCH   2  12
ATOM     12  C   UNL     1       2.742   3.357  20.855  0.00  0.00    +0.000 C 
ATOM     13  C   UNL     1       1.675   2.573  21.589  0.00  0.00    +0.000 C 
ATOM     14  C   UNL     1       1.903   2.315  20.140  0.00  0.00    +0.000 C 
ENDBRANCH   2  12
BRANCH   1  15
ATOM     15  C   UNL     1       4.569   5.403  19.255  0.00  0.00    +0.000 C 
BRANCH  15  21
ATOM     16  C   UNL     1       6.985   6.288  17.305  0.00  0.00    +0.000 C 
ATOM     17  N   UNL     1       5.927   5.350  17.027  0.00  0.00    +0.000 N 
ATOM     18  C   UNL     1       5.730   4.630  15.874  0.00  0.00    +0.000 A 
ATOM     19  N   UNL     1       4.688   3.846  16.005  0.00  0.00    +0.000 NA
ATOM     20  N   UNL     1       4.162   4.064  17.246  0.00  0.00    +0.000 NA
ATOM     21  C   UNL     1       4.906   4.966  17.873  0.00  0.00    +0.000 A 
BRANCH  18  22
ATOM     22  S   UNL     1       6.706   4.704  14.453  0.00  0.00    +0.000 S 
ATOM     23  H   UNL     1       7.896   4.384  14.971  0.00  0.00    +0.000 HD
ENDBRANCH  18  22
ENDBRANCH  15  21
ENDBRANCH   1  15
TORSDOF 4
ENDMDL
MODEL 3
REMARK VINA RESULT:      -6.8      3.581      5.470
REMARK  Name = 
REMARK  5 active torsions:
REMARK  status: ('A' for Active; 'I' for Inactive)
REMARK    1  A    between atoms: C_1  and  N_2
REMARK    2  A    between atoms: C_3  and  S_4
REMARK    3  A    between atoms: C_7  and  C_8
REMARK    4  A    between atoms: C_8  and  N_9
REMARK    5  A    between atoms: C_10  and  C_11
REMARK                            x       y       z     vdW  Elec       q    Type
REMARK                         _______ _______ _______ _____ _____    ______ ____
ROOT
ATOM      1  N   UNL     1       3.213   5.665  19.606  0.00  0.00    +0.000 N 
ATOM      2  C   UNL     1       2.504   4.859  20.467  0.00  0.00    +0.000 A 
ATOM      3  N   UNL     1       1.506   5.523  21.013  0.00  0.00    +0.000 NA
ATOM      4  C   UNL     1       1.546   6.775  20.462  0.00  0.00    +0.000 A 
ATOM      5  C   UNL     1       0.817   7.925  20.792  0.00  0.00    +0.000 A 
ATOM      6  C   UNL     1       1.027   9.088  20.037  0.00  0.00    +0.000 A 
ATOM      7 CL   UNL     1       0.245  10.534  20.577  0.00  0.00    +0.000 Cl
ATOM      8  C   UNL     1       1.871   9.075  18.917  0.00  0.00    +0.000 A 
ATOM      9 CL   UNL     1       2.041  10.446  17.876  0.00  0.00    +0.000 Cl
ATOM     10  C   UNL     1       2.638   7.943  18.607  0.00  0.00    +0.000 A 
ATOM     11  C   UNL     1       2.494   6.834  19.448  0.00  0.00    +0.000 A 
ENDROOT
BRANCH   2  12
ATOM     12  C   UNL     1       2.808   3.399  20.794  0.00  0.00    +0.000 C 
ATOM     13  C   UNL     1       1.779   2.596  21.561  0.00  0.00    +0.000 C 
ATOM     14  C   UNL     1       1.958   2.350  20.103  0.00  0.00    +0.000 C 
ENDBRANCH   2  12
BRANCH   1  15
ATOM     15  C   UNL     1       4.628   5.534  19.306  0.00  0.00    +0.000 C 
BRANCH  15  21
ATOM     16  C   UNL     1       4.248   3.249  17.056  0.00  0.00    +0.000 C 
ATOM     17  N   UNL     1       4.909   4.522  16.916  0.00  0.00    +0.000 N 
ATOM     18  C   UNL     1       5.511   5.032  15.792  0.00  0.00    +0.000 A 
ATOM     19  N   UNL     1       5.967   6.237  16.032  0.00  0.00    +0.000 NA
ATOM     20  N   UNL     1       5.698   6.527  17.339  0.00  0.00    +0.000 NA
ATOM     21  C   UNL     1       5.054   5.499  17.880  0.00  0.00    +0.000 A 
BRANCH  18  22
ATOM     22  S   UNL     1       5.642   4.241  14.264  0.00  0.00    +0.000 S 
ATOM     23  H   UNL     1       4.362   3.909  14.064  0.00  0.00    +0.000 HD
ENDBRANCH  18  22
ENDBRANCH  15  21
ENDBRANCH   1  15
TORSDOF 4
ENDMDL
MODEL 4
REMARK VINA RESULT:      -6.8      3.922      5.709
REMARK  Name = 
REMARK  5 active torsions:
REMARK  status: ('A' for Active; 'I' for Inactive)
REMARK    1  A    between atoms: C_1  and  N_2
REMARK    2  A    between atoms: C_3  and  S_4
REMARK    3  A    between atoms: C_7  and  C_8
REMARK    4  A    between atoms: C_8  and  N_9
REMARK    5  A    between atoms: C_10  and  C_11
REMARK                            x       y       z     vdW  Elec       q    Type
REMARK                         _______ _______ _______ _____ _____    ______ ____
ROOT
ATOM      1  N   UNL     1       4.434   5.568  18.581  0.00  0.00    +0.000 N 
ATOM      2  C   UNL     1       4.053   4.502  19.364  0.00  0.00    +0.000 A 
ATOM      3  N   UNL     1       2.993   4.808  20.084  0.00  0.00    +0.000 NA
ATOM      4  C   UNL     1       2.657   6.086  19.729  0.00  0.00    +0.000 A 
ATOM      5  C   UNL     1       1.712   6.954  20.288  0.00  0.00    +0.000 A 
ATOM      6  C   UNL     1       1.536   8.217  19.704  0.00  0.00    +0.000 A 
ATOM      7 CL   UNL     1       0.491   9.328  20.520  0.00  0.00    +0.000 Cl
ATOM      8  C   UNL     1       2.220   8.566  18.531  0.00  0.00    +0.000 A 
ATOM      9 CL   UNL     1       1.922  10.054  17.700  0.00  0.00    +0.000 Cl
ATOM     10  C   UNL     1       3.201   7.723  17.990  0.00  0.00    +0.000 A 
ATOM     11  C   UNL     1       3.435   6.518  18.662  0.00  0.00    +0.000 A 
ENDROOT
BRANCH   2  12
ATOM     12  C   UNL     1       4.745   3.144  19.439  0.00  0.00    +0.000 C 
ATOM     13  C   UNL     1       4.279   2.146  20.479  0.00  0.00    +0.000 C 
ATOM     14  C   UNL     1       3.922   1.931  19.049  0.00  0.00    +0.000 C 
ENDBRANCH   2  12
BRANCH   1  15
ATOM     15  C   UNL     1       5.793   5.850  18.150  0.00  0.00    +0.000 C 
BRANCH  15  21
ATOM     16  C   UNL     1       4.340   3.944  15.987  0.00  0.00    +0.000 C 
ATOM     17  N   UNL     1       5.587   4.652  15.841  0.00  0.00    +0.000 N 
ATOM     18  C   UNL     1       6.415   4.669  14.745  0.00  0.00    +0.000 A 
ATOM     19  N   UNL     1       7.436   5.460  14.964  0.00  0.00    +0.000 NA
ATOM     20  N   UNL     1       7.310   5.955  16.230  0.00  0.00    +0.000 NA
ATOM     21  C   UNL     1       6.193   5.477  16.766  0.00  0.00    +0.000 A 
BRANCH  18  22
ATOM     22  S   UNL     1       6.165   3.808  13.270  0.00  0.00    +0.000 S 
ATOM     23  H   UNL     1       7.416   3.406  13.021  0.00  0.00    +0.000 HD
ENDBRANCH  18  22
ENDBRANCH  15  21
ENDBRANCH   1  15
TORSDOF 4
ENDMDL
MODEL 5
REMARK VINA RESULT:      -6.5      3.356      5.486
REMARK  Name = 
REMARK  5 active torsions:
REMARK  status: ('A' for Active; 'I' for Inactive)
REMARK    1  A    between atoms: C_1  and  N_2
REMARK    2  A    between atoms: C_3  and  S_4
REMARK    3  A    between atoms: C_7  and  C_8
REMARK    4  A    between atoms: C_8  and  N_9
REMARK    5  A    between atoms: C_10  and  C_11
REMARK                            x       y       z     vdW  Elec       q    Type
REMARK                         _______ _______ _______ _____ _____    ______ ____
ROOT
ATOM      1  N   UNL     1       5.694   4.631  16.256  0.00  0.00    +0.000 N 
ATOM      2  C   UNL     1       6.628   5.568  16.634  0.00  0.00    +0.000 A 
ATOM      3  N   UNL     1       7.442   5.845  15.636  0.00  0.00    +0.000 NA
ATOM      4  C   UNL     1       7.000   5.100  14.577  0.00  0.00    +0.000 A 
ATOM      5  C   UNL     1       7.581   4.893  13.320  0.00  0.00    +0.000 A 
ATOM      6  C   UNL     1       6.895   4.102  12.388  0.00  0.00    +0.000 A 
ATOM      7 CL   UNL     1       7.716   3.722  10.913  0.00  0.00    +0.000 Cl
ATOM      8  C   UNL     1       5.613   3.609  12.671  0.00  0.00    +0.000 A 
ATOM      9 CL   UNL     1       4.674   2.755  11.496  0.00  0.00    +0.000 Cl
ATOM     10  C   UNL     1       5.042   3.773  13.942  0.00  0.00    +0.000 A 
ATOM     11  C   UNL     1       5.802   4.470  14.888  0.00  0.00    +0.000 A 
ENDROOT
BRANCH   2  12
ATOM     12  C   UNL     1       6.757   6.209  18.014  0.00  0.00    +0.000 C 
ATOM     13  C   UNL     1       7.881   5.758  18.923  0.00  0.00    +0.000 C 
ATOM     14  C   UNL     1       7.972   7.085  18.253  0.00  0.00    +0.000 C 
ENDBRANCH   2  12
BRANCH   1  15
ATOM     15  C   UNL     1       5.064   3.668  17.142  0.00  0.00    +0.000 C 
BRANCH  15  21
ATOM     16  C   UNL     1       3.739   2.417  19.807  0.00  0.00    +0.000 C 
ATOM     17  N   UNL     1       3.283   3.552  19.046  0.00  0.00    +0.000 N 
ATOM     18  C   UNL     1       2.190   4.345  19.300  0.00  0.00    +0.000 A 
ATOM     19  N   UNL     1       2.117   5.309  18.416  0.00  0.00    +0.000 NA
ATOM     20  N   UNL     1       3.152   5.145  17.541  0.00  0.00    +0.000 NA
ATOM     21  C   UNL     1       3.865   4.089  17.915  0.00  0.00    +0.000 A 
BRANCH  18  22
ATOM     22  S   UNL     1       1.072   4.145  20.600  0.00  0.00    +0.000 S 
ATOM     23  H   UNL     1       0.251   3.236  20.062  0.00  0.00    +0.000 HD
ENDBRANCH  18  22
ENDBRANCH  15  21
ENDBRANCH   1  15
TORSDOF 4
ENDMDL
MODEL 6
REMARK VINA RESULT:      -6.5      3.641      5.764
REMARK  Name = 
REMARK  5 active torsions:
REMARK  status: ('A' for Active; 'I' for Inactive)
REMARK    1  A    between atoms: C_1  and  N_2
REMARK    2  A    between atoms: C_3  and  S_4
REMARK    3  A    between atoms: C_7  and  C_8
REMARK    4  A    between atoms: C_8  and  N_9
REMARK    5  A    between atoms: C_10  and  C_11
REMARK                            x       y       z     vdW  Elec       q    Type
REMARK                         _______ _______ _______ _____ _____    ______ ____
ROOT
ATOM      1  N   UNL     1       4.795   4.825  17.363  0.00  0.00    +0.000 N 
ATOM      2  C   UNL     1       5.553   5.271  16.305  0.00  0.00    +0.000 A 
ATOM      3  N   UNL     1       5.254   6.520  16.010  0.00  0.00    +0.000 NA
ATOM      4  C   UNL     1       4.311   6.903  16.923  0.00  0.00    +0.000 A 
ATOM      5  C   UNL     1       3.538   8.069  16.981  0.00  0.00    +0.000 A 
ATOM      6  C   UNL     1       2.655   8.234  18.058  0.00  0.00    +0.000 A 
ATOM      7 CL   UNL     1       1.592   9.598  18.009  0.00  0.00    +0.000 Cl
ATOM      8  C   UNL     1       2.617   7.301  19.103  0.00  0.00    +0.000 A 
ATOM      9 CL   UNL     1       1.651   7.542  20.518  0.00  0.00    +0.000 Cl
ATOM     10  C   UNL     1       3.352   6.109  19.033  0.00  0.00    +0.000 A 
ATOM     11  C   UNL     1       4.137   5.920  17.889  0.00  0.00    +0.000 A 
ENDROOT
BRANCH   2  12
ATOM     12  C   UNL     1       6.591   4.461  15.533  0.00  0.00    +0.000 C 
ATOM     13  C   UNL     1       6.172   3.774  14.251  0.00  0.00    +0.000 C 
ATOM     14  C   UNL     1       7.016   4.999  14.180  0.00  0.00    +0.000 C 
ENDBRANCH   2  12
BRANCH   1  15
ATOM     15  C   UNL     1       4.389   3.448  17.584  0.00  0.00    +0.000 C 
BRANCH  15  21
ATOM     16  C   UNL     1       1.367   3.278  18.709  0.00  0.00    +0.000 C 
ATOM     17  N   UNL     1       2.589   3.003  19.421  0.00  0.00    +0.000 N 
ATOM     18  C   UNL     1       2.723   2.603  20.729  0.00  0.00    +0.000 A 
ATOM     19  N   UNL     1       3.986   2.407  21.013  0.00  0.00    +0.000 NA
ATOM     20  N   UNL     1       4.712   2.707  19.896  0.00  0.00    +0.000 NA
ATOM     21  C   UNL     1       3.877   3.063  18.928  0.00  0.00    +0.000 A 
BRANCH  18  22
ATOM     22  S   UNL     1       1.435   2.360  21.852  0.00  0.00    +0.000 S 
ATOM     23  H   UNL     1       1.422   1.023  21.905  0.00  0.00    +0.000 HD
ENDBRANCH  18  22
ENDBRANCH  15  21
ENDBRANCH   1  15
TORSDOF 4
ENDMDL
MODEL 7
REMARK VINA RESULT:      -6.3      1.234      1.671
REMARK  Name = 
REMARK  5 active torsions:
REMARK  status: ('A' for Active; 'I' for Inactive)
REMARK    1  A    between atoms: C_1  and  N_2
REMARK    2  A    between atoms: C_3  and  S_4
REMARK    3  A    between atoms: C_7  and  C_8
REMARK    4  A    between atoms: C_8  and  N_9
REMARK    5  A    between atoms: C_10  and  C_11
REMARK                            x       y       z     vdW  Elec       q    Type
REMARK                         _______ _______ _______ _____ _____    ______ ____
ROOT
ATOM      1  N   UNL     1       2.869   5.846  18.046  0.00  0.00    +0.000 N 
ATOM      2  C   UNL     1       2.412   4.548  18.021  0.00  0.00    +0.000 A 
ATOM      3  N   UNL     1       3.309   3.748  17.484  0.00  0.00    +0.000 NA
ATOM      4  C   UNL     1       4.386   4.539  17.191  0.00  0.00    +0.000 A 
ATOM      5  C   UNL     1       5.552   4.240  16.474  0.00  0.00    +0.000 A 
ATOM      6  C   UNL     1       6.531   5.235  16.345  0.00  0.00    +0.000 A 
ATOM      7 CL   UNL     1       7.875   4.894  15.310  0.00  0.00    +0.000 Cl
ATOM      8  C   UNL     1       6.393   6.467  17.000  0.00  0.00    +0.000 A 
ATOM      9 CL   UNL     1       7.643   7.662  16.986  0.00  0.00    +0.000 Cl
ATOM     10  C   UNL     1       5.212   6.792  17.681  0.00  0.00    +0.000 A 
ATOM     11  C   UNL     1       4.205   5.820  17.695  0.00  0.00    +0.000 A 
ENDROOT
BRANCH   2  12
ATOM     12  C   UNL     1       1.053   4.060  18.516  0.00  0.00    +0.000 C 
ATOM     13  C   UNL     1       0.899   2.604  18.903  0.00  0.00    +0.000 C 
ATOM     14  C   UNL     1       0.961   3.642  19.971  0.00  0.00    +0.000 C 
ENDBRANCH   2  12
BRANCH   1  15
ATOM     15  C   UNL     1       2.032   7.032  17.978  0.00  0.00    +0.000 C 
BRANCH  15  21
ATOM     16  C   UNL     1       0.814   9.981  18.476  0.00  0.00    +0.000 C 
ATOM     17  N   UNL     1       1.188   9.003  19.467  0.00  0.00    +0.000 N 
ATOM     18  C   UNL     1       1.098   9.120  20.832  0.00  0.00    +0.000 A 
ATOM     19  N   UNL     1       1.491   8.010  21.406  0.00  0.00    +0.000 NA
ATOM     20  N   UNL     1       1.878   7.150  20.419  0.00  0.00    +0.000 NA
ATOM     21  C   UNL     1       1.695   7.739  19.244  0.00  0.00    +0.000 A 
BRANCH  18  22
ATOM     22  S   UNL     1       0.530  10.502  21.697  0.00  0.00    +0.000 S 
ATOM     23  H   UNL     1       1.559  11.335  21.505  0.00  0.00    +0.000 HD
ENDBRANCH  18  22
ENDBRANCH  15  21
ENDBRANCH   1  15
TORSDOF 4
ENDMDL
MODEL 8
REMARK VINA RESULT:      -6.2      3.188      5.182
REMARK  Name = 
REMARK  5 active torsions:
REMARK  status: ('A' for Active; 'I' for Inactive)
REMARK    1  A    between atoms: C_1  and  N_2
REMARK    2  A    between atoms: C_3  and  S_4
REMARK    3  A    between atoms: C_7  and  C_8
REMARK    4  A    between atoms: C_8  and  N_9
REMARK    5  A    between atoms: C_10  and  C_11
REMARK                            x       y       z     vdW  Elec       q    Type
REMARK                         _______ _______ _______ _____ _____    ______ ____
ROOT
ATOM      1  N   UNL     1       5.721   3.860  16.103  0.00  0.00    +0.000 N 
ATOM      2  C   UNL     1       5.778   4.304  14.802  0.00  0.00    +0.000 A 
ATOM      3  N   UNL     1       6.427   5.447  14.726  0.00  0.00    +0.000 NA
ATOM      4  C   UNL     1       6.834   5.729  16.002  0.00  0.00    +0.000 A 
ATOM      5  C   UNL     1       7.427   6.888  16.520  0.00  0.00    +0.000 A 
ATOM      6  C   UNL     1       7.784   6.907  17.875  0.00  0.00    +0.000 A 
ATOM      7 CL   UNL     1       8.351   8.407  18.524  0.00  0.00    +0.000 Cl
ATOM      8  C   UNL     1       7.643   5.761  18.671  0.00  0.00    +0.000 A 
ATOM      9 CL   UNL     1       8.207   5.699  20.305  0.00  0.00    +0.000 Cl
ATOM     10  C   UNL     1       7.009   4.612  18.174  0.00  0.00    +0.000 A 
ATOM     11  C   UNL     1       6.559   4.664  16.850  0.00  0.00    +0.000 A 
ENDROOT
BRANCH   2  12
ATOM     12  C   UNL     1       5.168   3.612  13.585  0.00  0.00    +0.000 C 
ATOM     13  C   UNL     1       5.345   4.249  12.222  0.00  0.00    +0.000 C 
ATOM     14  C   UNL     1       6.133   3.033  12.569  0.00  0.00    +0.000 C 
ENDBRANCH   2  12
BRANCH   1  15
ATOM     15  C   UNL     1       4.658   3.045  16.668  0.00  0.00    +0.000 C 
BRANCH  15  21
ATOM     16  C   UNL     1       4.320   2.298  19.790  0.00  0.00    +0.000 C 
ATOM     17  N   UNL     1       3.623   3.318  19.048  0.00  0.00    +0.000 N 
ATOM     18  C   UNL     1       2.673   4.191  19.518  0.00  0.00    +0.000 A 
ATOM     19  N   UNL     1       2.297   5.005  18.562  0.00  0.00    +0.000 NA
ATOM     20  N   UNL     1       2.978   4.655  17.431  0.00  0.00    +0.000 NA
ATOM     21  C   UNL     1       3.786   3.641  17.716  0.00  0.00    +0.000 A 
BRANCH  18  22
ATOM     22  S   UNL     1       2.060   4.253  21.129  0.00  0.00    +0.000 S 
ATOM     23  H   UNL     1       0.934   4.945  20.923  0.00  0.00    +0.000 HD
ENDBRANCH  18  22
ENDBRANCH  15  21
ENDBRANCH   1  15
TORSDOF 4
ENDMDL
MODEL 9
REMARK VINA RESULT:      -6.2      3.460      5.184
REMARK  Name = 
REMARK  5 active torsions:
REMARK  status: ('A' for Active; 'I' for Inactive)
REMARK    1  A    between atoms: C_1  and  N_2
REMARK    2  A    between atoms: C_3  and  S_4
REMARK    3  A    between atoms: C_7  and  C_8
REMARK    4  A    between atoms: C_8  and  N_9
REMARK    5  A    between atoms: C_10  and  C_11
REMARK                            x       y       z     vdW  Elec       q    Type
REMARK                         _______ _______ _______ _____ _____    ______ ____
ROOT
ATOM      1  N   UNL     1       3.050   4.651  18.811  0.00  0.00    +0.000 N 
ATOM      2  C   UNL     1       2.675   3.856  19.870  0.00  0.00    +0.000 A 
ATOM      3  N   UNL     1       2.047   4.564  20.786  0.00  0.00    +0.000 NA
ATOM      4  C   UNL     1       1.980   5.837  20.291  0.00  0.00    +0.000 A 
ATOM      5  C   UNL     1       1.557   7.020  20.910  0.00  0.00    +0.000 A 
ATOM      6  C   UNL     1       1.553   8.204  20.159  0.00  0.00    +0.000 A 
ATOM      7 CL   UNL     1       1.194   9.674  20.998  0.00  0.00    +0.000 Cl
ATOM      8  C   UNL     1       1.871   8.188  18.793  0.00  0.00    +0.000 A 
ATOM      9 CL   UNL     1       1.736   9.597  17.800  0.00  0.00    +0.000 Cl
ATOM     10  C   UNL     1       2.339   7.019  18.176  0.00  0.00    +0.000 A 
ATOM     11  C   UNL     1       2.442   5.879  18.982  0.00  0.00    +0.000 A 
ENDROOT
BRANCH   2  12
ATOM     12  C   UNL     1       2.947   2.360  20.016  0.00  0.00    +0.000 C 
ATOM     13  C   UNL     1       3.678   1.641  18.902  0.00  0.00    +0.000 C 
ATOM     14  C   UNL     1       4.395   1.938  20.173  0.00  0.00    +0.000 C 
ENDBRANCH   2  12
BRANCH   1  15
ATOM     15  C   UNL     1       4.207   4.427  17.961  0.00  0.00    +0.000 C 
BRANCH  15  21
ATOM     16  C   UNL     1       5.274   7.046  16.404  0.00  0.00    +0.000 C 
ATOM     17  N   UNL     1       5.895   6.366  17.512  0.00  0.00    +0.000 N 
ATOM     18  C   UNL     1       7.070   6.696  18.142  0.00  0.00    +0.000 A 
ATOM     19  N   UNL     1       7.294   5.873  19.136  0.00  0.00    +0.000 NA
ATOM     20  N   UNL     1       6.277   4.962  19.156  0.00  0.00    +0.000 NA
ATOM     21  C   UNL     1       5.424   5.255  18.181  0.00  0.00    +0.000 A 
BRANCH  18  22
ATOM     22  S   UNL     1       8.110   8.010  17.728  0.00  0.00    +0.000 S 
ATOM     23  H   UNL     1       8.261   7.782  16.419  0.00  0.00    +0.000 HD
ENDBRANCH  18  22
ENDBRANCH  15  21
ENDBRANCH   1  15
TORSDOF 4
ENDMDL
