MODEL 1
REMARK VINA RESULT:      -8.4      0.000      0.000
REMARK  Name = 
REMARK  5 active torsions:
REMARK  status: ('A' for Active; 'I' for Inactive)
REMARK    1  A    between atoms: C_1  and  O_2
REMARK    2  A    between atoms: O_2  and  C_3
REMARK    3  A    between atoms: C_3  and  C_5
REMARK    4  A    between atoms: C_5  and  N_6
REMARK    5  A    between atoms: C_17  and  C_18
REMARK                            x       y       z     vdW  Elec       q    Type
REMARK                         _______ _______ _______ _____ _____    ______ ____
ROOT
ATOM      1  N   UNL     1       2.881   4.329  17.676  0.00  0.00    +0.000 N 
ATOM      2  C   UNL     1       3.653   3.203  17.816  0.00  0.00    +0.000 C 
ATOM      3  O   UNL     1       3.191   2.067  17.911  0.00  0.00    +0.000 OA
ATOM      4  N   UNL     1       4.994   3.360  17.874  0.00  0.00    +0.000 N 
ATOM      5  C   UNL     1       5.668   4.569  17.822  0.00  0.00    +0.000 A 
ATOM      6  C   UNL     1       7.045   4.593  18.043  0.00  0.00    +0.000 A 
ATOM      7  C   UNL     1       7.726   5.809  18.028  0.00  0.00    +0.000 A 
ATOM      8  C   UNL     1       7.032   6.982  17.743  0.00  0.00    +0.000 A 
ATOM      9 CL   UNL     1       7.859   8.488  17.758  0.00  0.00    +0.000 Cl
ATOM     10  C   UNL     1       5.663   6.946  17.480  0.00  0.00    +0.000 A 
ATOM     11  C   UNL     1       4.952   5.735  17.568  0.00  0.00    +0.000 A 
ATOM     12  C   UNL     1       3.437   5.672  17.421  0.00  0.00    +0.000 C 
ATOM     13  H   UNL     1       5.504   2.499  18.041  0.00  0.00    +0.000 HD
ENDROOT
BRANCH  12  14
ATOM     14  C   UNL     1       2.716   6.779  18.208  0.00  0.00    +0.000 A 
ATOM     15  C   UNL     1       2.228   7.922  17.548  0.00  0.00    +0.000 A 
ATOM     16  C   UNL     1       1.583   8.938  18.257  0.00  0.00    +0.000 A 
ATOM     17  C   UNL     1       1.458   8.855  19.641  0.00  0.00    +0.000 A 
ATOM     18  C   UNL     1       1.940   7.736  20.313  0.00  0.00    +0.000 A 
ATOM     19  C   UNL     1       2.530   6.692  19.600  0.00  0.00    +0.000 A 
ENDBRANCH  12  14
BRANCH   1  20
ATOM     20  C   UNL     1       1.431   4.138  17.771  0.00  0.00    +0.000 C 
BRANCH  20  21
ATOM     21  C   UNL     1       1.076   3.332  19.017  0.00  0.00    +0.000 C 
ATOM     22  O   UNL     1       0.388   2.319  19.038  0.00  0.00    +0.000 OA
BRANCH  21  24
ATOM     23  C   UNL     1       1.624   3.071  21.269  0.00  0.00    +0.000 C 
ATOM     24  O   UNL     1       1.617   3.924  20.123  0.00  0.00    +0.000 OA
ENDBRANCH  21  24
ENDBRANCH  20  21
ENDBRANCH   1  20
TORSDOF 4
ENDMDL
MODEL 2
REMARK VINA RESULT:      -8.4      0.153      1.017
REMARK  Name = 
REMARK  5 active torsions:
REMARK  status: ('A' for Active; 'I' for Inactive)
REMARK    1  A    between atoms: C_1  and  O_2
REMARK    2  A    between atoms: O_2  and  C_3
REMARK    3  A    between atoms: C_3  and  C_5
REMARK    4  A    between atoms: C_5  and  N_6
REMARK    5  A    between atoms: C_17  and  C_18
REMARK                            x       y       z     vdW  Elec       q    Type
REMARK                         _______ _______ _______ _____ _____    ______ ____
ROOT
ATOM      1  N   UNL     1       2.976   4.412  17.712  0.00  0.00    +0.000 N 
ATOM      2  C   UNL     1       3.750   3.293  17.886  0.00  0.00    +0.000 C 
ATOM      3  O   UNL     1       3.291   2.157  18.001  0.00  0.00    +0.000 OA
ATOM      4  N   UNL     1       5.089   3.457  17.959  0.00  0.00    +0.000 N 
ATOM      5  C   UNL     1       5.759   4.667  17.890  0.00  0.00    +0.000 A 
ATOM      6  C   UNL     1       7.133   4.702  18.129  0.00  0.00    +0.000 A 
ATOM      7  C   UNL     1       7.810   5.920  18.097  0.00  0.00    +0.000 A 
ATOM      8  C   UNL     1       7.115   7.083  17.778  0.00  0.00    +0.000 A 
ATOM      9 CL   UNL     1       7.936   8.593  17.771  0.00  0.00    +0.000 Cl
ATOM     10  C   UNL     1       5.750   7.036  17.497  0.00  0.00    +0.000 A 
ATOM     11  C   UNL     1       5.042   5.825  17.601  0.00  0.00    +0.000 A 
ATOM     12  C   UNL     1       3.530   5.752  17.436  0.00  0.00    +0.000 C 
ATOM     13  H   UNL     1       5.601   2.602  18.152  0.00  0.00    +0.000 HD
ENDROOT
BRANCH  12  14
ATOM     14  C   UNL     1       2.794   6.873  18.189  0.00  0.00    +0.000 A 
ATOM     15  C   UNL     1       2.599   6.790  19.580  0.00  0.00    +0.000 A 
ATOM     16  C   UNL     1       1.920   7.797  20.270  0.00  0.00    +0.000 A 
ATOM     17  C   UNL     1       1.382   8.878  19.578  0.00  0.00    +0.000 A 
ATOM     18  C   UNL     1       1.557   8.975  18.201  0.00  0.00    +0.000 A 
ATOM     19  C   UNL     1       2.288   8.002  17.518  0.00  0.00    +0.000 A 
ENDBRANCH  12  14
BRANCH   1  20
ATOM     20  C   UNL     1       1.525   4.218  17.792  0.00  0.00    +0.000 C 
BRANCH  20  21
ATOM     21  C   UNL     1       1.154   3.464  19.066  0.00  0.00    +0.000 C 
ATOM     22  O   UNL     1       0.523   2.416  19.116  0.00  0.00    +0.000 OA
BRANCH  21  24
ATOM     23  C   UNL     1       1.816   3.312  21.297  0.00  0.00    +0.000 C 
ATOM     24  O   UNL     1       1.605   4.149  20.160  0.00  0.00    +0.000 OA
ENDBRANCH  21  24
ENDBRANCH  20  21
ENDBRANCH   1  20
TORSDOF 4
ENDMDL
MODEL 3
REMARK VINA RESULT:      -8.3      1.203      1.707
REMARK  Name = 
REMARK  5 active torsions:
REMARK  status: ('A' for Active; 'I' for Inactive)
REMARK    1  A    between atoms: C_1  and  O_2
REMARK    2  A    between atoms: O_2  and  C_3
REMARK    3  A    between atoms: C_3  and  C_5
REMARK    4  A    between atoms: C_5  and  N_6
REMARK    5  A    between atoms: C_17  and  C_18
REMARK                            x       y       z     vdW  Elec       q    Type
REMARK                         _______ _______ _______ _____ _____    ______ ____
ROOT
ATOM      1  N   UNL     1       3.603   4.478  18.730  0.00  0.00    +0.000 N 
ATOM      2  C   UNL     1       4.508   3.580  19.237  0.00  0.00    +0.000 C 
ATOM      3  O   UNL     1       4.194   2.487  19.706  0.00  0.00    +0.000 OA
ATOM      4  N   UNL     1       5.813   3.932  19.239  0.00  0.00    +0.000 N 
ATOM      5  C   UNL     1       6.325   5.136  18.787  0.00  0.00    +0.000 A 
ATOM      6  C   UNL     1       7.676   5.423  18.987  0.00  0.00    +0.000 A 
ATOM      7  C   UNL     1       8.193   6.647  18.567  0.00  0.00    +0.000 A 
ATOM      8  C   UNL     1       7.365   7.552  17.908  0.00  0.00    +0.000 A 
ATOM      9 CL   UNL     1       7.987   9.078  17.419  0.00  0.00    +0.000 Cl
ATOM     10  C   UNL     1       6.025   7.242  17.672  0.00  0.00    +0.000 A 
ATOM     11  C   UNL     1       5.475   6.042  18.158  0.00  0.00    +0.000 A 
ATOM     12  C   UNL     1       3.991   5.725  18.041  0.00  0.00    +0.000 C 
ATOM     13  H   UNL     1       6.423   3.254  19.683  0.00  0.00    +0.000 HD
ENDROOT
BRANCH  12  14
ATOM     14  C   UNL     1       3.095   6.918  18.414  0.00  0.00    +0.000 A 
ATOM     15  C   UNL     1       2.595   7.055  19.722  0.00  0.00    +0.000 A 
ATOM     16  C   UNL     1       1.771   8.129  20.066  0.00  0.00    +0.000 A 
ATOM     17  C   UNL     1       1.392   9.057  19.099  0.00  0.00    +0.000 A 
ATOM     18  C   UNL     1       1.870   8.936  17.798  0.00  0.00    +0.000 A 
ATOM     19  C   UNL     1       2.742   7.899  17.467  0.00  0.00    +0.000 A 
ENDBRANCH  12  14
BRANCH   1  20
ATOM     20  C   UNL     1       2.188   4.131  18.883  0.00  0.00    +0.000 C 
BRANCH  20  21
ATOM     21  C   UNL     1       1.757   3.143  17.802  0.00  0.00    +0.000 C 
ATOM     22  O   UNL     1       2.147   3.141  16.642  0.00  0.00    +0.000 OA
BRANCH  21  24
ATOM     23  C   UNL     1       0.598   2.458  19.707  0.00  0.00    +0.000 C 
ATOM     24  O   UNL     1       0.840   2.268  18.312  0.00  0.00    +0.000 OA
ENDBRANCH  21  24
ENDBRANCH  20  21
ENDBRANCH   1  20
TORSDOF 4
ENDMDL
MODEL 4
REMARK VINA RESULT:      -8.3      1.213      1.406
REMARK  Name = 
REMARK  5 active torsions:
REMARK  status: ('A' for Active; 'I' for Inactive)
REMARK    1  A    between atoms: C_1  and  O_2
REMARK    2  A    between atoms: O_2  and  C_3
REMARK    3  A    between atoms: C_3  and  C_5
REMARK    4  A    between atoms: C_5  and  N_6
REMARK    5  A    between atoms: C_17  and  C_18
REMARK                            x       y       z     vdW  Elec       q    Type
REMARK                         _______ _______ _______ _____ _____    ______ ____
ROOT
ATOM      1  N   UNL     1       3.591   4.468  18.762  0.00  0.00    +0.000 N 
ATOM      2  C   UNL     1       4.509   3.585  19.273  0.00  0.00    +0.000 C 
ATOM      3  O   UNL     1       4.211   2.492  19.752  0.00  0.00    +0.000 OA
ATOM      4  N   UNL     1       5.809   3.954  19.270  0.00  0.00    +0.000 N 
ATOM      5  C   UNL     1       6.305   5.161  18.806  0.00  0.00    +0.000 A 
ATOM      6  C   UNL     1       7.652   5.466  19.001  0.00  0.00    +0.000 A 
ATOM      7  C   UNL     1       8.153   6.694  18.570  0.00  0.00    +0.000 A 
ATOM      8  C   UNL     1       7.312   7.582  17.906  0.00  0.00    +0.000 A 
ATOM      9 CL   UNL     1       7.913   9.113  17.404  0.00  0.00    +0.000 Cl
ATOM     10  C   UNL     1       5.976   7.254  17.676  0.00  0.00    +0.000 A 
ATOM     11  C   UNL     1       5.442   6.051  18.173  0.00  0.00    +0.000 A 
ATOM     12  C   UNL     1       3.961   5.714  18.063  0.00  0.00    +0.000 C 
ATOM     13  H   UNL     1       6.430   3.287  19.717  0.00  0.00    +0.000 HD
ENDROOT
BRANCH  12  14
ATOM     14  C   UNL     1       3.052   6.899  18.429  0.00  0.00    +0.000 A 
ATOM     15  C   UNL     1       2.736   7.880  17.471  0.00  0.00    +0.000 A 
ATOM     16  C   UNL     1       1.922   8.966  17.798  0.00  0.00    +0.000 A 
ATOM     17  C   UNL     1       1.449   9.119  19.099  0.00  0.00    +0.000 A 
ATOM     18  C   UNL     1       1.756   8.164  20.063  0.00  0.00    +0.000 A 
ATOM     19  C   UNL     1       2.519   7.047  19.723  0.00  0.00    +0.000 A 
ENDBRANCH  12  14
BRANCH   1  20
ATOM     20  C   UNL     1       2.181   4.104  18.922  0.00  0.00    +0.000 C 
BRANCH  20  21
ATOM     21  C   UNL     1       1.745   3.145  17.817  0.00  0.00    +0.000 C 
ATOM     22  O   UNL     1       2.187   3.125  16.675  0.00  0.00    +0.000 OA
BRANCH  21  24
ATOM     23  C   UNL     1       0.604   2.373  19.698  0.00  0.00    +0.000 C 
ATOM     24  O   UNL     1       0.758   2.321  18.280  0.00  0.00    +0.000 OA
ENDBRANCH  21  24
ENDBRANCH  20  21
ENDBRANCH   1  20
TORSDOF 4
ENDMDL
MODEL 5
REMARK VINA RESULT:      -8.0      0.925      1.254
REMARK  Name = 
REMARK  5 active torsions:
REMARK  status: ('A' for Active; 'I' for Inactive)
REMARK    1  A    between atoms: C_1  and  O_2
REMARK    2  A    between atoms: O_2  and  C_3
REMARK    3  A    between atoms: C_3  and  C_5
REMARK    4  A    between atoms: C_5  and  N_6
REMARK    5  A    between atoms: C_17  and  C_18
REMARK                            x       y       z     vdW  Elec       q    Type
REMARK                         _______ _______ _______ _____ _____    ______ ____
ROOT
ATOM      1  N   UNL     1       3.407   4.436  18.443  0.00  0.00    +0.000 N 
ATOM      2  C   UNL     1       4.287   3.483  18.890  0.00  0.00    +0.000 C 
ATOM      3  O   UNL     1       3.946   2.363  19.269  0.00  0.00    +0.000 OA
ATOM      4  N   UNL     1       5.599   3.807  18.936  0.00  0.00    +0.000 N 
ATOM      5  C   UNL     1       6.140   5.032  18.585  0.00  0.00    +0.000 A 
ATOM      6  C   UNL     1       7.493   5.274  18.823  0.00  0.00    +0.000 A 
ATOM      7  C   UNL     1       8.040   6.516  18.506  0.00  0.00    +0.000 A 
ATOM      8  C   UNL     1       7.240   7.486  17.909  0.00  0.00    +0.000 A 
ATOM      9 CL   UNL     1       7.898   9.032  17.548  0.00  0.00    +0.000 Cl
ATOM     10  C   UNL     1       5.897   7.223  17.633  0.00  0.00    +0.000 A 
ATOM     11  C   UNL     1       5.317   6.001  18.018  0.00  0.00    +0.000 A 
ATOM     12  C   UNL     1       3.828   5.724  17.859  0.00  0.00    +0.000 C 
ATOM     13  H   UNL     1       6.189   3.084  19.333  0.00  0.00    +0.000 HD
ENDROOT
BRANCH  12  14
ATOM     14  C   UNL     1       2.952   6.904  18.312  0.00  0.00    +0.000 A 
ATOM     15  C   UNL     1       2.491   7.852  17.380  0.00  0.00    +0.000 A 
ATOM     16  C   UNL     1       1.706   8.932  17.785  0.00  0.00    +0.000 A 
ATOM     17  C   UNL     1       1.407   9.114  19.133  0.00  0.00    +0.000 A 
ATOM     18  C   UNL     1       1.859   8.192  20.072  0.00  0.00    +0.000 A 
ATOM     19  C   UNL     1       2.592   7.078  19.662  0.00  0.00    +0.000 A 
ENDBRANCH  12  14
BRANCH   1  20
ATOM     20  C   UNL     1       1.983   4.107  18.552  0.00  0.00    +0.000 C 
BRANCH  20  21
ATOM     21  C   UNL     1       1.608   3.818  20.003  0.00  0.00    +0.000 C 
ATOM     22  O   UNL     1       1.966   4.469  20.976  0.00  0.00    +0.000 OA
BRANCH  21  24
ATOM     23  C   UNL     1       0.563   2.126  18.785  0.00  0.00    +0.000 C 
ATOM     24  O   UNL     1       0.828   2.697  20.066  0.00  0.00    +0.000 OA
ENDBRANCH  21  24
ENDBRANCH  20  21
ENDBRANCH   1  20
TORSDOF 4
ENDMDL
MODEL 6
REMARK VINA RESULT:      -8.0      0.912      1.592
REMARK  Name = 
REMARK  5 active torsions:
REMARK  status: ('A' for Active; 'I' for Inactive)
REMARK    1  A    between atoms: C_1  and  O_2
REMARK    2  A    between atoms: O_2  and  C_3
REMARK    3  A    between atoms: C_3  and  C_5
REMARK    4  A    between atoms: C_5  and  N_6
REMARK    5  A    between atoms: C_17  and  C_18
REMARK                            x       y       z     vdW  Elec       q    Type
REMARK                         _______ _______ _______ _____ _____    ______ ____
ROOT
ATOM      1  N   UNL     1       3.395   4.455  18.435  0.00  0.00    +0.000 N 
ATOM      2  C   UNL     1       4.258   3.487  18.882  0.00  0.00    +0.000 C 
ATOM      3  O   UNL     1       3.897   2.373  19.260  0.00  0.00    +0.000 OA
ATOM      4  N   UNL     1       5.575   3.788  18.930  0.00  0.00    +0.000 N 
ATOM      5  C   UNL     1       6.138   5.004  18.581  0.00  0.00    +0.000 A 
ATOM      6  C   UNL     1       7.495   5.223  18.822  0.00  0.00    +0.000 A 
ATOM      7  C   UNL     1       8.063   6.456  18.507  0.00  0.00    +0.000 A 
ATOM      8  C   UNL     1       7.280   7.440  17.910  0.00  0.00    +0.000 A 
ATOM      9 CL   UNL     1       7.965   8.975  17.552  0.00  0.00    +0.000 Cl
ATOM     10  C   UNL     1       5.934   7.200  17.632  0.00  0.00    +0.000 A 
ATOM     11  C   UNL     1       5.333   5.987  18.015  0.00  0.00    +0.000 A 
ATOM     12  C   UNL     1       3.840   5.736  17.852  0.00  0.00    +0.000 C 
ATOM     13  H   UNL     1       6.153   3.055  19.328  0.00  0.00    +0.000 HD
ENDROOT
BRANCH  12  14
ATOM     14  C   UNL     1       2.982   6.930  18.305  0.00  0.00    +0.000 A 
ATOM     15  C   UNL     1       2.625   7.081  19.658  0.00  0.00    +0.000 A 
ATOM     16  C   UNL     1       1.836   8.154  20.076  0.00  0.00    +0.000 A 
ATOM     17  C   UNL     1       1.349   9.068  19.145  0.00  0.00    +0.000 A 
ATOM     18  C   UNL     1       1.685   8.933  17.802  0.00  0.00    +0.000 A 
ATOM     19  C   UNL     1       2.523   7.897  17.391  0.00  0.00    +0.000 A 
ENDBRANCH  12  14
BRANCH   1  20
ATOM     20  C   UNL     1       1.966   4.151  18.541  0.00  0.00    +0.000 C 
BRANCH  20  21
ATOM     21  C   UNL     1       1.587   3.846  19.988  0.00  0.00    +0.000 C 
ATOM     22  O   UNL     1       2.021   4.425  20.976  0.00  0.00    +0.000 OA
BRANCH  21  24
ATOM     23  C   UNL     1       0.594   2.115  18.781  0.00  0.00    +0.000 C 
ATOM     24  O   UNL     1       0.706   2.802  20.027  0.00  0.00    +0.000 OA
ENDBRANCH  21  24
ENDBRANCH  20  21
ENDBRANCH   1  20
TORSDOF 4
ENDMDL
MODEL 7
REMARK VINA RESULT:      -7.8      3.250      5.130
REMARK  Name = 
REMARK  5 active torsions:
REMARK  status: ('A' for Active; 'I' for Inactive)
REMARK    1  A    between atoms: C_1  and  O_2
REMARK    2  A    between atoms: O_2  and  C_3
REMARK    3  A    between atoms: C_3  and  C_5
REMARK    4  A    between atoms: C_5  and  N_6
REMARK    5  A    between atoms: C_17  and  C_18
REMARK                            x       y       z     vdW  Elec       q    Type
REMARK                         _______ _______ _______ _____ _____    ______ ____
ROOT
ATOM      1  N   UNL     1       5.209   5.475  17.341  0.00  0.00    +0.000 N 
ATOM      2  C   UNL     1       5.489   4.337  16.628  0.00  0.00    +0.000 C 
ATOM      3  O   UNL     1       6.243   4.309  15.656  0.00  0.00    +0.000 OA
ATOM      4  N   UNL     1       4.881   3.190  17.005  0.00  0.00    +0.000 N 
ATOM      5  C   UNL     1       3.978   3.060  18.047  0.00  0.00    +0.000 A 
ATOM      6  C   UNL     1       3.315   1.846  18.229  0.00  0.00    +0.000 A 
ATOM      7  C   UNL     1       2.378   1.716  19.253  0.00  0.00    +0.000 A 
ATOM      8  C   UNL     1       2.150   2.786  20.114  0.00  0.00    +0.000 A 
ATOM      9 CL   UNL     1       0.970   2.645  21.356  0.00  0.00    +0.000 Cl
ATOM     10  C   UNL     1       2.847   3.984  19.953  0.00  0.00    +0.000 A 
ATOM     11  C   UNL     1       3.738   4.151  18.878  0.00  0.00    +0.000 A 
ATOM     12  C   UNL     1       4.417   5.482  18.587  0.00  0.00    +0.000 C 
ATOM     13  H   UNL     1       5.079   2.399  16.402  0.00  0.00    +0.000 HD
ENDROOT
BRANCH  12  14
ATOM     14  C   UNL     1       3.451   6.676  18.677  0.00  0.00    +0.000 A 
ATOM     15  C   UNL     1       2.708   6.907  19.849  0.00  0.00    +0.000 A 
ATOM     16  C   UNL     1       1.820   7.980  19.935  0.00  0.00    +0.000 A 
ATOM     17  C   UNL     1       1.620   8.812  18.836  0.00  0.00    +0.000 A 
ATOM     18  C   UNL     1       2.339   8.597  17.665  0.00  0.00    +0.000 A 
ATOM     19  C   UNL     1       3.272   7.562  17.598  0.00  0.00    +0.000 A 
ENDBRANCH  12  14
BRANCH   1  20
ATOM     20  C   UNL     1       5.762   6.725  16.813  0.00  0.00    +0.000 C 
BRANCH  20  21
ATOM     21  C   UNL     1       7.095   7.047  17.481  0.00  0.00    +0.000 C 
ATOM     22  O   UNL     1       7.674   6.339  18.296  0.00  0.00    +0.000 OA
BRANCH  21  24
ATOM     23  C   UNL     1       8.252   8.985  18.069  0.00  0.00    +0.000 C 
ATOM     24  O   UNL     1       7.544   8.267  17.058  0.00  0.00    +0.000 OA
ENDBRANCH  21  24
ENDBRANCH  20  21
ENDBRANCH   1  20
TORSDOF 4
ENDMDL
MODEL 8
REMARK VINA RESULT:      -7.8      3.271      5.065
REMARK  Name = 
REMARK  5 active torsions:
REMARK  status: ('A' for Active; 'I' for Inactive)
REMARK    1  A    between atoms: C_1  and  O_2
REMARK    2  A    between atoms: O_2  and  C_3
REMARK    3  A    between atoms: C_3  and  C_5
REMARK    4  A    between atoms: C_5  and  N_6
REMARK    5  A    between atoms: C_17  and  C_18
REMARK                            x       y       z     vdW  Elec       q    Type
REMARK                         _______ _______ _______ _____ _____    ______ ____
ROOT
ATOM      1  N   UNL     1       5.244   5.534  17.449  0.00  0.00    +0.000 N 
ATOM      2  C   UNL     1       5.576   4.406  16.743  0.00  0.00    +0.000 C 
ATOM      3  O   UNL     1       6.372   4.399  15.805  0.00  0.00    +0.000 OA
ATOM      4  N   UNL     1       4.974   3.246  17.086  0.00  0.00    +0.000 N 
ATOM      5  C   UNL     1       4.030   3.091  18.087  0.00  0.00    +0.000 A 
ATOM      6  C   UNL     1       3.383   1.864  18.233  0.00  0.00    +0.000 A 
ATOM      7  C   UNL     1       2.405   1.710  19.214  0.00  0.00    +0.000 A 
ATOM      8  C   UNL     1       2.119   2.769  20.071  0.00  0.00    +0.000 A 
ATOM      9 CL   UNL     1       0.890   2.598  21.260  0.00  0.00    +0.000 Cl
ATOM     10  C   UNL     1       2.800   3.981  19.948  0.00  0.00    +0.000 A 
ATOM     11  C   UNL     1       3.733   4.172  18.913  0.00  0.00    +0.000 A 
ATOM     12  C   UNL     1       4.399   5.518  18.660  0.00  0.00    +0.000 C 
ATOM     13  H   UNL     1       5.214   2.462  16.487  0.00  0.00    +0.000 HD
ENDROOT
BRANCH  12  14
ATOM     14  C   UNL     1       3.408   6.692  18.715  0.00  0.00    +0.000 A 
ATOM     15  C   UNL     1       3.252   7.548  17.609  0.00  0.00    +0.000 A 
ATOM     16  C   UNL     1       2.364   8.625  17.655  0.00  0.00    +0.000 A 
ATOM     17  C   UNL     1       1.652   8.895  18.821  0.00  0.00    +0.000 A 
ATOM     18  C   UNL     1       1.797   8.065  19.929  0.00  0.00    +0.000 A 
ATOM     19  C   UNL     1       2.638   6.953  19.864  0.00  0.00    +0.000 A 
ENDBRANCH  12  14
BRANCH   1  20
ATOM     20  C   UNL     1       5.795   6.798  16.953  0.00  0.00    +0.000 C 
BRANCH  20  21
ATOM     21  C   UNL     1       7.158   7.073  17.583  0.00  0.00    +0.000 C 
ATOM     22  O   UNL     1       7.676   6.416  18.477  0.00  0.00    +0.000 OA
BRANCH  21  24
ATOM     23  C   UNL     1       8.182   9.129  17.985  0.00  0.00    +0.000 C 
ATOM     24  O   UNL     1       7.713   8.187  17.019  0.00  0.00    +0.000 OA
ENDBRANCH  21  24
ENDBRANCH  20  21
ENDBRANCH   1  20
TORSDOF 4
ENDMDL
MODEL 9
REMARK VINA RESULT:      -7.5      1.207      1.847
REMARK  Name = 
REMARK  5 active torsions:
REMARK  status: ('A' for Active; 'I' for Inactive)
REMARK    1  A    between atoms: C_1  and  O_2
REMARK    2  A    between atoms: O_2  and  C_3
REMARK    3  A    between atoms: C_3  and  C_5
REMARK    4  A    between atoms: C_5  and  N_6
REMARK    5  A    between atoms: C_17  and  C_18
REMARK                            x       y       z     vdW  Elec       q    Type
REMARK                         _______ _______ _______ _____ _____    ______ ____
ROOT
ATOM      1  N   UNL     1       3.124   4.520  19.185  0.00  0.00    +0.000 N 
ATOM      2  C   UNL     1       3.974   3.613  19.766  0.00  0.00    +0.000 C 
ATOM      3  O   UNL     1       3.592   2.604  20.359  0.00  0.00    +0.000 OA
ATOM      4  N   UNL     1       5.301   3.859  19.702  0.00  0.00    +0.000 N 
ATOM      5  C   UNL     1       5.889   4.964  19.110  0.00  0.00    +0.000 A 
ATOM      6  C   UNL     1       7.263   5.163  19.248  0.00  0.00    +0.000 A 
ATOM      7  C   UNL     1       7.858   6.291  18.686  0.00  0.00    +0.000 A 
ATOM      8  C   UNL     1       7.082   7.182  17.950  0.00  0.00    +0.000 A 
ATOM      9 CL   UNL     1       7.803   8.594  17.284  0.00  0.00    +0.000 Cl
ATOM     10  C   UNL     1       5.716   6.955  17.778  0.00  0.00    +0.000 A 
ATOM     11  C   UNL     1       5.092   5.862  18.405  0.00  0.00    +0.000 A 
ATOM     12  C   UNL     1       3.584   5.651  18.356  0.00  0.00    +0.000 C 
ATOM     13  H   UNL     1       5.871   3.186  20.204  0.00  0.00    +0.000 HD
ENDROOT
BRANCH  12  14
ATOM     14  C   UNL     1       2.794   6.945  18.616  0.00  0.00    +0.000 A 
ATOM     15  C   UNL     1       2.312   7.241  19.904  0.00  0.00    +0.000 A 
ATOM     16  C   UNL     1       1.583   8.407  20.147  0.00  0.00    +0.000 A 
ATOM     17  C   UNL     1       1.279   9.272  19.099  0.00  0.00    +0.000 A 
ATOM     18  C   UNL     1       1.740   8.994  17.816  0.00  0.00    +0.000 A 
ATOM     19  C   UNL     1       2.520   7.861  17.583  0.00  0.00    +0.000 A 
ENDBRANCH  12  14
BRANCH   1  20
ATOM     20  C   UNL     1       1.692   4.304  19.406  0.00  0.00    +0.000 C 
BRANCH  20  21
ATOM     21  C   UNL     1       1.170   3.192  18.500  0.00  0.00    +0.000 C 
ATOM     22  O   UNL     1       0.353   2.337  18.819  0.00  0.00    +0.000 OA
BRANCH  21  24
ATOM     23  C   UNL     1       2.666   2.183  17.022  0.00  0.00    +0.000 C 
ATOM     24  O   UNL     1       1.774   3.268  17.276  0.00  0.00    +0.000 OA
ENDBRANCH  21  24
ENDBRANCH  20  21
ENDBRANCH   1  20
TORSDOF 4
ENDMDL
