MODEL 1
REMARK VINA RESULT:      -7.9      0.000      0.000
REMARK  Name = 
REMARK  13 active torsions:
REMARK  status: ('A' for Active; 'I' for Inactive)
REMARK    1  A    between atoms: C_1  and  O_2
REMARK    2  A    between atoms: O_2  and  C_3
REMARK    3  A    between atoms: C_5  and  C_6
REMARK    4  A    between atoms: C_9  and  O_10
REMARK    5  A    between atoms: O_10  and  C_11
REMARK    6  A    between atoms: C_13  and  C_14
REMARK    7  A    between atoms: C_15  and  C_16
REMARK    8  A    between atoms: C_16  and  O_17
REMARK    9  A    between atoms: C_20  and  C_21
REMARK   10  A    between atoms: C_21  and  O_22
REMARK   11  A    between atoms: C_24  and  O_25
REMARK   12  A    between atoms: O_25  and  C_26
REMARK   13  A    between atoms: C_27  and  O_28
REMARK                            x       y       z     vdW  Elec       q    Type
REMARK                         _______ _______ _______ _____ _____    ______ ____
ROOT
ATOM      1  C   UNL     1       4.804   3.321  18.030  0.00  0.00    +0.000 C 
ATOM      2  O   UNL     1       4.474   4.059  19.292  0.00  0.00    +0.000 OA
ATOM      3  C   UNL     1       2.985   3.793  19.531  0.00  0.00    +0.000 A 
ATOM      4  C   UNL     1       2.315   4.620  20.421  0.00  0.00    +0.000 A 
ATOM      5  C   UNL     1       2.003   5.878  19.966  0.00  0.00    +0.000 A 
ATOM      6  C   UNL     1       2.177   6.151  18.608  0.00  0.00    +0.000 A 
ATOM      7  C   UNL     1       2.334   5.064  17.694  0.00  0.00    +0.000 A 
ATOM      8  C   UNL     1       2.605   3.773  18.207  0.00  0.00    +0.000 A 
ATOM      9  C   UNL     1       3.473   2.689  17.603  0.00  0.00    +0.000 C 
ENDROOT
BRANCH   1  12
ATOM     10  C   UNL     1       7.126   5.637  15.980  0.00  0.00    +0.000 A 
ATOM     11  C   UNL     1       6.341   5.045  16.990  0.00  0.00    +0.000 A 
ATOM     12  C   UNL     1       5.511   3.911  16.778  0.00  0.00    +0.000 A 
ATOM     13  C   UNL     1       5.507   3.380  15.484  0.00  0.00    +0.000 A 
ATOM     14  C   UNL     1       6.310   3.937  14.450  0.00  0.00    +0.000 A 
ATOM     15  C   UNL     1       7.090   5.074  14.701  0.00  0.00    +0.000 A 
BRANCH  10  17
ATOM     16  C   UNL     1       7.441   7.405  17.608  0.00  0.00    +0.000 C 
ATOM     17  O   UNL     1       7.822   6.748  16.399  0.00  0.00    +0.000 OA
ENDBRANCH  10  17
BRANCH  14  18
ATOM     18  O   UNL     1       6.178   3.307  13.237  0.00  0.00    +0.000 OA
ATOM     19  C   UNL     1       5.005   3.538  12.460  0.00  0.00    +0.000 C 
ENDBRANCH  14  18
BRANCH  15  20
ATOM     20  O   UNL     1       7.824   5.660  13.698  0.00  0.00    +0.000 OA
ATOM     21  H   UNL     1       7.183   5.801  12.980  0.00  0.00    +0.000 HD
ENDBRANCH  15  20
ENDBRANCH   1  12
BRANCH   4  22
ATOM     22  O   UNL     1       1.698   4.241  21.582  0.00  0.00    +0.000 OA
ATOM     23  C   UNL     1       1.532   2.833  21.771  0.00  0.00    +0.000 C 
ENDBRANCH   4  22
BRANCH   6  24
ATOM     24  C   UNL     1       2.566   7.540  18.365  0.00  0.00    +0.000 C 
ATOM     25  C   UNL     1       1.825   8.642  18.225  0.00  0.00    +0.000 C 
BRANCH  25  26
ATOM     26  C   UNL     1       2.371   9.995  17.855  0.00  0.00    +0.000 C 
BRANCH  26  27
ATOM     27  O   UNL     1       1.414  11.038  17.993  0.00  0.00    +0.000 OA
ATOM     28  H   UNL     1       1.843  11.862  17.706  0.00  0.00    +0.000 HD
ENDBRANCH  26  27
ENDBRANCH  25  26
ENDBRANCH   6  24
BRANCH   9  29
ATOM     29  C   UNL     1       3.406   1.317  18.344  0.00  0.00    +0.000 C 
BRANCH  29  30
ATOM     30  O   UNL     1       4.607   1.088  19.085  0.00  0.00    +0.000 OA
ATOM     31  H   UNL     1       4.476   0.292  19.633  0.00  0.00    +0.000 HD
ENDBRANCH  29  30
ENDBRANCH   9  29
TORSDOF 10
ENDMDL
MODEL 2
REMARK VINA RESULT:      -7.7      0.303      2.463
REMARK  Name = 
REMARK  13 active torsions:
REMARK  status: ('A' for Active; 'I' for Inactive)
REMARK    1  A    between atoms: C_1  and  O_2
REMARK    2  A    between atoms: O_2  and  C_3
REMARK    3  A    between atoms: C_5  and  C_6
REMARK    4  A    between atoms: C_9  and  O_10
REMARK    5  A    between atoms: O_10  and  C_11
REMARK    6  A    between atoms: C_13  and  C_14
REMARK    7  A    between atoms: C_15  and  C_16
REMARK    8  A    between atoms: C_16  and  O_17
REMARK    9  A    between atoms: C_20  and  C_21
REMARK   10  A    between atoms: C_21  and  O_22
REMARK   11  A    between atoms: C_24  and  O_25
REMARK   12  A    between atoms: O_25  and  C_26
REMARK   13  A    between atoms: C_27  and  O_28
REMARK                            x       y       z     vdW  Elec       q    Type
REMARK                         _______ _______ _______ _____ _____    ______ ____
ROOT
ATOM      1  C   UNL     1       4.910   3.380  18.325  0.00  0.00    +0.000 C 
ATOM      2  O   UNL     1       4.371   4.041  19.558  0.00  0.00    +0.000 OA
ATOM      3  C   UNL     1       2.873   3.719  19.560  0.00  0.00    +0.000 A 
ATOM      4  C   UNL     1       2.050   4.479  20.378  0.00  0.00    +0.000 A 
ATOM      5  C   UNL     1       1.764   5.749  19.943  0.00  0.00    +0.000 A 
ATOM      6  C   UNL     1       2.125   6.098  18.640  0.00  0.00    +0.000 A 
ATOM      7  C   UNL     1       2.454   5.066  17.709  0.00  0.00    +0.000 A 
ATOM      8  C   UNL     1       2.694   3.759  18.195  0.00  0.00    +0.000 A 
ATOM      9  C   UNL     1       3.680   2.733  17.676  0.00  0.00    +0.000 C 
ENDROOT
BRANCH   1  12
ATOM     10  C   UNL     1       6.378   4.008  14.803  0.00  0.00    +0.000 A 
ATOM     11  C   UNL     1       5.734   3.462  15.932  0.00  0.00    +0.000 A 
ATOM     12  C   UNL     1       5.771   4.055  17.222  0.00  0.00    +0.000 A 
ATOM     13  C   UNL     1       6.491   5.250  17.334  0.00  0.00    +0.000 A 
ATOM     14  C   UNL     1       7.128   5.841  16.209  0.00  0.00    +0.000 A 
ATOM     15  C   UNL     1       7.088   5.203  14.961  0.00  0.00    +0.000 A 
BRANCH  10  17
ATOM     16  C   UNL     1       5.267   3.610  12.686  0.00  0.00    +0.000 C 
ATOM     17  O   UNL     1       6.241   3.248  13.665  0.00  0.00    +0.000 OA
ENDBRANCH  10  17
BRANCH  14  18
ATOM     18  O   UNL     1       7.804   7.002  16.494  0.00  0.00    +0.000 OA
ATOM     19  C   UNL     1       7.735   7.539  17.812  0.00  0.00    +0.000 C 
ENDBRANCH  14  18
BRANCH  15  20
ATOM     20  O   UNL     1       7.749   5.730  13.879  0.00  0.00    +0.000 OA
ATOM     21  H   UNL     1       8.472   6.251  14.267  0.00  0.00    +0.000 HD
ENDBRANCH  15  20
ENDBRANCH   1  12
BRANCH   4  22
ATOM     22  O   UNL     1       1.284   4.021  21.415  0.00  0.00    +0.000 OA
ATOM     23  C   UNL     1       1.414   2.631  21.724  0.00  0.00    +0.000 C 
ENDBRANCH   4  22
BRANCH   6  24
ATOM     24  C   UNL     1       2.495   7.509  18.524  0.00  0.00    +0.000 C 
ATOM     25  C   UNL     1       1.855   8.535  17.957  0.00  0.00    +0.000 C 
BRANCH  25  26
ATOM     26  C   UNL     1       2.427   9.920  17.812  0.00  0.00    +0.000 C 
BRANCH  26  27
ATOM     27  O   UNL     1       1.486  10.944  18.110  0.00  0.00    +0.000 OA
ATOM     28  H   UNL     1       1.985  11.774  18.204  0.00  0.00    +0.000 HD
ENDBRANCH  26  27
ENDBRANCH  25  26
ENDBRANCH   6  24
BRANCH   9  29
ATOM     29  C   UNL     1       3.554   1.323  18.332  0.00  0.00    +0.000 C 
BRANCH  29  30
ATOM     30  O   UNL     1       4.655   1.079  19.212  0.00  0.00    +0.000 OA
ATOM     31  H   UNL     1       4.327   0.560  19.970  0.00  0.00    +0.000 HD
ENDBRANCH  29  30
ENDBRANCH   9  29
TORSDOF 10
ENDMDL
MODEL 3
REMARK VINA RESULT:      -6.5      2.134      6.686
REMARK  Name = 
REMARK  13 active torsions:
REMARK  status: ('A' for Active; 'I' for Inactive)
REMARK    1  A    between atoms: C_1  and  O_2
REMARK    2  A    between atoms: O_2  and  C_3
REMARK    3  A    between atoms: C_5  and  C_6
REMARK    4  A    between atoms: C_9  and  O_10
REMARK    5  A    between atoms: O_10  and  C_11
REMARK    6  A    between atoms: C_13  and  C_14
REMARK    7  A    between atoms: C_15  and  C_16
REMARK    8  A    between atoms: C_16  and  O_17
REMARK    9  A    between atoms: C_20  and  C_21
REMARK   10  A    between atoms: C_21  and  O_22
REMARK   11  A    between atoms: C_24  and  O_25
REMARK   12  A    between atoms: O_25  and  C_26
REMARK   13  A    between atoms: C_27  and  O_28
REMARK                            x       y       z     vdW  Elec       q    Type
REMARK                         _______ _______ _______ _____ _____    ______ ____
ROOT
ATOM      1  C   UNL     1       2.986   5.824  17.709  0.00  0.00    +0.000 C 
ATOM      2  O   UNL     1       3.967   5.809  16.575  0.00  0.00    +0.000 OA
ATOM      3  C   UNL     1       4.994   4.737  16.952  0.00  0.00    +0.000 A 
ATOM      4  C   UNL     1       6.205   4.735  16.276  0.00  0.00    +0.000 A 
ATOM      5  C   UNL     1       7.105   5.707  16.637  0.00  0.00    +0.000 A 
ATOM      6  C   UNL     1       6.837   6.464  17.779  0.00  0.00    +0.000 A 
ATOM      7  C   UNL     1       5.854   6.000  18.706  0.00  0.00    +0.000 A 
ATOM      8  C   UNL     1       4.978   4.962  18.311  0.00  0.00    +0.000 A 
ATOM      9  C   UNL     1       3.523   4.772  18.686  0.00  0.00    +0.000 C 
ENDROOT
BRANCH   1  12
ATOM     10  C   UNL     1       1.980   9.504  18.348  0.00  0.00    +0.000 A 
ATOM     11  C   UNL     1       2.468   8.302  17.795  0.00  0.00    +0.000 A 
ATOM     12  C   UNL     1       2.528   7.075  18.509  0.00  0.00    +0.000 A 
ATOM     13  C   UNL     1       2.059   7.102  19.827  0.00  0.00    +0.000 A 
ATOM     14  C   UNL     1       1.535   8.291  20.405  0.00  0.00    +0.000 A 
ATOM     15  C   UNL     1       1.524   9.485  19.670  0.00  0.00    +0.000 A 
BRANCH  10  17
ATOM     16  C   UNL     1       2.529  11.834  17.970  0.00  0.00    +0.000 C 
ATOM     17  O   UNL     1       2.051  10.577  17.490  0.00  0.00    +0.000 OA
ENDBRANCH  10  17
BRANCH  14  18
ATOM     18  O   UNL     1       1.134   8.150  21.711  0.00  0.00    +0.000 OA
ATOM     19  C   UNL     1      -0.232   8.383  22.045  0.00  0.00    +0.000 C 
ENDBRANCH  14  18
BRANCH  15  20
ATOM     20  O   UNL     1       1.077  10.655  20.234  0.00  0.00    +0.000 OA
ATOM     21  H   UNL     1       0.934  10.434  21.170  0.00  0.00    +0.000 HD
ENDBRANCH  15  20
ENDBRANCH   1  12
BRANCH   4  22
ATOM     22  O   UNL     1       6.703   3.728  15.495  0.00  0.00    +0.000 OA
ATOM     23  C   UNL     1       6.377   3.794  14.104  0.00  0.00    +0.000 C 
ENDBRANCH   4  22
BRANCH   6  24
ATOM     24  C   UNL     1       7.330   7.837  17.665  0.00  0.00    +0.000 C 
ATOM     25  C   UNL     1       8.329   8.460  18.296  0.00  0.00    +0.000 C 
BRANCH  25  26
ATOM     26  C   UNL     1       8.641   9.926  18.156  0.00  0.00    +0.000 C 
BRANCH  26  27
ATOM     27  O   UNL     1       9.449  10.426  19.215  0.00  0.00    +0.000 OA
ATOM     28  H   UNL     1      10.083  11.050  18.822  0.00  0.00    +0.000 HD
ENDBRANCH  26  27
ENDBRANCH  25  26
ENDBRANCH   6  24
BRANCH   9  29
ATOM     29  C   UNL     1       2.906   3.416  18.221  0.00  0.00    +0.000 C 
BRANCH  29  30
ATOM     30  O   UNL     1       1.778   3.644  17.372  0.00  0.00    +0.000 OA
ATOM     31  H   UNL     1       1.429   2.777  17.093  0.00  0.00    +0.000 HD
ENDBRANCH  29  30
ENDBRANCH   9  29
TORSDOF 10
ENDMDL
MODEL 4
REMARK VINA RESULT:      -6.3      1.740      6.454
REMARK  Name = 
REMARK  13 active torsions:
REMARK  status: ('A' for Active; 'I' for Inactive)
REMARK    1  A    between atoms: C_1  and  O_2
REMARK    2  A    between atoms: O_2  and  C_3
REMARK    3  A    between atoms: C_5  and  C_6
REMARK    4  A    between atoms: C_9  and  O_10
REMARK    5  A    between atoms: O_10  and  C_11
REMARK    6  A    between atoms: C_13  and  C_14
REMARK    7  A    between atoms: C_15  and  C_16
REMARK    8  A    between atoms: C_16  and  O_17
REMARK    9  A    between atoms: C_20  and  C_21
REMARK   10  A    between atoms: C_21  and  O_22
REMARK   11  A    between atoms: C_24  and  O_25
REMARK   12  A    between atoms: O_25  and  C_26
REMARK   13  A    between atoms: C_27  and  O_28
REMARK                            x       y       z     vdW  Elec       q    Type
REMARK                         _______ _______ _______ _____ _____    ______ ____
ROOT
ATOM      1  C   UNL     1       3.372   4.782  17.207  0.00  0.00    +0.000 C 
ATOM      2  O   UNL     1       4.243   5.262  16.086  0.00  0.00    +0.000 OA
ATOM      3  C   UNL     1       5.479   4.358  16.128  0.00  0.00    +0.000 A 
ATOM      4  C   UNL     1       6.610   4.778  15.443  0.00  0.00    +0.000 A 
ATOM      5  C   UNL     1       7.340   5.782  16.031  0.00  0.00    +0.000 A 
ATOM      6  C   UNL     1       7.029   6.143  17.344  0.00  0.00    +0.000 A 
ATOM      7  C   UNL     1       6.228   5.265  18.136  0.00  0.00    +0.000 A 
ATOM      8  C   UNL     1       5.531   4.212  17.496  0.00  0.00    +0.000 A 
ATOM      9  C   UNL     1       4.173   3.641  17.845  0.00  0.00    +0.000 C 
ENDROOT
BRANCH   1  12
ATOM     10  C   UNL     1       2.108   5.721  20.740  0.00  0.00    +0.000 A 
ATOM     11  C   UNL     1       2.563   5.038  19.594  0.00  0.00    +0.000 A 
ATOM     12  C   UNL     1       2.754   5.660  18.331  0.00  0.00    +0.000 A 
ATOM     13  C   UNL     1       2.470   7.029  18.266  0.00  0.00    +0.000 A 
ATOM     14  C   UNL     1       2.036   7.752  19.410  0.00  0.00    +0.000 A 
ATOM     15  C   UNL     1       1.834   7.088  20.628  0.00  0.00    +0.000 A 
BRANCH  10  17
ATOM     16  C   UNL     1       1.998   3.495  21.691  0.00  0.00    +0.000 C 
ATOM     17  O   UNL     1       1.959   4.914  21.844  0.00  0.00    +0.000 OA
ENDBRANCH  10  17
BRANCH  14  18
ATOM     18  O   UNL     1       1.787   9.081  19.171  0.00  0.00    +0.000 OA
ATOM     19  C   UNL     1       1.871   9.574  17.836  0.00  0.00    +0.000 C 
ENDBRANCH  14  18
BRANCH  15  20
ATOM     20  O   UNL     1       1.357   7.760  21.726  0.00  0.00    +0.000 OA
ATOM     21  H   UNL     1       0.403   7.851  21.560  0.00  0.00    +0.000 HD
ENDBRANCH  15  20
ENDBRANCH   1  12
BRANCH   4  22
ATOM     22  O   UNL     1       7.223   4.132  14.404  0.00  0.00    +0.000 OA
ATOM     23  C   UNL     1       6.385   3.797  13.295  0.00  0.00    +0.000 C 
ENDBRANCH   4  22
BRANCH   6  24
ATOM     24  C   UNL     1       7.246   7.569  17.595  0.00  0.00    +0.000 C 
ATOM     25  C   UNL     1       8.339   8.228  17.989  0.00  0.00    +0.000 C 
BRANCH  25  26
ATOM     26  C   UNL     1       8.373   9.695  18.324  0.00  0.00    +0.000 C 
BRANCH  26  27
ATOM     27  O   UNL     1       9.357  10.020  19.299  0.00  0.00    +0.000 OA
ATOM     28  H   UNL     1      10.213  10.065  18.840  0.00  0.00    +0.000 HD
ENDBRANCH  26  27
ENDBRANCH  25  26
ENDBRANCH   6  24
BRANCH   9  29
ATOM     29  C   UNL     1       3.784   2.359  17.045  0.00  0.00    +0.000 C 
BRANCH  29  30
ATOM     30  O   UNL     1       2.771   1.623  17.736  0.00  0.00    +0.000 OA
ATOM     31  H   UNL     1       2.611   2.061  18.593  0.00  0.00    +0.000 HD
ENDBRANCH  29  30
ENDBRANCH   9  29
TORSDOF 10
ENDMDL
MODEL 5
REMARK VINA RESULT:      -5.8      1.429      2.020
REMARK  Name = 
REMARK  13 active torsions:
REMARK  status: ('A' for Active; 'I' for Inactive)
REMARK    1  A    between atoms: C_1  and  O_2
REMARK    2  A    between atoms: O_2  and  C_3
REMARK    3  A    between atoms: C_5  and  C_6
REMARK    4  A    between atoms: C_9  and  O_10
REMARK    5  A    between atoms: O_10  and  C_11
REMARK    6  A    between atoms: C_13  and  C_14
REMARK    7  A    between atoms: C_15  and  C_16
REMARK    8  A    between atoms: C_16  and  O_17
REMARK    9  A    between atoms: C_20  and  C_21
REMARK   10  A    between atoms: C_21  and  O_22
REMARK   11  A    between atoms: C_24  and  O_25
REMARK   12  A    between atoms: O_25  and  C_26
REMARK   13  A    between atoms: C_27  and  O_28
REMARK                            x       y       z     vdW  Elec       q    Type
REMARK                         _______ _______ _______ _____ _____    ______ ____
ROOT
ATOM      1  C   UNL     1       4.153   4.831  18.849  0.00  0.00    +0.000 C 
ATOM      2  O   UNL     1       3.809   5.904  19.837  0.00  0.00    +0.000 OA
ATOM      3  C   UNL     1       2.279   5.894  19.919  0.00  0.00    +0.000 A 
ATOM      4  C   UNL     1       1.655   6.997  20.481  0.00  0.00    +0.000 A 
ATOM      5  C   UNL     1       1.592   8.125  19.699  0.00  0.00    +0.000 A 
ATOM      6  C   UNL     1       1.950   8.016  18.353  0.00  0.00    +0.000 A 
ATOM      7  C   UNL     1       2.033   6.720  17.758  0.00  0.00    +0.000 A 
ATOM      8  C   UNL     1       2.044   5.581  18.599  0.00  0.00    +0.000 A 
ATOM      9  C   UNL     1       2.794   4.280  18.401  0.00  0.00    +0.000 C 
ENDROOT
BRANCH   1  12
ATOM     10  C   UNL     1       7.062   6.178  16.686  0.00  0.00    +0.000 A 
ATOM     11  C   UNL     1       6.088   5.978  17.685  0.00  0.00    +0.000 A 
ATOM     12  C   UNL     1       5.072   4.988  17.605  0.00  0.00    +0.000 A 
ATOM     13  C   UNL     1       5.079   4.184  16.460  0.00  0.00    +0.000 A 
ATOM     14  C   UNL     1       6.065   4.342  15.448  0.00  0.00    +0.000 A 
ATOM     15  C   UNL     1       7.030   5.353  15.557  0.00  0.00    +0.000 A 
BRANCH  10  17
ATOM     16  C   UNL     1       7.450   8.365  17.657  0.00  0.00    +0.000 C 
ATOM     17  O   UNL     1       7.924   7.217  16.952  0.00  0.00    +0.000 OA
ENDBRANCH  10  17
BRANCH  14  18
ATOM     18  O   UNL     1       5.920   3.484  14.386  0.00  0.00    +0.000 OA
ATOM     19  C   UNL     1       5.355   3.973  13.172  0.00  0.00    +0.000 C 
ENDBRANCH  14  18
BRANCH  15  20
ATOM     20  O   UNL     1       7.952   5.557  14.560  0.00  0.00    +0.000 OA
ATOM     21  H   UNL     1       7.836   4.798  13.963  0.00  0.00    +0.000 HD
ENDBRANCH  15  20
ENDBRANCH   1  12
BRANCH   4  22
ATOM     22  O   UNL     1       0.867   7.009  21.599  0.00  0.00    +0.000 OA
ATOM     23  C   UNL     1       0.051   8.170  21.779  0.00  0.00    +0.000 C 
ENDBRANCH   4  22
BRANCH   6  24
ATOM     24  C   UNL     1       2.573   9.237  17.843  0.00  0.00    +0.000 C 
ATOM     25  C   UNL     1       2.329  10.521  18.117  0.00  0.00    +0.000 C 
BRANCH  25  26
ATOM     26  C   UNL     1       2.981  11.681  17.413  0.00  0.00    +0.000 C 
BRANCH  26  27
ATOM     27  O   UNL     1       2.179  12.856  17.417  0.00  0.00    +0.000 OA
ATOM     28  H   UNL     1       2.759  13.601  17.185  0.00  0.00    +0.000 HD
ENDBRANCH  26  27
ENDBRANCH  25  26
ENDBRANCH   6  24
BRANCH   9  29
ATOM     29  C   UNL     1       2.436   3.164  19.432  0.00  0.00    +0.000 C 
BRANCH  29  30
ATOM     30  O   UNL     1       3.605   2.740  20.138  0.00  0.00    +0.000 OA
ATOM     31  H   UNL     1       3.355   2.578  21.067  0.00  0.00    +0.000 HD
ENDBRANCH  29  30
ENDBRANCH   9  29
TORSDOF 10
ENDMDL
MODEL 6
REMARK VINA RESULT:      -5.7      8.315     12.038
REMARK  Name = 
REMARK  13 active torsions:
REMARK  status: ('A' for Active; 'I' for Inactive)
REMARK    1  A    between atoms: C_1  and  O_2
REMARK    2  A    between atoms: O_2  and  C_3
REMARK    3  A    between atoms: C_5  and  C_6
REMARK    4  A    between atoms: C_9  and  O_10
REMARK    5  A    between atoms: O_10  and  C_11
REMARK    6  A    between atoms: C_13  and  C_14
REMARK    7  A    between atoms: C_15  and  C_16
REMARK    8  A    between atoms: C_16  and  O_17
REMARK    9  A    between atoms: C_20  and  C_21
REMARK   10  A    between atoms: C_21  and  O_22
REMARK   11  A    between atoms: C_24  and  O_25
REMARK   12  A    between atoms: O_25  and  C_26
REMARK   13  A    between atoms: C_27  and  O_28
REMARK                            x       y       z     vdW  Elec       q    Type
REMARK                         _______ _______ _______ _____ _____    ______ ____
ROOT
ATOM      1  C   UNL     1      -2.613  11.782  18.207  0.00  0.00    +0.000 C 
ATOM      2  O   UNL     1      -1.398  12.654  18.297  0.00  0.00    +0.000 OA
ATOM      3  C   UNL     1      -0.234  11.692  18.554  0.00  0.00    +0.000 A 
ATOM      4  C   UNL     1       0.955  12.226  19.027  0.00  0.00    +0.000 A 
ATOM      5  C   UNL     1       0.977  12.585  20.352  0.00  0.00    +0.000 A 
ATOM      6  C   UNL     1      -0.092  12.191  21.160  0.00  0.00    +0.000 A 
ATOM      7  C   UNL     1      -0.975  11.169  20.696  0.00  0.00    +0.000 A 
ATOM      8  C   UNL     1      -0.931  10.794  19.332  0.00  0.00    +0.000 A 
ATOM      9  C   UNL     1      -2.078  10.364  18.442  0.00  0.00    +0.000 C 
ENDROOT
BRANCH   1  12
ATOM     10  C   UNL     1      -6.195  11.000  19.439  0.00  0.00    +0.000 A 
ATOM     11  C   UNL     1      -4.975  11.033  18.734  0.00  0.00    +0.000 A 
ATOM     12  C   UNL     1      -3.935  11.964  19.003  0.00  0.00    +0.000 A 
ATOM     13  C   UNL     1      -4.174  12.876  20.036  0.00  0.00    +0.000 A 
ATOM     14  C   UNL     1      -5.383  12.852  20.784  0.00  0.00    +0.000 A 
ATOM     15  C   UNL     1      -6.391  11.932  20.462  0.00  0.00    +0.000 A 
BRANCH  10  17
ATOM     16  C   UNL     1      -7.139   8.778  19.647  0.00  0.00    +0.000 C 
ATOM     17  O   UNL     1      -7.071  10.041  18.985  0.00  0.00    +0.000 OA
ENDBRANCH  10  17
BRANCH  14  18
ATOM     18  O   UNL     1      -5.463  13.824  21.751  0.00  0.00    +0.000 OA
ATOM     19  C   UNL     1      -5.144  13.488  23.100  0.00  0.00    +0.000 C 
ENDBRANCH  14  18
BRANCH  15  20
ATOM     20  O   UNL     1      -7.588  11.936  21.136  0.00  0.00    +0.000 OA
ATOM     21  H   UNL     1      -8.250  11.726  20.454  0.00  0.00    +0.000 HD
ENDBRANCH  15  20
ENDBRANCH   1  12
BRANCH   4  22
ATOM     22  O   UNL     1       2.173  12.185  18.405  0.00  0.00    +0.000 OA
ATOM     23  C   UNL     1       2.883  13.425  18.337  0.00  0.00    +0.000 C 
ENDBRANCH   4  22
BRANCH   6  24
ATOM     24  C   UNL     1      -0.384  13.166  22.212  0.00  0.00    +0.000 C 
ATOM     25  C   UNL     1      -1.369  13.209  23.113  0.00  0.00    +0.000 C 
BRANCH  25  26
ATOM     26  C   UNL     1      -1.606  14.354  24.061  0.00  0.00    +0.000 C 
BRANCH  26  27
ATOM     27  O   UNL     1      -0.454  15.166  24.252  0.00  0.00    +0.000 OA
ATOM     28  H   UNL     1      -0.509  15.537  25.148  0.00  0.00    +0.000 HD
ENDBRANCH  26  27
ENDBRANCH  25  26
ENDBRANCH   6  24
BRANCH   9  29
ATOM     29  C   UNL     1      -1.646   9.843  17.036  0.00  0.00    +0.000 C 
BRANCH  29  30
ATOM     30  O   UNL     1      -2.192  10.670  16.005  0.00  0.00    +0.000 OA
ATOM     31  H   UNL     1      -2.928  10.186  15.587  0.00  0.00    +0.000 HD
ENDBRANCH  29  30
ENDBRANCH   9  29
TORSDOF 10
ENDMDL
MODEL 7
REMARK VINA RESULT:      -5.7      1.531      3.256
REMARK  Name = 
REMARK  13 active torsions:
REMARK  status: ('A' for Active; 'I' for Inactive)
REMARK    1  A    between atoms: C_1  and  O_2
REMARK    2  A    between atoms: O_2  and  C_3
REMARK    3  A    between atoms: C_5  and  C_6
REMARK    4  A    between atoms: C_9  and  O_10
REMARK    5  A    between atoms: O_10  and  C_11
REMARK    6  A    between atoms: C_13  and  C_14
REMARK    7  A    between atoms: C_15  and  C_16
REMARK    8  A    between atoms: C_16  and  O_17
REMARK    9  A    between atoms: C_20  and  C_21
REMARK   10  A    between atoms: C_21  and  O_22
REMARK   11  A    between atoms: C_24  and  O_25
REMARK   12  A    between atoms: O_25  and  C_26
REMARK   13  A    between atoms: C_27  and  O_28
REMARK                            x       y       z     vdW  Elec       q    Type
REMARK                         _______ _______ _______ _____ _____    ______ ____
ROOT
ATOM      1  C   UNL     1       4.241   5.048  19.084  0.00  0.00    +0.000 C 
ATOM      2  O   UNL     1       3.737   6.084  20.044  0.00  0.00    +0.000 OA
ATOM      3  C   UNL     1       2.211   6.023  19.930  0.00  0.00    +0.000 A 
ATOM      4  C   UNL     1       1.483   7.091  20.431  0.00  0.00    +0.000 A 
ATOM      5  C   UNL     1       1.480   8.236  19.672  0.00  0.00    +0.000 A 
ATOM      6  C   UNL     1       2.009   8.173  18.381  0.00  0.00    +0.000 A 
ATOM      7  C   UNL     1       2.212   6.897  17.774  0.00  0.00    +0.000 A 
ATOM      8  C   UNL     1       2.156   5.738  18.584  0.00  0.00    +0.000 A 
ATOM      9  C   UNL     1       2.969   4.466  18.455  0.00  0.00    +0.000 C 
ENDROOT
BRANCH   1  12
ATOM     10  C   UNL     1       6.140   4.446  15.769  0.00  0.00    +0.000 A 
ATOM     11  C   UNL     1       5.308   4.332  16.901  0.00  0.00    +0.000 A 
ATOM     12  C   UNL     1       5.304   5.267  17.972  0.00  0.00    +0.000 A 
ATOM     13  C   UNL     1       6.185   6.347  17.853  0.00  0.00    +0.000 A 
ATOM     14  C   UNL     1       7.017   6.505  16.711  0.00  0.00    +0.000 A 
ATOM     15  C   UNL     1       7.006   5.541  15.693  0.00  0.00    +0.000 A 
BRANCH  10  17
ATOM     16  C   UNL     1       5.760   3.692  13.497  0.00  0.00    +0.000 C 
ATOM     17  O   UNL     1       6.004   3.409  14.875  0.00  0.00    +0.000 OA
ENDBRANCH  10  17
BRANCH  14  18
ATOM     18  O   UNL     1       7.831   7.610  16.760  0.00  0.00    +0.000 OA
ATOM     19  C   UNL     1       8.074   8.238  18.017  0.00  0.00    +0.000 C 
ENDBRANCH  14  18
BRANCH  15  20
ATOM     20  O   UNL     1       7.847   5.648  14.613  0.00  0.00    +0.000 OA
ATOM     21  H   UNL     1       7.909   4.742  14.264  0.00  0.00    +0.000 HD
ENDBRANCH  15  20
ENDBRANCH   1  12
BRANCH   4  22
ATOM     22  O   UNL     1       0.559   7.049  21.440  0.00  0.00    +0.000 OA
ATOM     23  C   UNL     1      -0.114   8.278  21.725  0.00  0.00    +0.000 C 
ENDBRANCH   4  22
BRANCH   6  24
ATOM     24  C   UNL     1       2.650   9.427  17.981  0.00  0.00    +0.000 C 
ATOM     25  C   UNL     1       2.242  10.693  18.105  0.00  0.00    +0.000 C 
BRANCH  25  26
ATOM     26  C   UNL     1       2.966  11.880  17.529  0.00  0.00    +0.000 C 
BRANCH  26  27
ATOM     27  O   UNL     1       2.174  13.062  17.517  0.00  0.00    +0.000 OA
ATOM     28  H   UNL     1       1.339  12.853  17.967  0.00  0.00    +0.000 HD
ENDBRANCH  26  27
ENDBRANCH  25  26
ENDBRANCH   6  24
BRANCH   9  29
ATOM     29  C   UNL     1       2.523   3.313  19.407  0.00  0.00    +0.000 C 
BRANCH  29  30
ATOM     30  O   UNL     1       3.613   2.892  20.231  0.00  0.00    +0.000 OA
ATOM     31  H   UNL     1       4.008   3.686  20.638  0.00  0.00    +0.000 HD
ENDBRANCH  29  30
ENDBRANCH   9  29
TORSDOF 10
ENDMDL
MODEL 8
REMARK VINA RESULT:      -5.7      6.585     11.925
REMARK  Name = 
REMARK  13 active torsions:
REMARK  status: ('A' for Active; 'I' for Inactive)
REMARK    1  A    between atoms: C_1  and  O_2
REMARK    2  A    between atoms: O_2  and  C_3
REMARK    3  A    between atoms: C_5  and  C_6
REMARK    4  A    between atoms: C_9  and  O_10
REMARK    5  A    between atoms: O_10  and  C_11
REMARK    6  A    between atoms: C_13  and  C_14
REMARK    7  A    between atoms: C_15  and  C_16
REMARK    8  A    between atoms: C_16  and  O_17
REMARK    9  A    between atoms: C_20  and  C_21
REMARK   10  A    between atoms: C_21  and  O_22
REMARK   11  A    between atoms: C_24  and  O_25
REMARK   12  A    between atoms: O_25  and  C_26
REMARK   13  A    between atoms: C_27  and  O_28
REMARK                            x       y       z     vdW  Elec       q    Type
REMARK                         _______ _______ _______ _____ _____    ______ ____
ROOT
ATOM      1  C   UNL     1      -0.099  12.169  21.728  0.00  0.00    +0.000 C 
ATOM      2  O   UNL     1      -0.080  10.904  20.924  0.00  0.00    +0.000 OA
ATOM      3  C   UNL     1       0.491  11.307  19.561  0.00  0.00    +0.000 A 
ATOM      4  C   UNL     1       0.307  10.434  18.499  0.00  0.00    +0.000 A 
ATOM      5  C   UNL     1      -0.951  10.402  17.948  0.00  0.00    +0.000 A 
ATOM      6  C   UNL     1      -1.866  11.383  18.336  0.00  0.00    +0.000 A 
ATOM      7  C   UNL     1      -1.391  12.554  19.001  0.00  0.00    +0.000 A 
ATOM      8  C   UNL     1      -0.071  12.563  19.510  0.00  0.00    +0.000 A 
ATOM      9  C   UNL     1       0.443  13.234  20.767  0.00  0.00    +0.000 C 
ENDROOT
BRANCH   1  12
ATOM     10  C   UNL     1      -2.109  14.634  23.929  0.00  0.00    +0.000 A 
ATOM     11  C   UNL     1      -1.090  13.928  23.257  0.00  0.00    +0.000 A 
ATOM     12  C   UNL     1      -1.319  12.750  22.496  0.00  0.00    +0.000 A 
ATOM     13  C   UNL     1      -2.643  12.304  22.430  0.00  0.00    +0.000 A 
ATOM     14  C   UNL     1      -3.697  13.008  23.073  0.00  0.00    +0.000 A 
ATOM     15  C   UNL     1      -3.418  14.150  23.837  0.00  0.00    +0.000 A 
BRANCH  10  17
ATOM     16  C   UNL     1      -1.343  15.586  26.021  0.00  0.00    +0.000 C 
ATOM     17  O   UNL     1      -1.656  15.724  24.635  0.00  0.00    +0.000 OA
ENDBRANCH  10  17
BRANCH  14  18
ATOM     18  O   UNL     1      -4.933  12.427  22.922  0.00  0.00    +0.000 OA
ATOM     19  C   UNL     1      -5.694  12.712  21.751  0.00  0.00    +0.000 C 
ENDBRANCH  14  18
BRANCH  15  20
ATOM     20  O   UNL     1      -4.417  14.806  24.514  0.00  0.00    +0.000 OA
ATOM     21  H   UNL     1      -5.237  14.382  24.207  0.00  0.00    +0.000 HD
ENDBRANCH  15  20
ENDBRANCH   1  12
BRANCH   4  22
ATOM     22  O   UNL     1       1.286   9.811  17.774  0.00  0.00    +0.000 OA
ATOM     23  C   UNL     1       1.890   8.669  18.388  0.00  0.00    +0.000 C 
ENDBRANCH   4  22
BRANCH   6  24
ATOM     24  C   UNL     1      -3.242  10.884  18.352  0.00  0.00    +0.000 C 
ATOM     25  C   UNL     1      -4.388  11.475  18.003  0.00  0.00    +0.000 C 
BRANCH  25  26
ATOM     26  C   UNL     1      -5.752  10.867  18.192  0.00  0.00    +0.000 C 
BRANCH  26  27
ATOM     27  O   UNL     1      -6.780  11.588  17.524  0.00  0.00    +0.000 OA
ATOM     28  H   UNL     1      -6.997  11.096  16.714  0.00  0.00    +0.000 HD
ENDBRANCH  26  27
ENDBRANCH  25  26
ENDBRANCH   6  24
BRANCH   9  29
ATOM     29  C   UNL     1       1.994  13.196  20.934  0.00  0.00    +0.000 C 
BRANCH  29  30
ATOM     30  O   UNL     1       2.409  14.089  21.970  0.00  0.00    +0.000 OA
ATOM     31  H   UNL     1       2.088  14.983  21.746  0.00  0.00    +0.000 HD
ENDBRANCH  29  30
ENDBRANCH   9  29
TORSDOF 10
ENDMDL
MODEL 9
REMARK VINA RESULT:      -5.6      9.205     12.440
REMARK  Name = 
REMARK  13 active torsions:
REMARK  status: ('A' for Active; 'I' for Inactive)
REMARK    1  A    between atoms: C_1  and  O_2
REMARK    2  A    between atoms: O_2  and  C_3
REMARK    3  A    between atoms: C_5  and  C_6
REMARK    4  A    between atoms: C_9  and  O_10
REMARK    5  A    between atoms: O_10  and  C_11
REMARK    6  A    between atoms: C_13  and  C_14
REMARK    7  A    between atoms: C_15  and  C_16
REMARK    8  A    between atoms: C_16  and  O_17
REMARK    9  A    between atoms: C_20  and  C_21
REMARK   10  A    between atoms: C_21  and  O_22
REMARK   11  A    between atoms: C_24  and  O_25
REMARK   12  A    between atoms: O_25  and  C_26
REMARK   13  A    between atoms: C_27  and  O_28
REMARK                            x       y       z     vdW  Elec       q    Type
REMARK                         _______ _______ _______ _____ _____    ______ ____
ROOT
ATOM      1  C   UNL     1      -1.760  13.064  20.424  0.00  0.00    +0.000 C 
ATOM      2  O   UNL     1      -1.878  14.259  21.322  0.00  0.00    +0.000 OA
ATOM      3  C   UNL     1      -1.207  13.839  22.633  0.00  0.00    +0.000 A 
ATOM      4  C   UNL     1      -1.465  14.600  23.764  0.00  0.00    +0.000 A 
ATOM      5  C   UNL     1      -2.694  14.421  24.350  0.00  0.00    +0.000 A 
ATOM      6  C   UNL     1      -3.485  13.357  23.914  0.00  0.00    +0.000 A 
ATOM      7  C   UNL     1      -2.885  12.311  23.148  0.00  0.00    +0.000 A 
ATOM      8  C   UNL     1      -1.596  12.518  22.603  0.00  0.00    +0.000 A 
ATOM      9  C   UNL     1      -1.045  12.015  21.284  0.00  0.00    +0.000 C 
ENDROOT
BRANCH   1  12
ATOM     10  C   UNL     1      -5.399  12.245  19.401  0.00  0.00    +0.000 A 
ATOM     11  C   UNL     1      -4.240  12.701  20.063  0.00  0.00    +0.000 A 
ATOM     12  C   UNL     1      -2.919  12.381  19.647  0.00  0.00    +0.000 A 
ATOM     13  C   UNL     1      -2.807  11.572  18.511  0.00  0.00    +0.000 A 
ATOM     14  C   UNL     1      -3.955  11.119  17.806  0.00  0.00    +0.000 A 
ATOM     15  C   UNL     1      -5.238  11.437  18.271  0.00  0.00    +0.000 A 
BRANCH  10  17
ATOM     16  C   UNL     1      -7.481  11.664  20.497  0.00  0.00    +0.000 C 
ATOM     17  O   UNL     1      -6.572  12.645  19.998  0.00  0.00    +0.000 OA
ENDBRANCH  10  17
BRANCH  14  18
ATOM     18  O   UNL     1      -3.669  10.323  16.723  0.00  0.00    +0.000 OA
ATOM     19  C   UNL     1      -2.322   9.912  16.501  0.00  0.00    +0.000 C 
ENDBRANCH  14  18
BRANCH  15  20
ATOM     20  O   UNL     1      -6.357  10.957  17.635  0.00  0.00    +0.000 OA
ATOM     21  H   UNL     1      -7.064  11.033  18.299  0.00  0.00    +0.000 HD
ENDBRANCH  15  20
ENDBRANCH   1  12
BRANCH   4  22
ATOM     22  O   UNL     1      -0.550  15.294  24.507  0.00  0.00    +0.000 OA
ATOM     23  C   UNL     1       0.081  16.398  23.852  0.00  0.00    +0.000 C 
ENDBRANCH   4  22
BRANCH   6  24
ATOM     24  C   UNL     1      -4.915  13.665  23.975  0.00  0.00    +0.000 C 
ATOM     25  C   UNL     1      -5.980  12.932  23.640  0.00  0.00    +0.000 C 
BRANCH  25  26
ATOM     26  C   UNL     1      -7.397  13.438  23.646  0.00  0.00    +0.000 C 
BRANCH  26  27
ATOM     27  O   UNL     1      -7.915  13.627  24.958  0.00  0.00    +0.000 OA
ATOM     28  H   UNL     1      -8.094  14.577  25.062  0.00  0.00    +0.000 HD
ENDBRANCH  26  27
ENDBRANCH  25  26
ENDBRANCH   6  24
BRANCH   9  29
ATOM     29  C   UNL     1       0.480  12.274  21.078  0.00  0.00    +0.000 C 
BRANCH  29  30
ATOM     30  O   UNL     1       0.702  13.048  19.896  0.00  0.00    +0.000 OA
ATOM     31  H   UNL     1       1.659  13.219  19.822  0.00  0.00    +0.000 HD
ENDBRANCH  29  30
ENDBRANCH   9  29
TORSDOF 10
ENDMDL
