MODEL 1
REMARK VINA RESULT:      -7.5      0.000      0.000
REMARK  Name = 
REMARK  8 active torsions:
REMARK  status: ('A' for Active; 'I' for Inactive)
REMARK    1  A    between atoms: C_1  and  C_2
REMARK    2  A    between atoms: C_2  and  C_3
REMARK    3  A    between atoms: C_2  and  C_18
REMARK    4  A    between atoms: C_3  and  S_4
REMARK    5  A    between atoms: S_4  and  N_7
REMARK    6  A    between atoms: N_7  and  C_8
REMARK    7  A    between atoms: C_13  and  S_14
REMARK    8  A    between atoms: S_14  and  N_15
REMARK                            x       y       z     vdW  Elec       q    Type
REMARK                         _______ _______ _______ _____ _____    ______ ____
ROOT
ATOM      1  N   UNL     1       5.182   3.270  18.803  0.00  0.00    +0.000 N 
ATOM      2  H   UNL     1       5.917   2.553  18.939  0.00  0.00    +0.000 HD
ENDROOT
BRANCH   1   3
ATOM      3  C   UNL     1       5.384   4.061  17.611  0.00  0.00    +0.000 A 
ATOM      4  C   UNL     1       4.575   3.778  16.505  0.00  0.00    +0.000 A 
ATOM      5  C   UNL     1       4.717   4.498  15.311  0.00  0.00    +0.000 A 
ATOM      6  C   UNL     1       5.666   5.513  15.214  0.00  0.00    +0.000 A 
ATOM      7  C   UNL     1       6.498   5.786  16.298  0.00  0.00    +0.000 A 
ATOM      8  C   UNL     1       6.377   5.041  17.481  0.00  0.00    +0.000 A 
BRANCH   8   9
ATOM      9  S   UNL     1       7.504   5.404  18.787  0.00  0.00    +0.000 S 
ATOM     10  O   UNL     1       6.771   5.515  20.026  0.00  0.00    +0.000 OA
ATOM     11  O   UNL     1       8.658   4.544  18.659  0.00  0.00    +0.000 OA
BRANCH   9  12
ATOM     12  N   UNL     1       7.987   6.957  18.389  0.00  0.00    +0.000 NA
ATOM     13  H   UNL     1       7.615   7.646  19.040  0.00  0.00    +0.000 HD
ATOM     14  H   UNL     1       8.991   7.021  18.214  0.00  0.00    +0.000 HD
ENDBRANCH   9  12
ENDBRANCH   8   9
ENDBRANCH   1   3
BRANCH   1  15
ATOM     15  S   UNL     1       3.688   2.464  18.940  0.00  0.00    +0.000 S 
ATOM     16  O   UNL     1       3.565   2.083  20.331  0.00  0.00    +0.000 OA
ATOM     17  O   UNL     1       3.583   1.483  17.885  0.00  0.00    +0.000 OA
BRANCH  15  18
ATOM     18  C   UNL     1       2.542   3.801  18.625  0.00  0.00    +0.000 C 
BRANCH  18  20
ATOM     19  C   UNL     1       1.170   4.561  20.657  0.00  0.00    +0.000 C 
ATOM     20  C   UNL     1       2.431   4.778  19.811  0.00  0.00    +0.000 C 
BRANCH  20  21
ATOM     21  C   UNL     1       2.443   6.247  19.390  0.00  0.00    +0.000 A 
ATOM     22  C   UNL     1       1.811   7.199  20.213  0.00  0.00    +0.000 A 
ATOM     23  C   UNL     1       1.657   8.522  19.789  0.00  0.00    +0.000 A 
ATOM     24  C   UNL     1       2.141   8.910  18.544  0.00  0.00    +0.000 A 
ATOM     25 CL   UNL     1       1.905  10.523  17.994  0.00  0.00    +0.000 Cl
ATOM     26  C   UNL     1       2.793   7.991  17.727  0.00  0.00    +0.000 A 
ATOM     27  C   UNL     1       2.940   6.665  18.146  0.00  0.00    +0.000 A 
ENDBRANCH  20  21
ENDBRANCH  18  20
ENDBRANCH  15  18
ENDBRANCH   1  15
TORSDOF 7
ENDMDL
MODEL 2
REMARK VINA RESULT:      -7.4      2.093      2.552
REMARK  Name = 
REMARK  8 active torsions:
REMARK  status: ('A' for Active; 'I' for Inactive)
REMARK    1  A    between atoms: C_1  and  C_2
REMARK    2  A    between atoms: C_2  and  C_3
REMARK    3  A    between atoms: C_2  and  C_18
REMARK    4  A    between atoms: C_3  and  S_4
REMARK    5  A    between atoms: S_4  and  N_7
REMARK    6  A    between atoms: N_7  and  C_8
REMARK    7  A    between atoms: C_13  and  S_14
REMARK    8  A    between atoms: S_14  and  N_15
REMARK                            x       y       z     vdW  Elec       q    Type
REMARK                         _______ _______ _______ _____ _____    ______ ____
ROOT
ATOM      1  N   UNL     1       4.977   3.416  17.304  0.00  0.00    +0.000 N 
ATOM      2  H   UNL     1       4.367   3.695  16.515  0.00  0.00    +0.000 HD
ENDROOT
BRANCH   1   3
ATOM      3  C   UNL     1       5.917   4.448  17.678  0.00  0.00    +0.000 A 
ATOM      4  C   UNL     1       6.083   4.705  19.042  0.00  0.00    +0.000 A 
ATOM      5  C   UNL     1       6.972   5.695  19.481  0.00  0.00    +0.000 A 
ATOM      6  C   UNL     1       7.708   6.434  18.558  0.00  0.00    +0.000 A 
ATOM      7  C   UNL     1       7.531   6.209  17.195  0.00  0.00    +0.000 A 
ATOM      8  C   UNL     1       6.616   5.240  16.756  0.00  0.00    +0.000 A 
BRANCH   8   9
ATOM      9  S   UNL     1       6.403   5.053  15.016  0.00  0.00    +0.000 S 
ATOM     10  O   UNL     1       5.064   5.461  14.658  0.00  0.00    +0.000 OA
ATOM     11  O   UNL     1       7.567   5.586  14.345  0.00  0.00    +0.000 OA
BRANCH   9  12
ATOM     12  N   UNL     1       6.444   3.388  14.852  0.00  0.00    +0.000 NA
ATOM     13  H   UNL     1       5.886   2.925  15.567  0.00  0.00    +0.000 HD
ATOM     14  H   UNL     1       6.263   3.086  13.894  0.00  0.00    +0.000 HD
ENDBRANCH   9  12
ENDBRANCH   8   9
ENDBRANCH   1   3
BRANCH   1  15
ATOM     15  S   UNL     1       3.946   2.842  18.532  0.00  0.00    +0.000 S 
ATOM     16  O   UNL     1       4.667   3.015  19.774  0.00  0.00    +0.000 OA
ATOM     17  O   UNL     1       3.426   1.551  18.145  0.00  0.00    +0.000 OA
BRANCH  15  18
ATOM     18  C   UNL     1       2.631   4.054  18.477  0.00  0.00    +0.000 C 
BRANCH  18  20
ATOM     19  C   UNL     1       1.436   4.465  20.712  0.00  0.00    +0.000 C 
ATOM     20  C   UNL     1       2.556   4.904  19.759  0.00  0.00    +0.000 C 
BRANCH  20  21
ATOM     21  C   UNL     1       2.356   6.395  19.488  0.00  0.00    +0.000 A 
ATOM     22  C   UNL     1       1.767   7.198  20.482  0.00  0.00    +0.000 A 
ATOM     23  C   UNL     1       1.419   8.526  20.217  0.00  0.00    +0.000 A 
ATOM     24  C   UNL     1       1.664   9.067  18.959  0.00  0.00    +0.000 A 
ATOM     25 CL   UNL     1       1.187  10.683  18.611  0.00  0.00    +0.000 Cl
ATOM     26  C   UNL     1       2.272   8.298  17.971  0.00  0.00    +0.000 A 
ATOM     27  C   UNL     1       2.612   6.968  18.232  0.00  0.00    +0.000 A 
ENDBRANCH  20  21
ENDBRANCH  18  20
ENDBRANCH  15  18
ENDBRANCH   1  15
TORSDOF 7
ENDMDL
MODEL 3
REMARK VINA RESULT:      -7.4      2.133      2.717
REMARK  Name = 
REMARK  8 active torsions:
REMARK  status: ('A' for Active; 'I' for Inactive)
REMARK    1  A    between atoms: C_1  and  C_2
REMARK    2  A    between atoms: C_2  and  C_3
REMARK    3  A    between atoms: C_2  and  C_18
REMARK    4  A    between atoms: C_3  and  S_4
REMARK    5  A    between atoms: S_4  and  N_7
REMARK    6  A    between atoms: N_7  and  C_8
REMARK    7  A    between atoms: C_13  and  S_14
REMARK    8  A    between atoms: S_14  and  N_15
REMARK                            x       y       z     vdW  Elec       q    Type
REMARK                         _______ _______ _______ _____ _____    ______ ____
ROOT
ATOM      1  N   UNL     1       5.656   3.473  17.986  0.00  0.00    +0.000 N 
ATOM      2  H   UNL     1       5.502   3.189  17.002  0.00  0.00    +0.000 HD
ENDROOT
BRANCH   1   3
ATOM      3  C   UNL     1       6.446   4.676  18.107  0.00  0.00    +0.000 A 
ATOM      4  C   UNL     1       6.957   4.988  19.371  0.00  0.00    +0.000 A 
ATOM      5  C   UNL     1       7.727   6.141  19.567  0.00  0.00    +0.000 A 
ATOM      6  C   UNL     1       7.998   6.993  18.498  0.00  0.00    +0.000 A 
ATOM      7  C   UNL     1       7.471   6.710  17.240  0.00  0.00    +0.000 A 
ATOM      8  C   UNL     1       6.673   5.572  17.053  0.00  0.00    +0.000 A 
BRANCH   8   9
ATOM      9  S   UNL     1       5.993   5.313  15.447  0.00  0.00    +0.000 S 
ATOM     10  O   UNL     1       7.055   5.367  14.470  0.00  0.00    +0.000 OA
ATOM     11  O   UNL     1       5.068   4.204  15.506  0.00  0.00    +0.000 OA
BRANCH   9  12
ATOM     12  N   UNL     1       5.092   6.708  15.237  0.00  0.00    +0.000 NA
ATOM     13  H   UNL     1       5.322   7.178  14.363  0.00  0.00    +0.000 HD
ATOM     14  H   UNL     1       4.096   6.558  15.402  0.00  0.00    +0.000 HD
ENDBRANCH   9  12
ENDBRANCH   8   9
ENDBRANCH   1   3
BRANCH   1  15
ATOM     15  S   UNL     1       4.123   3.489  18.729  0.00  0.00    +0.000 S 
ATOM     16  O   UNL     1       4.359   3.274  20.140  0.00  0.00    +0.000 OA
ATOM     17  O   UNL     1       3.229   2.633  17.983  0.00  0.00    +0.000 OA
BRANCH  15  18
ATOM     18  C   UNL     1       3.642   5.197  18.497  0.00  0.00    +0.000 C 
BRANCH  18  20
ATOM     19  C   UNL     1       1.655   4.888  20.093  0.00  0.00    +0.000 C 
ATOM     20  C   UNL     1       2.856   5.758  19.696  0.00  0.00    +0.000 C 
BRANCH  20  21
ATOM     21  C   UNL     1       2.328   7.174  19.467  0.00  0.00    +0.000 A 
ATOM     22  C   UNL     1       1.676   7.840  20.522  0.00  0.00    +0.000 A 
ATOM     23  C   UNL     1       1.038   9.066  20.310  0.00  0.00    +0.000 A 
ATOM     24  C   UNL     1       1.053   9.643  19.043  0.00  0.00    +0.000 A 
ATOM     25 CL   UNL     1       0.222  11.123  18.764  0.00  0.00    +0.000 Cl
ATOM     26  C   UNL     1       1.716   9.013  17.994  0.00  0.00    +0.000 A 
ATOM     27  C   UNL     1       2.346   7.784  18.202  0.00  0.00    +0.000 A 
ENDBRANCH  20  21
ENDBRANCH  18  20
ENDBRANCH  15  18
ENDBRANCH   1  15
TORSDOF 7
ENDMDL
MODEL 4
REMARK VINA RESULT:      -7.4      0.830      1.382
REMARK  Name = 
REMARK  8 active torsions:
REMARK  status: ('A' for Active; 'I' for Inactive)
REMARK    1  A    between atoms: C_1  and  C_2
REMARK    2  A    between atoms: C_2  and  C_3
REMARK    3  A    between atoms: C_2  and  C_18
REMARK    4  A    between atoms: C_3  and  S_4
REMARK    5  A    between atoms: S_4  and  N_7
REMARK    6  A    between atoms: N_7  and  C_8
REMARK    7  A    between atoms: C_13  and  S_14
REMARK    8  A    between atoms: S_14  and  N_15
REMARK                            x       y       z     vdW  Elec       q    Type
REMARK                         _______ _______ _______ _____ _____    ______ ____
ROOT
ATOM      1  N   UNL     1       5.509   3.133  18.508  0.00  0.00    +0.000 N 
ATOM      2  H   UNL     1       6.002   2.264  18.235  0.00  0.00    +0.000 HD
ENDROOT
BRANCH   1   3
ATOM      3  C   UNL     1       5.504   4.129  17.462  0.00  0.00    +0.000 A 
ATOM      4  C   UNL     1       4.736   3.863  16.323  0.00  0.00    +0.000 A 
ATOM      5  C   UNL     1       4.686   4.778  15.264  0.00  0.00    +0.000 A 
ATOM      6  C   UNL     1       5.400   5.972  15.336  0.00  0.00    +0.000 A 
ATOM      7  C   UNL     1       6.192   6.237  16.451  0.00  0.00    +0.000 A 
ATOM      8  C   UNL     1       6.267   5.304  17.496  0.00  0.00    +0.000 A 
BRANCH   8   9
ATOM      9  S   UNL     1       7.337   5.681  18.846  0.00  0.00    +0.000 S 
ATOM     10  O   UNL     1       7.976   6.952  18.600  0.00  0.00    +0.000 OA
ATOM     11  O   UNL     1       6.641   5.405  20.082  0.00  0.00    +0.000 OA
BRANCH   9  12
ATOM     12  N   UNL     1       8.525   4.516  18.666  0.00  0.00    +0.000 NA
ATOM     13  H   UNL     1       9.378   4.906  18.268  0.00  0.00    +0.000 HD
ATOM     14  H   UNL     1       8.655   3.957  19.510  0.00  0.00    +0.000 HD
ENDBRANCH   9  12
ENDBRANCH   8   9
ENDBRANCH   1   3
BRANCH   1  15
ATOM     15  S   UNL     1       3.991   2.657  19.117  0.00  0.00    +0.000 S 
ATOM     16  O   UNL     1       4.131   2.618  20.557  0.00  0.00    +0.000 OA
ATOM     17  O   UNL     1       3.530   1.502  18.381  0.00  0.00    +0.000 OA
BRANCH  15  18
ATOM     18  C   UNL     1       2.986   4.074  18.692  0.00  0.00    +0.000 C 
BRANCH  18  20
ATOM     19  C   UNL     1       1.764   4.548  20.899  0.00  0.00    +0.000 C 
ATOM     20  C   UNL     1       2.796   5.041  19.876  0.00  0.00    +0.000 C 
BRANCH  20  21
ATOM     21  C   UNL     1       2.371   6.446  19.450  0.00  0.00    +0.000 A 
ATOM     22  C   UNL     1       2.739   6.915  18.175  0.00  0.00    +0.000 A 
ATOM     23  C   UNL     1       2.512   8.244  17.808  0.00  0.00    +0.000 A 
ATOM     24  C   UNL     1       1.907   9.117  18.708  0.00  0.00    +0.000 A 
ATOM     25 CL   UNL     1       1.677  10.767  18.281  0.00  0.00    +0.000 Cl
ATOM     26  C   UNL     1       1.511   8.665  19.963  0.00  0.00    +0.000 A 
ATOM     27  C   UNL     1       1.745   7.339  20.334  0.00  0.00    +0.000 A 
ENDBRANCH  20  21
ENDBRANCH  18  20
ENDBRANCH  15  18
ENDBRANCH   1  15
TORSDOF 7
ENDMDL
MODEL 5
REMARK VINA RESULT:      -7.4      2.219      2.742
REMARK  Name = 
REMARK  8 active torsions:
REMARK  status: ('A' for Active; 'I' for Inactive)
REMARK    1  A    between atoms: C_1  and  C_2
REMARK    2  A    between atoms: C_2  and  C_3
REMARK    3  A    between atoms: C_2  and  C_18
REMARK    4  A    between atoms: C_3  and  S_4
REMARK    5  A    between atoms: S_4  and  N_7
REMARK    6  A    between atoms: N_7  and  C_8
REMARK    7  A    between atoms: C_13  and  S_14
REMARK    8  A    between atoms: S_14  and  N_15
REMARK                            x       y       z     vdW  Elec       q    Type
REMARK                         _______ _______ _______ _____ _____    ______ ____
ROOT
ATOM      1  N   UNL     1       4.047   4.984  17.126  0.00  0.00    +0.000 N 
ATOM      2  H   UNL     1       3.489   5.844  17.269  0.00  0.00    +0.000 HD
ENDROOT
BRANCH   1   3
ATOM      3  C   UNL     1       5.381   5.082  17.671  0.00  0.00    +0.000 A 
ATOM      4  C   UNL     1       5.500   5.299  19.048  0.00  0.00    +0.000 A 
ATOM      5  C   UNL     1       6.761   5.412  19.648  0.00  0.00    +0.000 A 
ATOM      6  C   UNL     1       7.916   5.304  18.877  0.00  0.00    +0.000 A 
ATOM      7  C   UNL     1       7.812   5.117  17.500  0.00  0.00    +0.000 A 
ATOM      8  C   UNL     1       6.548   5.038  16.896  0.00  0.00    +0.000 A 
BRANCH   8   9
ATOM      9  S   UNL     1       6.496   4.862  15.143  0.00  0.00    +0.000 S 
ATOM     10  O   UNL     1       7.773   5.249  14.592  0.00  0.00    +0.000 OA
ATOM     11  O   UNL     1       5.880   3.595  14.820  0.00  0.00    +0.000 OA
BRANCH   9  12
ATOM     12  N   UNL     1       5.417   6.069  14.719  0.00  0.00    +0.000 NA
ATOM     13  H   UNL     1       4.690   5.722  14.095  0.00  0.00    +0.000 HD
ATOM     14  H   UNL     1       5.082   6.595  15.527  0.00  0.00    +0.000 HD
ENDBRANCH   9  12
ENDBRANCH   8   9
ENDBRANCH   1   3
BRANCH   1  15
ATOM     15  S   UNL     1       3.089   3.689  17.681  0.00  0.00    +0.000 S 
ATOM     16  O   UNL     1       3.911   2.957  18.620  0.00  0.00    +0.000 OA
ATOM     17  O   UNL     1       2.485   3.030  16.546  0.00  0.00    +0.000 OA
BRANCH  15  18
ATOM     18  C   UNL     1       1.828   4.560  18.604  0.00  0.00    +0.000 C 
BRANCH  18  20
ATOM     19  C   UNL     1       1.925   4.912  21.145  0.00  0.00    +0.000 C 
ATOM     20  C   UNL     1       2.409   5.384  19.767  0.00  0.00    +0.000 C 
BRANCH  20  21
ATOM     21  C   UNL     1       2.097   6.877  19.669  0.00  0.00    +0.000 A 
ATOM     22  C   UNL     1       1.503   7.525  20.769  0.00  0.00    +0.000 A 
ATOM     23  C   UNL     1       1.054   8.845  20.666  0.00  0.00    +0.000 A 
ATOM     24  C   UNL     1       1.201   9.534  19.465  0.00  0.00    +0.000 A 
ATOM     25 CL   UNL     1       0.600  11.138  19.316  0.00  0.00    +0.000 Cl
ATOM     26  C   UNL     1       1.810   8.920  18.375  0.00  0.00    +0.000 A 
ATOM     27  C   UNL     1       2.252   7.597  18.474  0.00  0.00    +0.000 A 
ENDBRANCH  20  21
ENDBRANCH  18  20
ENDBRANCH  15  18
ENDBRANCH   1  15
TORSDOF 7
ENDMDL
MODEL 6
REMARK VINA RESULT:      -7.3      2.141      2.893
REMARK  Name = 
REMARK  8 active torsions:
REMARK  status: ('A' for Active; 'I' for Inactive)
REMARK    1  A    between atoms: C_1  and  C_2
REMARK    2  A    between atoms: C_2  and  C_3
REMARK    3  A    between atoms: C_2  and  C_18
REMARK    4  A    between atoms: C_3  and  S_4
REMARK    5  A    between atoms: S_4  and  N_7
REMARK    6  A    between atoms: N_7  and  C_8
REMARK    7  A    between atoms: C_13  and  S_14
REMARK    8  A    between atoms: S_14  and  N_15
REMARK                            x       y       z     vdW  Elec       q    Type
REMARK                         _______ _______ _______ _____ _____    ______ ____
ROOT
ATOM      1  N   UNL     1       5.363   3.543  17.754  0.00  0.00    +0.000 N 
ATOM      2  H   UNL     1       5.204   3.355  16.748  0.00  0.00    +0.000 HD
ENDROOT
BRANCH   1   3
ATOM      3  C   UNL     1       6.253   4.656  17.984  0.00  0.00    +0.000 A 
ATOM      4  C   UNL     1       6.659   4.898  19.300  0.00  0.00    +0.000 A 
ATOM      5  C   UNL     1       7.517   5.964  19.601  0.00  0.00    +0.000 A 
ATOM      6  C   UNL     1       7.982   6.796  18.586  0.00  0.00    +0.000 A 
ATOM      7  C   UNL     1       7.563   6.586  17.274  0.00  0.00    +0.000 A 
ATOM      8  C   UNL     1       6.678   5.538  16.980  0.00  0.00    +0.000 A 
BRANCH   8   9
ATOM      9  S   UNL     1       6.146   5.371  15.307  0.00  0.00    +0.000 S 
ATOM     10  O   UNL     1       7.296   5.444  14.437  0.00  0.00    +0.000 OA
ATOM     11  O   UNL     1       5.197   4.284  15.227  0.00  0.00    +0.000 OA
BRANCH   9  12
ATOM     12  N   UNL     1       5.299   6.797  15.083  0.00  0.00    +0.000 NA
ATOM     13  H   UNL     1       5.446   7.449  15.852  0.00  0.00    +0.000 HD
ATOM     14  H   UNL     1       5.433   7.189  14.150  0.00  0.00    +0.000 HD
ENDBRANCH   9  12
ENDBRANCH   8   9
ENDBRANCH   1   3
BRANCH   1  15
ATOM     15  S   UNL     1       3.823   3.636  18.477  0.00  0.00    +0.000 S 
ATOM     16  O   UNL     1       4.015   3.303  19.872  0.00  0.00    +0.000 OA
ATOM     17  O   UNL     1       2.875   2.912  17.661  0.00  0.00    +0.000 OA
BRANCH  15  18
ATOM     18  C   UNL     1       3.490   5.389  18.362  0.00  0.00    +0.000 C 
BRANCH  18  20
ATOM     19  C   UNL     1       1.743   5.006  20.204  0.00  0.00    +0.000 C 
ATOM     20  C   UNL     1       2.809   5.947  19.626  0.00  0.00    +0.000 C 
BRANCH  20  21
ATOM     21  C   UNL     1       2.140   7.303  19.407  0.00  0.00    +0.000 A 
ATOM     22  C   UNL     1       2.234   7.916  18.144  0.00  0.00    +0.000 A 
ATOM     23  C   UNL     1       1.779   9.223  17.945  0.00  0.00    +0.000 A 
ATOM     24  C   UNL     1       1.217   9.927  19.006  0.00  0.00    +0.000 A 
ATOM     25 CL   UNL     1       0.706  11.555  18.782  0.00  0.00    +0.000 Cl
ATOM     26  C   UNL     1       1.089   9.329  20.256  0.00  0.00    +0.000 A 
ATOM     27  C   UNL     1       1.552   8.026  20.458  0.00  0.00    +0.000 A 
ENDBRANCH  20  21
ENDBRANCH  18  20
ENDBRANCH  15  18
ENDBRANCH   1  15
TORSDOF 7
ENDMDL
MODEL 7
REMARK VINA RESULT:      -7.3      2.743      5.396
REMARK  Name = 
REMARK  8 active torsions:
REMARK  status: ('A' for Active; 'I' for Inactive)
REMARK    1  A    between atoms: C_1  and  C_2
REMARK    2  A    between atoms: C_2  and  C_3
REMARK    3  A    between atoms: C_2  and  C_18
REMARK    4  A    between atoms: C_3  and  S_4
REMARK    5  A    between atoms: S_4  and  N_7
REMARK    6  A    between atoms: N_7  and  C_8
REMARK    7  A    between atoms: C_13  and  S_14
REMARK    8  A    between atoms: S_14  and  N_15
REMARK                            x       y       z     vdW  Elec       q    Type
REMARK                         _______ _______ _______ _____ _____    ______ ____
ROOT
ATOM      1  N   UNL     1       4.350   3.804  18.942  0.00  0.00    +0.000 N 
ATOM      2  H   UNL     1       5.238   4.280  18.703  0.00  0.00    +0.000 HD
ENDROOT
BRANCH   1   3
ATOM      3  C   UNL     1       3.364   4.699  19.501  0.00  0.00    +0.000 A 
ATOM      4  C   UNL     1       3.450   6.051  19.153  0.00  0.00    +0.000 A 
ATOM      5  C   UNL     1       2.533   6.981  19.661  0.00  0.00    +0.000 A 
ATOM      6  C   UNL     1       1.518   6.565  20.520  0.00  0.00    +0.000 A 
ATOM      7  C   UNL     1       1.438   5.227  20.899  0.00  0.00    +0.000 A 
ATOM      8  C   UNL     1       2.377   4.304  20.415  0.00  0.00    +0.000 A 
BRANCH   8   9
ATOM      9  S   UNL     1       2.249   2.641  20.986  0.00  0.00    +0.000 S 
ATOM     10  O   UNL     1       1.462   1.878  20.044  0.00  0.00    +0.000 OA
ATOM     11  O   UNL     1       3.552   2.197  21.425  0.00  0.00    +0.000 OA
BRANCH   9  12
ATOM     12  N   UNL     1       1.295   2.829  22.348  0.00  0.00    +0.000 NA
ATOM     13  H   UNL     1       1.665   2.309  23.142  0.00  0.00    +0.000 HD
ATOM     14  H   UNL     1       1.070   3.807  22.535  0.00  0.00    +0.000 HD
ENDBRANCH   9  12
ENDBRANCH   8   9
ENDBRANCH   1   3
BRANCH   1  15
ATOM     15  S   UNL     1       3.885   2.927  17.557  0.00  0.00    +0.000 S 
ATOM     16  O   UNL     1       2.761   3.640  16.990  0.00  0.00    +0.000 OA
ATOM     17  O   UNL     1       3.786   1.526  17.898  0.00  0.00    +0.000 OA
BRANCH  15  18
ATOM     18  C   UNL     1       5.301   3.182  16.493  0.00  0.00    +0.000 C 
BRANCH  18  20
ATOM     19  C   UNL     1       5.940   4.623  14.467  0.00  0.00    +0.000 C 
ATOM     20  C   UNL     1       5.330   4.592  15.875  0.00  0.00    +0.000 C 
BRANCH  20  21
ATOM     21  C   UNL     1       6.098   5.609  16.720  0.00  0.00    +0.000 A 
ATOM     22  C   UNL     1       5.853   6.981  16.527  0.00  0.00    +0.000 A 
ATOM     23  C   UNL     1       6.644   7.946  17.159  0.00  0.00    +0.000 A 
ATOM     24  C   UNL     1       7.682   7.548  17.996  0.00  0.00    +0.000 A 
ATOM     25 CL   UNL     1       8.694   8.729  18.731  0.00  0.00    +0.000 Cl
ATOM     26  C   UNL     1       7.923   6.196  18.221  0.00  0.00    +0.000 A 
ATOM     27  C   UNL     1       7.138   5.231  17.583  0.00  0.00    +0.000 A 
ENDBRANCH  20  21
ENDBRANCH  18  20
ENDBRANCH  15  18
ENDBRANCH   1  15
TORSDOF 7
ENDMDL
MODEL 8
REMARK VINA RESULT:      -7.2      2.560      3.372
REMARK  Name = 
REMARK  8 active torsions:
REMARK  status: ('A' for Active; 'I' for Inactive)
REMARK    1  A    between atoms: C_1  and  C_2
REMARK    2  A    between atoms: C_2  and  C_3
REMARK    3  A    between atoms: C_2  and  C_18
REMARK    4  A    between atoms: C_3  and  S_4
REMARK    5  A    between atoms: S_4  and  N_7
REMARK    6  A    between atoms: N_7  and  C_8
REMARK    7  A    between atoms: C_13  and  S_14
REMARK    8  A    between atoms: S_14  and  N_15
REMARK                            x       y       z     vdW  Elec       q    Type
REMARK                         _______ _______ _______ _____ _____    ______ ____
ROOT
ATOM      1  N   UNL     1       4.364   3.990  17.647  0.00  0.00    +0.000 N 
ATOM      2  H   UNL     1       4.069   4.064  16.657  0.00  0.00    +0.000 HD
ENDROOT
BRANCH   1   3
ATOM      3  C   UNL     1       5.541   4.774  17.943  0.00  0.00    +0.000 A 
ATOM      4  C   UNL     1       5.924   4.882  19.283  0.00  0.00    +0.000 A 
ATOM      5  C   UNL     1       7.051   5.630  19.648  0.00  0.00    +0.000 A 
ATOM      6  C   UNL     1       7.809   6.275  18.673  0.00  0.00    +0.000 A 
ATOM      7  C   UNL     1       7.422   6.201  17.337  0.00  0.00    +0.000 A 
ATOM      8  C   UNL     1       6.274   5.478  16.977  0.00  0.00    +0.000 A 
BRANCH   8   9
ATOM      9  S   UNL     1       5.814   5.479  15.275  0.00  0.00    +0.000 S 
ATOM     10  O   UNL     1       5.147   4.236  14.966  0.00  0.00    +0.000 OA
ATOM     11  O   UNL     1       5.227   6.760  14.952  0.00  0.00    +0.000 OA
BRANCH   9  12
ATOM     12  N   UNL     1       7.309   5.407  14.526  0.00  0.00    +0.000 NA
ATOM     13  H   UNL     1       7.244   5.621  13.532  0.00  0.00    +0.000 HD
ATOM     14  H   UNL     1       8.027   5.924  15.036  0.00  0.00    +0.000 HD
ENDBRANCH   9  12
ENDBRANCH   8   9
ENDBRANCH   1   3
BRANCH   1  15
ATOM     15  S   UNL     1       2.980   4.307  18.589  0.00  0.00    +0.000 S 
ATOM     16  O   UNL     1       3.041   3.395  19.710  0.00  0.00    +0.000 OA
ATOM     17  O   UNL     1       1.823   4.351  17.725  0.00  0.00    +0.000 OA
BRANCH  15  18
ATOM     18  C   UNL     1       3.337   5.954  19.188  0.00  0.00    +0.000 C 
BRANCH  18  20
ATOM     19  C   UNL     1       3.370   7.832  17.438  0.00  0.00    +0.000 C 
ATOM     20  C   UNL     1       2.532   7.040  18.451  0.00  0.00    +0.000 C 
BRANCH  20  21
ATOM     21  C   UNL     1       1.883   8.057  19.390  0.00  0.00    +0.000 A 
ATOM     22  C   UNL     1       1.648   7.698  20.730  0.00  0.00    +0.000 A 
ATOM     23  C   UNL     1       0.914   8.533  21.578  0.00  0.00    +0.000 A 
ATOM     24  C   UNL     1       0.417   9.740  21.097  0.00  0.00    +0.000 A 
ATOM     25 CL   UNL     1      -0.534  10.746  22.119  0.00  0.00    +0.000 Cl
ATOM     26  C   UNL     1       0.662  10.127  19.783  0.00  0.00    +0.000 A 
ATOM     27  C   UNL     1       1.388   9.288  18.932  0.00  0.00    +0.000 A 
ENDBRANCH  20  21
ENDBRANCH  18  20
ENDBRANCH  15  18
ENDBRANCH   1  15
TORSDOF 7
ENDMDL
MODEL 9
REMARK VINA RESULT:      -7.1      2.755      5.401
REMARK  Name = 
REMARK  8 active torsions:
REMARK  status: ('A' for Active; 'I' for Inactive)
REMARK    1  A    between atoms: C_1  and  C_2
REMARK    2  A    between atoms: C_2  and  C_3
REMARK    3  A    between atoms: C_2  and  C_18
REMARK    4  A    between atoms: C_3  and  S_4
REMARK    5  A    between atoms: S_4  and  N_7
REMARK    6  A    between atoms: N_7  and  C_8
REMARK    7  A    between atoms: C_13  and  S_14
REMARK    8  A    between atoms: S_14  and  N_15
REMARK                            x       y       z     vdW  Elec       q    Type
REMARK                         _______ _______ _______ _____ _____    ______ ____
ROOT
ATOM      1  N   UNL     1       4.357   3.760  18.868  0.00  0.00    +0.000 N 
ATOM      2  H   UNL     1       5.223   4.230  18.549  0.00  0.00    +0.000 HD
ENDROOT
BRANCH   1   3
ATOM      3  C   UNL     1       3.398   4.677  19.439  0.00  0.00    +0.000 A 
ATOM      4  C   UNL     1       3.486   6.021  19.060  0.00  0.00    +0.000 A 
ATOM      5  C   UNL     1       2.595   6.970  19.577  0.00  0.00    +0.000 A 
ATOM      6  C   UNL     1       1.602   6.583  20.475  0.00  0.00    +0.000 A 
ATOM      7  C   UNL     1       1.521   5.254  20.883  0.00  0.00    +0.000 A 
ATOM      8  C   UNL     1       2.436   4.311  20.390  0.00  0.00    +0.000 A 
BRANCH   8   9
ATOM      9  S   UNL     1       2.308   2.661  20.999  0.00  0.00    +0.000 S 
ATOM     10  O   UNL     1       1.476   1.891  20.105  0.00  0.00    +0.000 OA
ATOM     11  O   UNL     1       3.622   2.209  21.397  0.00  0.00    +0.000 OA
BRANCH   9  12
ATOM     12  N   UNL     1       1.411   2.889  22.394  0.00  0.00    +0.000 NA
ATOM     13  H   UNL     1       2.003   2.928  23.221  0.00  0.00    +0.000 HD
ATOM     14  H   UNL     1       0.738   3.652  22.304  0.00  0.00    +0.000 HD
ENDBRANCH   9  12
ENDBRANCH   8   9
ENDBRANCH   1   3
BRANCH   1  15
ATOM     15  S   UNL     1       3.817   2.804  17.565  0.00  0.00    +0.000 S 
ATOM     16  O   UNL     1       2.658   3.481  17.025  0.00  0.00    +0.000 OA
ATOM     17  O   UNL     1       3.745   1.425  17.991  0.00  0.00    +0.000 OA
BRANCH  15  18
ATOM     18  C   UNL     1       5.167   3.000  16.408  0.00  0.00    +0.000 C 
BRANCH  18  20
ATOM     19  C   UNL     1       5.557   4.320  14.241  0.00  0.00    +0.000 C 
ATOM     20  C   UNL     1       5.164   4.379  15.724  0.00  0.00    +0.000 C 
BRANCH  20  21
ATOM     21  C   UNL     1       6.093   5.391  16.394  0.00  0.00    +0.000 A 
ATOM     22  C   UNL     1       7.136   4.923  17.215  0.00  0.00    +0.000 A 
ATOM     23  C   UNL     1       7.906   5.811  17.972  0.00  0.00    +0.000 A 
ATOM     24  C   UNL     1       7.646   7.176  17.911  0.00  0.00    +0.000 A 
ATOM     25 CL   UNL     1       8.552   8.268  18.883  0.00  0.00    +0.000 Cl
ATOM     26  C   UNL     1       6.637   7.662  17.084  0.00  0.00    +0.000 A 
ATOM     27  C   UNL     1       5.862   6.774  16.332  0.00  0.00    +0.000 A 
ENDBRANCH  20  21
ENDBRANCH  18  20
ENDBRANCH  15  18
ENDBRANCH   1  15
TORSDOF 7
ENDMDL
