MODEL 1
REMARK VINA RESULT:      -7.3      0.000      0.000
REMARK  Name = 
REMARK  5 active torsions:
REMARK  status: ('A' for Active; 'I' for Inactive)
REMARK    1  A    between atoms: C_1  and  O_2
REMARK    2  A    between atoms: O_2  and  C_3
REMARK    3  A    between atoms: C_3  and  C_5
REMARK    4  A    between atoms: C_5  and  N_6
REMARK    5  A    between atoms: N_14  and  C_15
REMARK                            x       y       z     vdW  Elec       q    Type
REMARK                         _______ _______ _______ _____ _____    ______ ____
ROOT
ATOM      1  N   UNL     1       4.432   4.450  17.082  0.00  0.00    +0.000 N 
ATOM      2  C   UNL     1       4.249   3.158  17.491  0.00  0.00    +0.000 A 
ATOM      3  N   UNL     1       3.426   3.085  18.514  0.00  0.00    +0.000 NA
ATOM      4  C   UNL     1       3.076   4.391  18.784  0.00  0.00    +0.000 A 
ATOM      5  C   UNL     1       2.245   5.014  19.696  0.00  0.00    +0.000 A 
ATOM      6 CL   UNL     1       1.365   4.073  20.796  0.00  0.00    +0.000 Cl
ATOM      7  N   UNL     1       2.055   6.339  19.687  0.00  0.00    +0.000 NA
ATOM      8  C   UNL     1       2.694   7.077  18.760  0.00  0.00    +0.000 A 
ATOM      9  N   UNL     1       2.441   8.449  18.691  0.00  0.00    +0.000 N 
ATOM     10  N   UNL     1       3.565   6.596  17.845  0.00  0.00    +0.000 NA
ATOM     11  C   UNL     1       3.696   5.259  17.899  0.00  0.00    +0.000 A 
ATOM     12  H   UNL     1       3.038   8.879  17.999  0.00  0.00    +0.000 HD
ENDROOT
BRANCH   9  13
ATOM     13  C   UNL     1       1.267   9.159  18.999  0.00  0.00    +0.000 A 
ATOM     14  C   UNL     1       0.877   9.463  20.311  0.00  0.00    +0.000 A 
ATOM     15  C   UNL     1      -0.267  10.215  20.582  0.00  0.00    +0.000 A 
ATOM     16  C   UNL     1      -1.044  10.693  19.536  0.00  0.00    +0.000 A 
ATOM     17  C   UNL     1      -0.673  10.420  18.222  0.00  0.00    +0.000 A 
ATOM     18  C   UNL     1       0.477   9.667  17.957  0.00  0.00    +0.000 A 
ENDBRANCH   9  13
BRANCH   1  19
ATOM     19  C   UNL     1       5.205   4.879  15.936  0.00  0.00    +0.000 C 
BRANCH  19  20
ATOM     20  C   UNL     1       6.608   5.268  16.317  0.00  0.00    +0.000 C 
ATOM     21  O   UNL     1       7.539   4.502  16.512  0.00  0.00    +0.000 OA
BRANCH  20  23
ATOM     22  C   UNL     1       7.399   7.125  17.511  0.00  0.00    +0.000 C 
ATOM     23  O   UNL     1       6.695   6.630  16.370  0.00  0.00    +0.000 OA
ENDBRANCH  20  23
ENDBRANCH  19  20
ENDBRANCH   1  19
TORSDOF 4
ENDMDL
MODEL 2
REMARK VINA RESULT:      -7.3      1.020      1.449
REMARK  Name = 
REMARK  5 active torsions:
REMARK  status: ('A' for Active; 'I' for Inactive)
REMARK    1  A    between atoms: C_1  and  O_2
REMARK    2  A    between atoms: O_2  and  C_3
REMARK    3  A    between atoms: C_3  and  C_5
REMARK    4  A    between atoms: C_5  and  N_6
REMARK    5  A    between atoms: N_14  and  C_15
REMARK                            x       y       z     vdW  Elec       q    Type
REMARK                         _______ _______ _______ _____ _____    ______ ____
ROOT
ATOM      1  N   UNL     1       4.687   5.262  17.002  0.00  0.00    +0.000 N 
ATOM      2  C   UNL     1       4.717   4.024  17.583  0.00  0.00    +0.000 A 
ATOM      3  N   UNL     1       3.975   3.978  18.666  0.00  0.00    +0.000 NA
ATOM      4  C   UNL     1       3.456   5.248  18.797  0.00  0.00    +0.000 A 
ATOM      5  C   UNL     1       2.598   5.869  19.685  0.00  0.00    +0.000 A 
ATOM      6 CL   UNL     1       1.930   4.974  20.959  0.00  0.00    +0.000 Cl
ATOM      7  N   UNL     1       2.218   7.143  19.526  0.00  0.00    +0.000 NA
ATOM      8  C   UNL     1       2.688   7.829  18.467  0.00  0.00    +0.000 A 
ATOM      9  N   UNL     1       2.235   9.132  18.246  0.00  0.00    +0.000 N 
ATOM     10  N   UNL     1       3.565   7.353  17.555  0.00  0.00    +0.000 NA
ATOM     11  C   UNL     1       3.891   6.066  17.766  0.00  0.00    +0.000 A 
ATOM     12  H   UNL     1       2.722   9.543  17.462  0.00  0.00    +0.000 HD
ENDROOT
BRANCH   9  13
ATOM     13  C   UNL     1       0.990   9.711  18.553  0.00  0.00    +0.000 A 
ATOM     14  C   UNL     1       0.776  10.516  19.680  0.00  0.00    +0.000 A 
ATOM     15  C   UNL     1      -0.457  11.119  19.928  0.00  0.00    +0.000 A 
ATOM     16  C   UNL     1      -1.508  10.938  19.039  0.00  0.00    +0.000 A 
ATOM     17  C   UNL     1      -1.319  10.156  17.903  0.00  0.00    +0.000 A 
ATOM     18  C   UNL     1      -0.079   9.555  17.658  0.00  0.00    +0.000 A 
ENDBRANCH   9  13
BRANCH   1  19
ATOM     19  C   UNL     1       5.322   5.633  15.756  0.00  0.00    +0.000 C 
BRANCH  19  20
ATOM     20  C   UNL     1       6.823   5.640  15.868  0.00  0.00    +0.000 C 
ATOM     21  O   UNL     1       7.492   6.427  16.521  0.00  0.00    +0.000 OA
BRANCH  20  23
ATOM     22  C   UNL     1       6.485   4.147  14.091  0.00  0.00    +0.000 C 
ATOM     23  O   UNL     1       7.329   4.591  15.156  0.00  0.00    +0.000 OA
ENDBRANCH  20  23
ENDBRANCH  19  20
ENDBRANCH   1  19
TORSDOF 4
ENDMDL
MODEL 3
REMARK VINA RESULT:      -7.3      0.888      1.496
REMARK  Name = 
REMARK  5 active torsions:
REMARK  status: ('A' for Active; 'I' for Inactive)
REMARK    1  A    between atoms: C_1  and  O_2
REMARK    2  A    between atoms: O_2  and  C_3
REMARK    3  A    between atoms: C_3  and  C_5
REMARK    4  A    between atoms: C_5  and  N_6
REMARK    5  A    between atoms: N_14  and  C_15
REMARK                            x       y       z     vdW  Elec       q    Type
REMARK                         _______ _______ _______ _____ _____    ______ ____
ROOT
ATOM      1  N   UNL     1       4.430   3.939  17.315  0.00  0.00    +0.000 N 
ATOM      2  C   UNL     1       4.096   2.662  17.673  0.00  0.00    +0.000 A 
ATOM      3  N   UNL     1       3.165   2.645  18.601  0.00  0.00    +0.000 NA
ATOM      4  C   UNL     1       2.898   3.972  18.862  0.00  0.00    +0.000 A 
ATOM      5  C   UNL     1       2.029   4.651  19.695  0.00  0.00    +0.000 A 
ATOM      6 CL   UNL     1       0.960   3.774  20.674  0.00  0.00    +0.000 Cl
ATOM      7  N   UNL     1       1.953   5.988  19.696  0.00  0.00    +0.000 NA
ATOM      8  C   UNL     1       2.747   6.681  18.859  0.00  0.00    +0.000 A 
ATOM      9  N   UNL     1       2.620   8.070  18.795  0.00  0.00    +0.000 N 
ATOM     10  N   UNL     1       3.669   6.140  18.031  0.00  0.00    +0.000 NA
ATOM     11  C   UNL     1       3.680   4.796  18.069  0.00  0.00    +0.000 A 
ATOM     12  H   UNL     1       3.321   8.458  18.180  0.00  0.00    +0.000 HD
ENDROOT
BRANCH   9  13
ATOM     13  C   UNL     1       1.483   8.874  18.993  0.00  0.00    +0.000 A 
ATOM     14  C   UNL     1       0.733   9.414  17.938  0.00  0.00    +0.000 A 
ATOM     15  C   UNL     1      -0.421  10.164  18.167  0.00  0.00    +0.000 A 
ATOM     16  C   UNL     1      -0.860  10.381  19.467  0.00  0.00    +0.000 A 
ATOM     17  C   UNL     1      -0.144   9.844  20.533  0.00  0.00    +0.000 A 
ATOM     18  C   UNL     1       1.012   9.090  20.297  0.00  0.00    +0.000 A 
ENDBRANCH   9  13
BRANCH   1  19
ATOM     19  C   UNL     1       5.355   4.315  16.269  0.00  0.00    +0.000 C 
BRANCH  19  20
ATOM     20  C   UNL     1       6.750   4.516  16.795  0.00  0.00    +0.000 C 
ATOM     21  O   UNL     1       7.111   4.363  17.953  0.00  0.00    +0.000 OA
BRANCH  20  23
ATOM     22  C   UNL     1       6.968   4.747  14.471  0.00  0.00    +0.000 C 
ATOM     23  O   UNL     1       7.574   4.857  15.761  0.00  0.00    +0.000 OA
ENDBRANCH  20  23
ENDBRANCH  19  20
ENDBRANCH   1  19
TORSDOF 4
ENDMDL
MODEL 4
REMARK VINA RESULT:      -7.2      0.893      1.113
REMARK  Name = 
REMARK  5 active torsions:
REMARK  status: ('A' for Active; 'I' for Inactive)
REMARK    1  A    between atoms: C_1  and  O_2
REMARK    2  A    between atoms: O_2  and  C_3
REMARK    3  A    between atoms: C_3  and  C_5
REMARK    4  A    between atoms: C_5  and  N_6
REMARK    5  A    between atoms: N_14  and  C_15
REMARK                            x       y       z     vdW  Elec       q    Type
REMARK                         _______ _______ _______ _____ _____    ______ ____
ROOT
ATOM      1  N   UNL     1       4.396   3.986  17.232  0.00  0.00    +0.000 N 
ATOM      2  C   UNL     1       4.103   2.699  17.590  0.00  0.00    +0.000 A 
ATOM      3  N   UNL     1       3.216   2.654  18.559  0.00  0.00    +0.000 NA
ATOM      4  C   UNL     1       2.936   3.972  18.847  0.00  0.00    +0.000 A 
ATOM      5  C   UNL     1       2.092   4.625  19.726  0.00  0.00    +0.000 A 
ATOM      6 CL   UNL     1       1.086   3.717  20.742  0.00  0.00    +0.000 Cl
ATOM      7  N   UNL     1       1.990   5.960  19.746  0.00  0.00    +0.000 NA
ATOM      8  C   UNL     1       2.732   6.678  18.882  0.00  0.00    +0.000 A 
ATOM      9  N   UNL     1       2.574   8.065  18.840  0.00  0.00    +0.000 N 
ATOM     10  N   UNL     1       3.626   6.164  18.007  0.00  0.00    +0.000 NA
ATOM     11  C   UNL     1       3.664   4.820  18.029  0.00  0.00    +0.000 A 
ATOM     12  H   UNL     1       3.240   8.473  18.199  0.00  0.00    +0.000 HD
ENDROOT
BRANCH   9  13
ATOM     13  C   UNL     1       1.432   8.844  19.098  0.00  0.00    +0.000 A 
ATOM     14  C   UNL     1       0.970   9.121  20.393  0.00  0.00    +0.000 A 
ATOM     15  C   UNL     1      -0.136   9.941  20.618  0.00  0.00    +0.000 A 
ATOM     16  C   UNL     1      -0.801  10.516  19.544  0.00  0.00    +0.000 A 
ATOM     17  C   UNL     1      -0.356  10.271  18.248  0.00  0.00    +0.000 A 
ATOM     18  C   UNL     1       0.756   9.449  18.029  0.00  0.00    +0.000 A 
ENDBRANCH   9  13
BRANCH   1  19
ATOM     19  C   UNL     1       5.265   4.392  16.149  0.00  0.00    +0.000 C 
BRANCH  19  20
ATOM     20  C   UNL     1       6.689   4.561  16.603  0.00  0.00    +0.000 C 
ATOM     21  O   UNL     1       7.093   4.471  17.753  0.00  0.00    +0.000 OA
BRANCH  20  23
ATOM     22  C   UNL     1       6.803   4.668  14.263  0.00  0.00    +0.000 C 
ATOM     23  O   UNL     1       7.482   4.791  15.515  0.00  0.00    +0.000 OA
ENDBRANCH  20  23
ENDBRANCH  19  20
ENDBRANCH   1  19
TORSDOF 4
ENDMDL
MODEL 5
REMARK VINA RESULT:      -7.2      1.048      1.688
REMARK  Name = 
REMARK  5 active torsions:
REMARK  status: ('A' for Active; 'I' for Inactive)
REMARK    1  A    between atoms: C_1  and  O_2
REMARK    2  A    between atoms: O_2  and  C_3
REMARK    3  A    between atoms: C_3  and  C_5
REMARK    4  A    between atoms: C_5  and  N_6
REMARK    5  A    between atoms: N_14  and  C_15
REMARK                            x       y       z     vdW  Elec       q    Type
REMARK                         _______ _______ _______ _____ _____    ______ ____
ROOT
ATOM      1  N   UNL     1       4.706   5.249  16.979  0.00  0.00    +0.000 N 
ATOM      2  C   UNL     1       4.690   4.004  17.545  0.00  0.00    +0.000 A 
ATOM      3  N   UNL     1       3.907   3.960  18.600  0.00  0.00    +0.000 NA
ATOM      4  C   UNL     1       3.407   5.239  18.727  0.00  0.00    +0.000 A 
ATOM      5  C   UNL     1       2.529   5.866  19.590  0.00  0.00    +0.000 A 
ATOM      6 CL   UNL     1       1.796   4.970  20.827  0.00  0.00    +0.000 Cl
ATOM      7  N   UNL     1       2.180   7.149  19.432  0.00  0.00    +0.000 NA
ATOM      8  C   UNL     1       2.702   7.838  18.401  0.00  0.00    +0.000 A 
ATOM      9  N   UNL     1       2.284   9.153  18.180  0.00  0.00    +0.000 N 
ATOM     10  N   UNL     1       3.604   7.355  17.516  0.00  0.00    +0.000 NA
ATOM     11  C   UNL     1       3.896   6.060  17.724  0.00  0.00    +0.000 A 
ATOM     12  H   UNL     1       2.808   9.562  17.419  0.00  0.00    +0.000 HD
ENDROOT
BRANCH   9  13
ATOM     13  C   UNL     1       1.040   9.752  18.446  0.00  0.00    +0.000 A 
ATOM     14  C   UNL     1      -0.079   9.597  17.616  0.00  0.00    +0.000 A 
ATOM     15  C   UNL     1      -1.315  10.162  17.936  0.00  0.00    +0.000 A 
ATOM     16  C   UNL     1      -1.460  10.889  19.110  0.00  0.00    +0.000 A 
ATOM     17  C   UNL     1      -0.370  11.046  19.961  0.00  0.00    +0.000 A 
ATOM     18  C   UNL     1       0.866  10.475  19.636  0.00  0.00    +0.000 A 
ENDBRANCH   9  13
BRANCH   1  19
ATOM     19  C   UNL     1       5.394   5.623  15.763  0.00  0.00    +0.000 C 
BRANCH  19  20
ATOM     20  C   UNL     1       6.885   5.690  15.957  0.00  0.00    +0.000 C 
ATOM     21  O   UNL     1       7.463   6.141  16.934  0.00  0.00    +0.000 OA
BRANCH  20  23
ATOM     22  C   UNL     1       6.620   4.409  14.010  0.00  0.00    +0.000 C 
ATOM     23  O   UNL     1       7.502   5.122  14.880  0.00  0.00    +0.000 OA
ENDBRANCH  20  23
ENDBRANCH  19  20
ENDBRANCH   1  19
TORSDOF 4
ENDMDL
MODEL 6
REMARK VINA RESULT:      -7.2      1.231      1.580
REMARK  Name = 
REMARK  5 active torsions:
REMARK  status: ('A' for Active; 'I' for Inactive)
REMARK    1  A    between atoms: C_1  and  O_2
REMARK    2  A    between atoms: O_2  and  C_3
REMARK    3  A    between atoms: C_3  and  C_5
REMARK    4  A    between atoms: C_5  and  N_6
REMARK    5  A    between atoms: N_14  and  C_15
REMARK                            x       y       z     vdW  Elec       q    Type
REMARK                         _______ _______ _______ _____ _____    ______ ____
ROOT
ATOM      1  N   UNL     1       4.275   4.232  17.484  0.00  0.00    +0.000 N 
ATOM      2  C   UNL     1       3.878   2.926  17.392  0.00  0.00    +0.000 A 
ATOM      3  N   UNL     1       2.902   2.655  18.229  0.00  0.00    +0.000 NA
ATOM      4  C   UNL     1       2.669   3.836  18.901  0.00  0.00    +0.000 A 
ATOM      5  C   UNL     1       1.784   4.250  19.878  0.00  0.00    +0.000 A 
ATOM      6 CL   UNL     1       0.637   3.156  20.477  0.00  0.00    +0.000 Cl
ATOM      7  N   UNL     1       1.756   5.514  20.315  0.00  0.00    +0.000 NA
ATOM      8  C   UNL     1       2.615   6.402  19.780  0.00  0.00    +0.000 A 
ATOM      9  N   UNL     1       2.540   7.741  20.170  0.00  0.00    +0.000 N 
ATOM     10  N   UNL     1       3.557   6.115  18.854  0.00  0.00    +0.000 NA
ATOM     11  C   UNL     1       3.519   4.833  18.450  0.00  0.00    +0.000 A 
ATOM     12  H   UNL     1       3.285   8.272  19.742  0.00  0.00    +0.000 HD
ENDROOT
BRANCH   9  13
ATOM     13  C   UNL     1       1.423   8.492  20.580  0.00  0.00    +0.000 A 
ATOM     14  C   UNL     1       0.977   8.540  21.908  0.00  0.00    +0.000 A 
ATOM     15  C   UNL     1      -0.102   9.337  22.292  0.00  0.00    +0.000 A 
ATOM     16  C   UNL     1      -0.755  10.119  21.349  0.00  0.00    +0.000 A 
ATOM     17  C   UNL     1      -0.324  10.103  20.025  0.00  0.00    +0.000 A 
ATOM     18  C   UNL     1       0.761   9.304  19.647  0.00  0.00    +0.000 A 
ENDBRANCH   9  13
BRANCH   1  19
ATOM     19  C   UNL     1       5.264   4.882  16.652  0.00  0.00    +0.000 C 
BRANCH  19  20
ATOM     20  C   UNL     1       6.664   4.627  17.139  0.00  0.00    +0.000 C 
ATOM     21  O   UNL     1       6.990   4.362  18.287  0.00  0.00    +0.000 OA
BRANCH  20  23
ATOM     22  C   UNL     1       6.892   4.580  14.805  0.00  0.00    +0.000 C 
ATOM     23  O   UNL     1       7.525   4.695  16.081  0.00  0.00    +0.000 OA
ENDBRANCH  20  23
ENDBRANCH  19  20
ENDBRANCH   1  19
TORSDOF 4
ENDMDL
MODEL 7
REMARK VINA RESULT:      -7.1      0.621      1.401
REMARK  Name = 
REMARK  5 active torsions:
REMARK  status: ('A' for Active; 'I' for Inactive)
REMARK    1  A    between atoms: C_1  and  O_2
REMARK    2  A    between atoms: O_2  and  C_3
REMARK    3  A    between atoms: C_3  and  C_5
REMARK    4  A    between atoms: C_5  and  N_6
REMARK    5  A    between atoms: N_14  and  C_15
REMARK                            x       y       z     vdW  Elec       q    Type
REMARK                         _______ _______ _______ _____ _____    ______ ____
ROOT
ATOM      1  N   UNL     1       4.456   4.831  17.002  0.00  0.00    +0.000 N 
ATOM      2  C   UNL     1       4.279   3.543  17.427  0.00  0.00    +0.000 A 
ATOM      3  N   UNL     1       3.423   3.473  18.422  0.00  0.00    +0.000 NA
ATOM      4  C   UNL     1       3.043   4.777  18.657  0.00  0.00    +0.000 A 
ATOM      5  C   UNL     1       2.171   5.401  19.529  0.00  0.00    +0.000 A 
ATOM      6 CL   UNL     1       1.268   4.464  20.615  0.00  0.00    +0.000 Cl
ATOM      7  N   UNL     1       1.961   6.723  19.492  0.00  0.00    +0.000 NA
ATOM      8  C   UNL     1       2.619   7.455  18.574  0.00  0.00    +0.000 A 
ATOM      9  N   UNL     1       2.347   8.822  18.473  0.00  0.00    +0.000 N 
ATOM     10  N   UNL     1       3.530   6.974  17.698  0.00  0.00    +0.000 NA
ATOM     11  C   UNL     1       3.679   5.640  17.780  0.00  0.00    +0.000 A 
ATOM     12  H   UNL     1       2.961   9.250  17.795  0.00  0.00    +0.000 HD
ENDROOT
BRANCH   9  13
ATOM     13  C   UNL     1       1.152   9.518  18.729  0.00  0.00    +0.000 A 
ATOM     14  C   UNL     1       0.114   9.627  17.792  0.00  0.00    +0.000 A 
ATOM     15  C   UNL     1      -1.082  10.279  18.095  0.00  0.00    +0.000 A 
ATOM     16  C   UNL     1      -1.270  10.829  19.356  0.00  0.00    +0.000 A 
ATOM     17  C   UNL     1      -0.263  10.722  20.311  0.00  0.00    +0.000 A 
ATOM     18  C   UNL     1       0.934  10.065  20.002  0.00  0.00    +0.000 A 
ENDBRANCH   9  13
BRANCH   1  19
ATOM     19  C   UNL     1       5.261   5.252  15.877  0.00  0.00    +0.000 C 
BRANCH  19  20
ATOM     20  C   UNL     1       6.587   5.815  16.313  0.00  0.00    +0.000 C 
ATOM     21  O   UNL     1       6.841   6.996  16.502  0.00  0.00    +0.000 OA
BRANCH  20  23
ATOM     22  C   UNL     1       7.821   4.580  17.880  0.00  0.00    +0.000 C 
ATOM     23  O   UNL     1       7.466   4.788  16.511  0.00  0.00    +0.000 OA
ENDBRANCH  20  23
ENDBRANCH  19  20
ENDBRANCH   1  19
TORSDOF 4
ENDMDL
MODEL 8
REMARK VINA RESULT:      -6.9      1.044      1.390
REMARK  Name = 
REMARK  5 active torsions:
REMARK  status: ('A' for Active; 'I' for Inactive)
REMARK    1  A    between atoms: C_1  and  O_2
REMARK    2  A    between atoms: O_2  and  C_3
REMARK    3  A    between atoms: C_3  and  C_5
REMARK    4  A    between atoms: C_5  and  N_6
REMARK    5  A    between atoms: N_14  and  C_15
REMARK                            x       y       z     vdW  Elec       q    Type
REMARK                         _______ _______ _______ _____ _____    ______ ____
ROOT
ATOM      1  N   UNL     1       4.649   5.564  17.109  0.00  0.00    +0.000 N 
ATOM      2  C   UNL     1       4.599   4.295  17.617  0.00  0.00    +0.000 A 
ATOM      3  N   UNL     1       3.725   4.197  18.594  0.00  0.00    +0.000 NA
ATOM      4  C   UNL     1       3.199   5.464  18.731  0.00  0.00    +0.000 A 
ATOM      5  C   UNL     1       2.239   6.044  19.537  0.00  0.00    +0.000 A 
ATOM      6 CL   UNL     1       1.410   5.087  20.663  0.00  0.00    +0.000 Cl
ATOM      7  N   UNL     1       1.889   7.329  19.405  0.00  0.00    +0.000 NA
ATOM      8  C   UNL     1       2.492   8.068  18.455  0.00  0.00    +0.000 A 
ATOM      9  N   UNL     1       2.077   9.387  18.254  0.00  0.00    +0.000 N 
ATOM     10  N   UNL     1       3.475   7.634  17.635  0.00  0.00    +0.000 NA
ATOM     11  C   UNL     1       3.765   6.333  17.812  0.00  0.00    +0.000 A 
ATOM     12  H   UNL     1       2.661   9.835  17.563  0.00  0.00    +0.000 HD
ENDROOT
BRANCH   9  13
ATOM     13  C   UNL     1       0.806   9.963  18.434  0.00  0.00    +0.000 A 
ATOM     14  C   UNL     1      -0.308   9.617  17.656  0.00  0.00    +0.000 A 
ATOM     15  C   UNL     1      -1.568  10.167  17.894  0.00  0.00    +0.000 A 
ATOM     16  C   UNL     1      -1.743  11.073  18.931  0.00  0.00    +0.000 A 
ATOM     17  C   UNL     1      -0.658  11.423  19.729  0.00  0.00    +0.000 A 
ATOM     18  C   UNL     1       0.603  10.866  19.487  0.00  0.00    +0.000 A 
ENDBRANCH   9  13
BRANCH   1  19
ATOM     19  C   UNL     1       5.438   5.997  15.977  0.00  0.00    +0.000 C 
BRANCH  19  20
ATOM     20  C   UNL     1       6.887   5.621  16.123  0.00  0.00    +0.000 C 
ATOM     21  O   UNL     1       7.355   4.499  15.999  0.00  0.00    +0.000 OA
BRANCH  20  23
ATOM     22  C   UNL     1       7.412   7.294  17.681  0.00  0.00    +0.000 C 
ATOM     23  O   UNL     1       7.618   6.746  16.377  0.00  0.00    +0.000 OA
ENDBRANCH  20  23
ENDBRANCH  19  20
ENDBRANCH   1  19
TORSDOF 4
ENDMDL
MODEL 9
REMARK VINA RESULT:      -6.9      3.969      7.101
REMARK  Name = 
REMARK  5 active torsions:
REMARK  status: ('A' for Active; 'I' for Inactive)
REMARK    1  A    between atoms: C_1  and  O_2
REMARK    2  A    between atoms: O_2  and  C_3
REMARK    3  A    between atoms: C_3  and  C_5
REMARK    4  A    between atoms: C_5  and  N_6
REMARK    5  A    between atoms: N_14  and  C_15
REMARK                            x       y       z     vdW  Elec       q    Type
REMARK                         _______ _______ _______ _____ _____    ______ ____
ROOT
ATOM      1  N   UNL     1       3.199   4.342  20.123  0.00  0.00    +0.000 N 
ATOM      2  C   UNL     1       2.320   5.327  20.480  0.00  0.00    +0.000 A 
ATOM      3  N   UNL     1       2.411   6.371  19.687  0.00  0.00    +0.000 NA
ATOM      4  C   UNL     1       3.405   6.049  18.787  0.00  0.00    +0.000 A 
ATOM      5  C   UNL     1       3.978   6.673  17.695  0.00  0.00    +0.000 A 
ATOM      6 CL   UNL     1       3.412   8.197  17.218  0.00  0.00    +0.000 Cl
ATOM      7  N   UNL     1       4.920   6.076  16.955  0.00  0.00    +0.000 NA
ATOM      8  C   UNL     1       5.312   4.832  17.289  0.00  0.00    +0.000 A 
ATOM      9  N   UNL     1       6.235   4.169  16.477  0.00  0.00    +0.000 N 
ATOM     10  N   UNL     1       4.864   4.133  18.356  0.00  0.00    +0.000 NA
ATOM     11  C   UNL     1       3.910   4.785  19.044  0.00  0.00    +0.000 A 
ATOM     12  H   UNL     1       6.484   3.280  16.886  0.00  0.00    +0.000 HD
ENDROOT
BRANCH   9  13
ATOM     13  C   UNL     1       6.443   4.274  15.090  0.00  0.00    +0.000 A 
ATOM     14  C   UNL     1       7.464   5.053  14.525  0.00  0.00    +0.000 A 
ATOM     15  C   UNL     1       7.678   5.094  13.147  0.00  0.00    +0.000 A 
ATOM     16  C   UNL     1       6.878   4.341  12.299  0.00  0.00    +0.000 A 
ATOM     17  C   UNL     1       5.866   3.547  12.833  0.00  0.00    +0.000 A 
ATOM     18  C   UNL     1       5.658   3.508  14.216  0.00  0.00    +0.000 A 
ENDBRANCH   9  13
BRANCH   1  19
ATOM     19  C   UNL     1       3.303   3.033  20.730  0.00  0.00    +0.000 C 
BRANCH  19  20
ATOM     20  C   UNL     1       1.957   2.385  20.905  0.00  0.00    +0.000 C 
ATOM     21  O   UNL     1       1.260   2.433  21.908  0.00  0.00    +0.000 OA
BRANCH  20  23
ATOM     22  C   UNL     1       0.636   2.473  18.968  0.00  0.00    +0.000 C 
ATOM     23  O   UNL     1       1.605   1.761  19.742  0.00  0.00    +0.000 OA
ENDBRANCH  20  23
ENDBRANCH  19  20
ENDBRANCH   1  19
TORSDOF 4
ENDMDL
