MODEL 1
REMARK VINA RESULT:      -7.4      0.000      0.000
REMARK  Name = 
REMARK  4 active torsions:
REMARK  status: ('A' for Active; 'I' for Inactive)
REMARK    1  A    between atoms: C_1  and  N_2
REMARK    2  A    between atoms: C_3  and  C_4
REMARK    3  A    between atoms: C_12  and  C_13
REMARK    4  A    between atoms: N_20  and  C_21
REMARK                            x       y       z     vdW  Elec       q    Type
REMARK                         _______ _______ _______ _____ _____    ______ ____
ROOT
ATOM      1  C   UNL     1       1.459   7.936  20.629  0.00  0.00    +0.000 C 
ATOM      2  N   UNL     1       1.797   8.487  19.339  0.00  0.00    +0.000 N 
ATOM      3  C   UNL     1       1.298   9.642  18.764  0.00  0.00    +0.000 A 
ATOM      4  N   UNL     1       1.791   9.732  17.544  0.00  0.00    +0.000 NA
ATOM      5  N   UNL     1       2.584   8.634  17.304  0.00  0.00    +0.000 NA
ATOM      6  C   UNL     1       2.565   7.850  18.372  0.00  0.00    +0.000 A 
ENDROOT
BRANCH   6   7
ATOM      7  C   UNL     1       3.026   6.462  18.409  0.00  0.00    +0.000 A 
ATOM      8  C   UNL     1       4.279   6.076  18.906  0.00  0.00    +0.000 A 
ATOM      9  C   UNL     1       4.558   4.738  19.239  0.00  0.00    +0.000 A 
ATOM     10  C   UNL     1       3.539   3.789  19.053  0.00  0.00    +0.000 A 
ATOM     11  C   UNL     1       2.334   4.131  18.432  0.00  0.00    +0.000 A 
ATOM     12  C   UNL     1       1.538   2.961  18.356  0.00  0.00    +0.000 A 
ATOM     13  C   UNL     1       2.175   1.991  19.089  0.00  0.00    +0.000 A 
ATOM     14  N   UNL     1       3.436   2.451  19.378  0.00  0.00    +0.000 N 
ATOM     15  C   UNL     1       4.461   1.589  19.917  0.00  0.00    +0.000 C 
ATOM     16  C   UNL     1       2.101   5.467  18.065  0.00  0.00    +0.000 A 
ENDBRANCH   6   7
BRANCH   3  17
ATOM     17  C   UNL     1       0.315  10.572  19.339  0.00  0.00    +0.000 A 
ATOM     18  C   UNL     1       0.621  11.430  20.401  0.00  0.00    +0.000 A 
ATOM     19  C   UNL     1      -0.352  12.271  20.954  0.00  0.00    +0.000 A 
ATOM     20  C   UNL     1      -1.639  12.290  20.423  0.00  0.00    +0.000 A 
ATOM     21  C   UNL     1      -1.950  11.481  19.336  0.00  0.00    +0.000 A 
ATOM     22  C   UNL     1      -0.985  10.627  18.799  0.00  0.00    +0.000 A 
ENDBRANCH   3  17
TORSDOF 2
ENDMDL
MODEL 2
REMARK VINA RESULT:      -7.4      0.079      1.028
REMARK  Name = 
REMARK  4 active torsions:
REMARK  status: ('A' for Active; 'I' for Inactive)
REMARK    1  A    between atoms: C_1  and  N_2
REMARK    2  A    between atoms: C_3  and  C_4
REMARK    3  A    between atoms: C_12  and  C_13
REMARK    4  A    between atoms: N_20  and  C_21
REMARK                            x       y       z     vdW  Elec       q    Type
REMARK                         _______ _______ _______ _____ _____    ______ ____
ROOT
ATOM      1  C   UNL     1       1.458   7.923  20.637  0.00  0.00    +0.000 C 
ATOM      2  N   UNL     1       1.797   8.480  19.350  0.00  0.00    +0.000 N 
ATOM      3  C   UNL     1       1.302   9.641  18.781  0.00  0.00    +0.000 A 
ATOM      4  N   UNL     1       1.795   9.735  17.562  0.00  0.00    +0.000 NA
ATOM      5  N   UNL     1       2.585   8.635  17.315  0.00  0.00    +0.000 NA
ATOM      6  C   UNL     1       2.563   7.846  18.379  0.00  0.00    +0.000 A 
ENDROOT
BRANCH   6   7
ATOM      7  C   UNL     1       3.018   6.457  18.408  0.00  0.00    +0.000 A 
ATOM      8  C   UNL     1       4.276   6.065  18.890  0.00  0.00    +0.000 A 
ATOM      9  C   UNL     1       4.554   4.724  19.217  0.00  0.00    +0.000 A 
ATOM     10  C   UNL     1       3.529   3.780  19.041  0.00  0.00    +0.000 A 
ATOM     11  C   UNL     1       2.318   4.128  18.434  0.00  0.00    +0.000 A 
ATOM     12  C   UNL     1       1.517   2.961  18.366  0.00  0.00    +0.000 A 
ATOM     13  C   UNL     1       2.157   1.987  19.089  0.00  0.00    +0.000 A 
ATOM     14  N   UNL     1       3.424   2.442  19.365  0.00  0.00    +0.000 N 
ATOM     15  C   UNL     1       4.452   1.574  19.890  0.00  0.00    +0.000 C 
ATOM     16  C   UNL     1       2.086   5.466  18.073  0.00  0.00    +0.000 A 
ENDBRANCH   6   7
BRANCH   3  17
ATOM     17  C   UNL     1       0.323  10.571  19.361  0.00  0.00    +0.000 A 
ATOM     18  C   UNL     1      -1.008  10.628  18.930  0.00  0.00    +0.000 A 
ATOM     19  C   UNL     1      -1.903  11.557  19.473  0.00  0.00    +0.000 A 
ATOM     20  C   UNL     1      -1.485  12.419  20.485  0.00  0.00    +0.000 A 
ATOM     21  C   UNL     1      -0.182  12.344  20.961  0.00  0.00    +0.000 A 
ATOM     22  C   UNL     1       0.717  11.431  20.404  0.00  0.00    +0.000 A 
ENDBRANCH   3  17
TORSDOF 2
ENDMDL
MODEL 3
REMARK VINA RESULT:      -7.1      3.728      7.934
REMARK  Name = 
REMARK  4 active torsions:
REMARK  status: ('A' for Active; 'I' for Inactive)
REMARK    1  A    between atoms: C_1  and  N_2
REMARK    2  A    between atoms: C_3  and  C_4
REMARK    3  A    between atoms: C_12  and  C_13
REMARK    4  A    between atoms: N_20  and  C_21
REMARK                            x       y       z     vdW  Elec       q    Type
REMARK                         _______ _______ _______ _____ _____    ______ ____
ROOT
ATOM      1  C   UNL     1       4.865   6.968  16.110  0.00  0.00    +0.000 C 
ATOM      2  N   UNL     1       4.704   5.602  16.545  0.00  0.00    +0.000 N 
ATOM      3  C   UNL     1       5.153   4.459  15.907  0.00  0.00    +0.000 A 
ATOM      4  N   UNL     1       4.713   3.418  16.586  0.00  0.00    +0.000 NA
ATOM      5  N   UNL     1       3.957   3.865  17.645  0.00  0.00    +0.000 NA
ATOM      6  C   UNL     1       3.911   5.189  17.609  0.00  0.00    +0.000 A 
ENDROOT
BRANCH   6   7
ATOM      7  C   UNL     1       2.978   6.022  18.367  0.00  0.00    +0.000 A 
ATOM      8  C   UNL     1       2.733   5.859  19.738  0.00  0.00    +0.000 A 
ATOM      9  C   UNL     1       2.105   6.863  20.498  0.00  0.00    +0.000 A 
ATOM     10  C   UNL     1       1.721   8.042  19.838  0.00  0.00    +0.000 A 
ATOM     11  C   UNL     1       1.832   8.164  18.449  0.00  0.00    +0.000 A 
ATOM     12  C   UNL     1       1.330   9.440  18.086  0.00  0.00    +0.000 A 
ATOM     13  C   UNL     1       1.108  10.133  19.249  0.00  0.00    +0.000 A 
ATOM     14  N   UNL     1       1.206   9.241  20.289  0.00  0.00    +0.000 N 
ATOM     15  C   UNL     1       0.782   9.575  21.628  0.00  0.00    +0.000 C 
ATOM     16  C   UNL     1       2.420   7.125  17.709  0.00  0.00    +0.000 A 
ENDBRANCH   6   7
BRANCH   3  17
ATOM     17  C   UNL     1       5.900   4.378  14.643  0.00  0.00    +0.000 A 
ATOM     18  C   UNL     1       7.118   5.038  14.445  0.00  0.00    +0.000 A 
ATOM     19  C   UNL     1       7.781   4.976  13.214  0.00  0.00    +0.000 A 
ATOM     20  C   UNL     1       7.248   4.220  12.173  0.00  0.00    +0.000 A 
ATOM     21  C   UNL     1       6.064   3.517  12.365  0.00  0.00    +0.000 A 
ATOM     22  C   UNL     1       5.393   3.597  13.587  0.00  0.00    +0.000 A 
ENDBRANCH   3  17
TORSDOF 2
ENDMDL
MODEL 4
REMARK VINA RESULT:      -7.0      2.302      3.875
REMARK  Name = 
REMARK  4 active torsions:
REMARK  status: ('A' for Active; 'I' for Inactive)
REMARK    1  A    between atoms: C_1  and  N_2
REMARK    2  A    between atoms: C_3  and  C_4
REMARK    3  A    between atoms: C_12  and  C_13
REMARK    4  A    between atoms: N_20  and  C_21
REMARK                            x       y       z     vdW  Elec       q    Type
REMARK                         _______ _______ _______ _____ _____    ______ ____
ROOT
ATOM      1  C   UNL     1      -0.751  10.326  19.734  0.00  0.00    +0.000 C 
ATOM      2  N   UNL     1      -0.101   9.938  20.962  0.00  0.00    +0.000 N 
ATOM      3  C   UNL     1      -0.178  10.573  22.189  0.00  0.00    +0.000 A 
ATOM      4  N   UNL     1       0.641   9.953  23.017  0.00  0.00    +0.000 NA
ATOM      5  N   UNL     1       1.275   8.938  22.338  0.00  0.00    +0.000 NA
ATOM      6  C   UNL     1       0.862   8.942  21.079  0.00  0.00    +0.000 A 
ENDROOT
BRANCH   6   7
ATOM      7  C   UNL     1       1.508   8.231  19.976  0.00  0.00    +0.000 A 
ATOM      8  C   UNL     1       1.804   8.824  18.741  0.00  0.00    +0.000 A 
ATOM      9  C   UNL     1       2.709   8.234  17.839  0.00  0.00    +0.000 A 
ATOM     10  C   UNL     1       3.310   7.020  18.212  0.00  0.00    +0.000 A 
ATOM     11  C   UNL     1       2.923   6.347  19.376  0.00  0.00    +0.000 A 
ATOM     12  C   UNL     1       3.674   5.147  19.452  0.00  0.00    +0.000 A 
ATOM     13  C   UNL     1       4.623   5.201  18.462  0.00  0.00    +0.000 A 
ATOM     14  N   UNL     1       4.304   6.252  17.638  0.00  0.00    +0.000 N 
ATOM     15  C   UNL     1       4.942   6.443  16.357  0.00  0.00    +0.000 C 
ATOM     16  C   UNL     1       1.980   6.937  20.234  0.00  0.00    +0.000 A 
ENDBRANCH   6   7
BRANCH   3  17
ATOM     17  C   UNL     1      -0.943  11.783  22.521  0.00  0.00    +0.000 A 
ATOM     18  C   UNL     1      -0.476  13.072  22.234  0.00  0.00    +0.000 A 
ATOM     19  C   UNL     1      -1.210  14.204  22.604  0.00  0.00    +0.000 A 
ATOM     20  C   UNL     1      -2.443  14.060  23.235  0.00  0.00    +0.000 A 
ATOM     21  C   UNL     1      -2.947  12.789  23.484  0.00  0.00    +0.000 A 
ATOM     22  C   UNL     1      -2.205  11.659  23.133  0.00  0.00    +0.000 A 
ENDBRANCH   3  17
TORSDOF 2
ENDMDL
MODEL 5
REMARK VINA RESULT:      -6.9      3.720      7.994
REMARK  Name = 
REMARK  4 active torsions:
REMARK  status: ('A' for Active; 'I' for Inactive)
REMARK    1  A    between atoms: C_1  and  N_2
REMARK    2  A    between atoms: C_3  and  C_4
REMARK    3  A    between atoms: C_12  and  C_13
REMARK    4  A    between atoms: N_20  and  C_21
REMARK                            x       y       z     vdW  Elec       q    Type
REMARK                         _______ _______ _______ _____ _____    ______ ____
ROOT
ATOM      1  C   UNL     1       4.798   6.979  16.058  0.00  0.00    +0.000 C 
ATOM      2  N   UNL     1       4.674   5.621  16.528  0.00  0.00    +0.000 N 
ATOM      3  C   UNL     1       5.133   4.473  15.907  0.00  0.00    +0.000 A 
ATOM      4  N   UNL     1       4.729   3.439  16.618  0.00  0.00    +0.000 NA
ATOM      5  N   UNL     1       3.986   3.895  17.683  0.00  0.00    +0.000 NA
ATOM      6  C   UNL     1       3.913   5.217  17.618  0.00  0.00    +0.000 A 
ENDROOT
BRANCH   6   7
ATOM      7  C   UNL     1       2.978   6.048  18.376  0.00  0.00    +0.000 A 
ATOM      8  C   UNL     1       2.739   5.888  19.749  0.00  0.00    +0.000 A 
ATOM      9  C   UNL     1       2.109   6.892  20.507  0.00  0.00    +0.000 A 
ATOM     10  C   UNL     1       1.718   8.068  19.845  0.00  0.00    +0.000 A 
ATOM     11  C   UNL     1       1.824   8.186  18.456  0.00  0.00    +0.000 A 
ATOM     12  C   UNL     1       1.315   9.458  18.090  0.00  0.00    +0.000 A 
ATOM     13  C   UNL     1       1.094  10.155  19.251  0.00  0.00    +0.000 A 
ATOM     14  N   UNL     1       1.199   9.266  20.294  0.00  0.00    +0.000 N 
ATOM     15  C   UNL     1       0.778   9.603  21.633  0.00  0.00    +0.000 C 
ATOM     16  C   UNL     1       2.413   7.147  17.716  0.00  0.00    +0.000 A 
ENDBRANCH   6   7
BRANCH   3  17
ATOM     17  C   UNL     1       5.855   4.378  14.629  0.00  0.00    +0.000 A 
ATOM     18  C   UNL     1       5.366   3.645  13.541  0.00  0.00    +0.000 A 
ATOM     19  C   UNL     1       6.101   3.539  12.354  0.00  0.00    +0.000 A 
ATOM     20  C   UNL     1       7.321   4.198  12.229  0.00  0.00    +0.000 A 
ATOM     21  C   UNL     1       7.800   4.971  13.280  0.00  0.00    +0.000 A 
ATOM     22  C   UNL     1       7.077   5.060  14.471  0.00  0.00    +0.000 A 
ENDBRANCH   3  17
TORSDOF 2
ENDMDL
MODEL 6
REMARK VINA RESULT:      -6.9      1.939      8.035
REMARK  Name = 
REMARK  4 active torsions:
REMARK  status: ('A' for Active; 'I' for Inactive)
REMARK    1  A    between atoms: C_1  and  N_2
REMARK    2  A    between atoms: C_3  and  C_4
REMARK    3  A    between atoms: C_12  and  C_13
REMARK    4  A    between atoms: N_20  and  C_21
REMARK                            x       y       z     vdW  Elec       q    Type
REMARK                         _______ _______ _______ _____ _____    ______ ____
ROOT
ATOM      1  C   UNL     1       2.301   8.739  17.899  0.00  0.00    +0.000 C 
ATOM      2  N   UNL     1       2.062   8.032  19.134  0.00  0.00    +0.000 N 
ATOM      3  C   UNL     1       2.372   6.714  19.420  0.00  0.00    +0.000 A 
ATOM      4  N   UNL     1       1.899   6.440  20.621  0.00  0.00    +0.000 NA
ATOM      5  N   UNL     1       1.259   7.554  21.112  0.00  0.00    +0.000 NA
ATOM      6  C   UNL     1       1.317   8.517  20.203  0.00  0.00    +0.000 A 
ENDROOT
BRANCH   6   7
ATOM      7  C   UNL     1       0.509   9.736  20.212  0.00  0.00    +0.000 A 
ATOM      8  C   UNL     1      -0.332  10.114  19.155  0.00  0.00    +0.000 A 
ATOM      9  C   UNL     1      -1.333  11.089  19.324  0.00  0.00    +0.000 A 
ATOM     10  C   UNL     1      -1.464  11.682  20.591  0.00  0.00    +0.000 A 
ATOM     11  C   UNL     1      -0.547  11.418  21.613  0.00  0.00    +0.000 A 
ATOM     12  C   UNL     1      -0.923  12.191  22.741  0.00  0.00    +0.000 A 
ATOM     13  C   UNL     1      -2.143  12.750  22.460  0.00  0.00    +0.000 A 
ATOM     14  N   UNL     1      -2.389  12.559  21.122  0.00  0.00    +0.000 N 
ATOM     15  C   UNL     1      -3.461  13.238  20.435  0.00  0.00    +0.000 C 
ATOM     16  C   UNL     1       0.472  10.475  21.401  0.00  0.00    +0.000 A 
ENDBRANCH   6   7
BRANCH   3  17
ATOM     17  C   UNL     1       3.018   5.737  18.533  0.00  0.00    +0.000 A 
ATOM     18  C   UNL     1       4.353   5.854  18.129  0.00  0.00    +0.000 A 
ATOM     19  C   UNL     1       4.924   4.929  17.247  0.00  0.00    +0.000 A 
ATOM     20  C   UNL     1       4.173   3.851  16.785  0.00  0.00    +0.000 A 
ATOM     21  C   UNL     1       2.860   3.690  17.213  0.00  0.00    +0.000 A 
ATOM     22  C   UNL     1       2.285   4.624  18.077  0.00  0.00    +0.000 A 
ENDBRANCH   3  17
TORSDOF 2
ENDMDL
MODEL 7
REMARK VINA RESULT:      -6.9      1.944      8.084
REMARK  Name = 
REMARK  4 active torsions:
REMARK  status: ('A' for Active; 'I' for Inactive)
REMARK    1  A    between atoms: C_1  and  N_2
REMARK    2  A    between atoms: C_3  and  C_4
REMARK    3  A    between atoms: C_12  and  C_13
REMARK    4  A    between atoms: N_20  and  C_21
REMARK                            x       y       z     vdW  Elec       q    Type
REMARK                         _______ _______ _______ _____ _____    ______ ____
ROOT
ATOM      1  C   UNL     1       2.238   8.776  17.820  0.00  0.00    +0.000 C 
ATOM      2  N   UNL     1       2.046   8.078  19.068  0.00  0.00    +0.000 N 
ATOM      3  C   UNL     1       2.374   6.764  19.353  0.00  0.00    +0.000 A 
ATOM      4  N   UNL     1       1.944   6.496  20.571  0.00  0.00    +0.000 NA
ATOM      5  N   UNL     1       1.313   7.610  21.075  0.00  0.00    +0.000 NA
ATOM      6  C   UNL     1       1.334   8.566  20.157  0.00  0.00    +0.000 A 
ENDROOT
BRANCH   6   7
ATOM      7  C   UNL     1       0.519   9.780  20.184  0.00  0.00    +0.000 A 
ATOM      8  C   UNL     1      -0.320  10.171  19.131  0.00  0.00    +0.000 A 
ATOM      9  C   UNL     1      -1.327  11.138  19.313  0.00  0.00    +0.000 A 
ATOM     10  C   UNL     1      -1.467  11.708  20.589  0.00  0.00    +0.000 A 
ATOM     11  C   UNL     1      -0.553  11.431  21.611  0.00  0.00    +0.000 A 
ATOM     12  C   UNL     1      -0.937  12.181  22.751  0.00  0.00    +0.000 A 
ATOM     13  C   UNL     1      -2.160  12.739  22.474  0.00  0.00    +0.000 A 
ATOM     14  N   UNL     1      -2.399  12.570  21.132  0.00  0.00    +0.000 N 
ATOM     15  C   UNL     1      -3.473  13.255  20.453  0.00  0.00    +0.000 C 
ATOM     16  C   UNL     1       0.473  10.498  21.386  0.00  0.00    +0.000 A 
ENDBRANCH   6   7
BRANCH   3  17
ATOM     17  C   UNL     1       2.995   5.784  18.452  0.00  0.00    +0.000 A 
ATOM     18  C   UNL     1       2.298   4.683  17.940  0.00  0.00    +0.000 A 
ATOM     19  C   UNL     1       2.933   3.744  17.119  0.00  0.00    +0.000 A 
ATOM     20  C   UNL     1       4.270   3.915  16.769  0.00  0.00    +0.000 A 
ATOM     21  C   UNL     1       4.967   5.028  17.227  0.00  0.00    +0.000 A 
ATOM     22  C   UNL     1       4.338   5.954  18.063  0.00  0.00    +0.000 A 
ENDBRANCH   3  17
TORSDOF 2
ENDMDL
MODEL 8
REMARK VINA RESULT:      -6.8      1.920      2.729
REMARK  Name = 
REMARK  4 active torsions:
REMARK  status: ('A' for Active; 'I' for Inactive)
REMARK    1  A    between atoms: C_1  and  N_2
REMARK    2  A    between atoms: C_3  and  C_4
REMARK    3  A    between atoms: C_12  and  C_13
REMARK    4  A    between atoms: N_20  and  C_21
REMARK                            x       y       z     vdW  Elec       q    Type
REMARK                         _______ _______ _______ _____ _____    ______ ____
ROOT
ATOM      1  C   UNL     1       1.039   9.439  18.220  0.00  0.00    +0.000 C 
ATOM      2  N   UNL     1       1.048   9.512  19.661  0.00  0.00    +0.000 N 
ATOM      3  C   UNL     1       0.960  10.649  20.444  0.00  0.00    +0.000 A 
ATOM      4  N   UNL     1       1.104  10.285  21.703  0.00  0.00    +0.000 NA
ATOM      5  N   UNL     1       1.313   8.925  21.751  0.00  0.00    +0.000 NA
ATOM      6  C   UNL     1       1.320   8.449  20.514  0.00  0.00    +0.000 A 
ENDROOT
BRANCH   6   7
ATOM      7  C   UNL     1       1.805   7.127  20.122  0.00  0.00    +0.000 A 
ATOM      8  C   UNL     1       2.950   6.924  19.338  0.00  0.00    +0.000 A 
ATOM      9  C   UNL     1       3.575   5.666  19.260  0.00  0.00    +0.000 A 
ATOM     10  C   UNL     1       3.013   4.607  19.992  0.00  0.00    +0.000 A 
ATOM     11  C   UNL     1       1.797   4.757  20.666  0.00  0.00    +0.000 A 
ATOM     12  C   UNL     1       1.479   3.513  21.268  0.00  0.00    +0.000 A 
ATOM     13  C   UNL     1       2.574   2.700  21.118  0.00  0.00    +0.000 A 
ATOM     14  N   UNL     1       3.426   3.311  20.230  0.00  0.00    +0.000 N 
ATOM     15  C   UNL     1       4.553   2.620  19.650  0.00  0.00    +0.000 C 
ATOM     16  C   UNL     1       1.170   6.014  20.687  0.00  0.00    +0.000 A 
ENDBRANCH   6   7
BRANCH   3  17
ATOM     17  C   UNL     1       0.834  12.040  19.985  0.00  0.00    +0.000 A 
ATOM     18  C   UNL     1      -0.365  12.562  19.486  0.00  0.00    +0.000 A 
ATOM     19  C   UNL     1      -0.439  13.879  19.016  0.00  0.00    +0.000 A 
ATOM     20  C   UNL     1       0.682  14.703  19.075  0.00  0.00    +0.000 A 
ATOM     21  C   UNL     1       1.868  14.219  19.614  0.00  0.00    +0.000 A 
ATOM     22  C   UNL     1       1.947  12.899  20.063  0.00  0.00    +0.000 A 
ENDBRANCH   3  17
TORSDOF 2
ENDMDL
MODEL 9
REMARK VINA RESULT:      -6.8      1.883      2.514
REMARK  Name = 
REMARK  4 active torsions:
REMARK  status: ('A' for Active; 'I' for Inactive)
REMARK    1  A    between atoms: C_1  and  N_2
REMARK    2  A    between atoms: C_3  and  C_4
REMARK    3  A    between atoms: C_12  and  C_13
REMARK    4  A    between atoms: N_20  and  C_21
REMARK                            x       y       z     vdW  Elec       q    Type
REMARK                         _______ _______ _______ _____ _____    ______ ____
ROOT
ATOM      1  C   UNL     1       1.075   9.277  18.129  0.00  0.00    +0.000 C 
ATOM      2  N   UNL     1       1.085   9.386  19.567  0.00  0.00    +0.000 N 
ATOM      3  C   UNL     1       1.001  10.543  20.321  0.00  0.00    +0.000 A 
ATOM      4  N   UNL     1       1.144  10.211  21.589  0.00  0.00    +0.000 NA
ATOM      5  N   UNL     1       1.350   8.853  21.672  0.00  0.00    +0.000 NA
ATOM      6  C   UNL     1       1.355   8.345  20.447  0.00  0.00    +0.000 A 
ENDROOT
BRANCH   6   7
ATOM      7  C   UNL     1       1.837   7.012  20.089  0.00  0.00    +0.000 A 
ATOM      8  C   UNL     1       2.999   6.786  19.336  0.00  0.00    +0.000 A 
ATOM      9  C   UNL     1       3.613   5.520  19.294  0.00  0.00    +0.000 A 
ATOM     10  C   UNL     1       3.023   4.479  20.029  0.00  0.00    +0.000 A 
ATOM     11  C   UNL     1       1.793   4.652  20.670  0.00  0.00    +0.000 A 
ATOM     12  C   UNL     1       1.448   3.421  21.284  0.00  0.00    +0.000 A 
ATOM     13  C   UNL     1       2.538   2.595  21.174  0.00  0.00    +0.000 A 
ATOM     14  N   UNL     1       3.417   3.183  20.298  0.00  0.00    +0.000 N 
ATOM     15  C   UNL     1       4.551   2.472  19.757  0.00  0.00    +0.000 C 
ATOM     16  C   UNL     1       1.177   5.914  20.656  0.00  0.00    +0.000 A 
ENDBRANCH   6   7
BRANCH   3  17
ATOM     17  C   UNL     1       0.877  11.923  19.828  0.00  0.00    +0.000 A 
ATOM     18  C   UNL     1       1.979  12.668  19.392  0.00  0.00    +0.000 A 
ATOM     19  C   UNL     1       1.832  13.994  18.970  0.00  0.00    +0.000 A 
ATOM     20  C   UNL     1       0.570  14.582  18.944  0.00  0.00    +0.000 A 
ATOM     21  C   UNL     1      -0.544  13.842  19.326  0.00  0.00    +0.000 A 
ATOM     22  C   UNL     1      -0.394  12.525  19.766  0.00  0.00    +0.000 A 
ENDBRANCH   3  17
TORSDOF 2
ENDMDL
