MODEL 1
REMARK VINA RESULT:      -6.9      0.000      0.000
REMARK  Name = 
REMARK  5 active torsions:
REMARK  status: ('A' for Active; 'I' for Inactive)
REMARK    1  A    between atoms: C_1  and  N_2
REMARK    2  A    between atoms: N_2  and  C_3
REMARK    3  A    between atoms: N_2  and  C_10
REMARK    4  A    between atoms: C_3  and  C_4
REMARK    5  A    between atoms: C_10  and  C_11
REMARK                            x       y       z     vdW  Elec       q    Type
REMARK                         _______ _______ _______ _____ _____    ______ ____
ROOT
ATOM      1  C   UNL     1       2.908   6.897  18.976  0.00  0.00    +0.000 C 
ATOM      2  C   UNL     1       3.618   6.099  17.859  0.00  0.00    +0.000 C 
ATOM      3  N   UNL     1       4.681   5.234  18.364  0.00  0.00    +0.000 N 
ATOM      4  C   UNL     1       5.990   5.613  18.156  0.00  0.00    +0.000 C 
ATOM      5  N   UNL     1       6.950   4.779  18.627  0.00  0.00    +0.000 N 
ATOM      6  O   UNL     1       6.330   6.657  17.608  0.00  0.00    +0.000 OA
ATOM      7  C   UNL     1       4.335   3.945  18.960  0.00  0.00    +0.000 C 
ATOM      8  C   UNL     1       2.887   3.706  19.217  0.00  0.00    +0.000 A 
ATOM      9  N   UNL     1       2.268   2.557  19.027  0.00  0.00    +0.000 NA
ATOM     10  C   UNL     1       1.020   2.708  19.561  0.00  0.00    +0.000 A 
ATOM     11  C   UNL     1       0.864   3.976  20.067  0.00  0.00    +0.000 A 
ATOM     12  N   UNL     1       2.026   4.632  19.764  0.00  0.00    +0.000 N 
ATOM     13  C   UNL     1       2.344   6.006  20.105  0.00  0.00    +0.000 C 
ATOM     14  H   UNL     1       6.796   3.785  18.674  0.00  0.00    +0.000 HD
ATOM     15  H   UNL     1       7.887   5.048  18.353  0.00  0.00    +0.000 HD
ENDROOT
BRANCH   1  16
ATOM     16  C   UNL     1       1.889   7.863  18.301  0.00  0.00    +0.000 C 
BRANCH  16  18
ATOM     17  C   UNL     1       2.249  10.244  17.949  0.00  0.00    +0.000 C 
ATOM     18  N   UNL     1       1.711   9.228  18.862  0.00  0.00    +0.000 NA
BRANCH  18  19
ATOM     19  C   UNL     1       0.254   9.465  19.081  0.00  0.00    +0.000 C 
BRANCH  19  20
ATOM     20  C   UNL     1      -0.153   9.786  20.503  0.00  0.00    +0.000 A 
ATOM     21  C   UNL     1       0.037   8.873  21.550  0.00  0.00    +0.000 A 
ATOM     22  C   UNL     1      -0.298   9.233  22.860  0.00  0.00    +0.000 A 
ATOM     23  C   UNL     1      -0.815  10.502  23.080  0.00  0.00    +0.000 A 
ATOM     24  N   UNL     1      -1.020  11.411  22.095  0.00  0.00    +0.000 NA
ATOM     25  C   UNL     1      -0.683  11.027  20.830  0.00  0.00    +0.000 A 
ENDBRANCH  19  20
ENDBRANCH  18  19
ENDBRANCH  16  18
ENDBRANCH   1  16
TORSDOF 4
ENDMDL
MODEL 2
REMARK VINA RESULT:      -6.9      2.755      6.301
REMARK  Name = 
REMARK  5 active torsions:
REMARK  status: ('A' for Active; 'I' for Inactive)
REMARK    1  A    between atoms: C_1  and  N_2
REMARK    2  A    between atoms: N_2  and  C_3
REMARK    3  A    between atoms: N_2  and  C_10
REMARK    4  A    between atoms: C_3  and  C_4
REMARK    5  A    between atoms: C_10  and  C_11
REMARK                            x       y       z     vdW  Elec       q    Type
REMARK                         _______ _______ _______ _____ _____    ______ ____
ROOT
ATOM      1  C   UNL     1       2.234   4.789  17.818  0.00  0.00    +0.000 C 
ATOM      2  C   UNL     1       3.057   5.703  18.755  0.00  0.00    +0.000 C 
ATOM      3  N   UNL     1       2.222   6.495  19.655  0.00  0.00    +0.000 N 
ATOM      4  C   UNL     1       2.070   7.839  19.395  0.00  0.00    +0.000 C 
ATOM      5  N   UNL     1       1.298   8.546  20.260  0.00  0.00    +0.000 N 
ATOM      6  O   UNL     1       2.555   8.418  18.428  0.00  0.00    +0.000 OA
ATOM      7  C   UNL     1       1.680   5.874  20.862  0.00  0.00    +0.000 C 
ATOM      8  C   UNL     1       1.833   4.396  20.968  0.00  0.00    +0.000 A 
ATOM      9  N   UNL     1       2.128   3.747  22.079  0.00  0.00    +0.000 NA
ATOM     10  C   UNL     1       1.981   2.420  21.790  0.00  0.00    +0.000 A 
ATOM     11  C   UNL     1       1.612   2.252  20.477  0.00  0.00    +0.000 A 
ATOM     12  N   UNL     1       1.606   3.509  19.939  0.00  0.00    +0.000 N 
ATOM     13  C   UNL     1       1.265   3.850  18.570  0.00  0.00    +0.000 C 
ATOM     14  H   UNL     1       1.243   8.289  21.232  0.00  0.00    +0.000 HD
ATOM     15  H   UNL     1       1.309   9.543  20.086  0.00  0.00    +0.000 HD
ENDROOT
BRANCH   1  16
ATOM     16  C   UNL     1       3.224   4.096  16.834  0.00  0.00    +0.000 C 
BRANCH  16  18
ATOM     17  C   UNL     1       4.312   1.972  17.312  0.00  0.00    +0.000 C 
ATOM     18  N   UNL     1       4.437   3.433  17.382  0.00  0.00    +0.000 NA
BRANCH  18  19
ATOM     19  C   UNL     1       5.621   3.880  16.590  0.00  0.00    +0.000 C 
BRANCH  19  20
ATOM     20  C   UNL     1       6.383   5.058  17.156  0.00  0.00    +0.000 A 
ATOM     21  C   UNL     1       7.091   4.971  18.363  0.00  0.00    +0.000 A 
ATOM     22  C   UNL     1       7.831   6.067  18.820  0.00  0.00    +0.000 A 
ATOM     23  C   UNL     1       7.838   7.221  18.049  0.00  0.00    +0.000 A 
ATOM     24  N   UNL     1       7.161   7.349  16.882  0.00  0.00    +0.000 NA
ATOM     25  C   UNL     1       6.450   6.261  16.466  0.00  0.00    +0.000 A 
ENDBRANCH  19  20
ENDBRANCH  18  19
ENDBRANCH  16  18
ENDBRANCH   1  16
TORSDOF 4
ENDMDL
MODEL 3
REMARK VINA RESULT:      -6.9      2.173      4.048
REMARK  Name = 
REMARK  5 active torsions:
REMARK  status: ('A' for Active; 'I' for Inactive)
REMARK    1  A    between atoms: C_1  and  N_2
REMARK    2  A    between atoms: N_2  and  C_3
REMARK    3  A    between atoms: N_2  and  C_10
REMARK    4  A    between atoms: C_3  and  C_4
REMARK    5  A    between atoms: C_10  and  C_11
REMARK                            x       y       z     vdW  Elec       q    Type
REMARK                         _______ _______ _______ _____ _____    ______ ____
ROOT
ATOM      1  C   UNL     1       2.696   6.745  18.439  0.00  0.00    +0.000 C 
ATOM      2  C   UNL     1       2.813   6.042  19.810  0.00  0.00    +0.000 C 
ATOM      3  N   UNL     1       2.904   4.588  19.698  0.00  0.00    +0.000 N 
ATOM      4  C   UNL     1       1.799   3.835  20.033  0.00  0.00    +0.000 C 
ATOM      5  N   UNL     1       1.924   2.487  19.930  0.00  0.00    +0.000 N 
ATOM      6  O   UNL     1       0.720   4.303  20.382  0.00  0.00    +0.000 OA
ATOM      7  C   UNL     1       4.185   3.973  19.358  0.00  0.00    +0.000 C 
ATOM      8  C   UNL     1       5.265   4.901  18.922  0.00  0.00    +0.000 A 
ATOM      9  N   UNL     1       6.536   4.789  19.259  0.00  0.00    +0.000 NA
ATOM     10  C   UNL     1       7.209   5.707  18.502  0.00  0.00    +0.000 A 
ATOM     11  C   UNL     1       6.335   6.406  17.705  0.00  0.00    +0.000 A 
ATOM     12  N   UNL     1       5.091   5.948  18.043  0.00  0.00    +0.000 N 
ATOM     13  C   UNL     1       3.834   6.381  17.461  0.00  0.00    +0.000 C 
ATOM     14  H   UNL     1       2.812   2.036  20.082  0.00  0.00    +0.000 HD
ATOM     15  H   UNL     1       1.126   1.980  20.290  0.00  0.00    +0.000 HD
ENDROOT
BRANCH   1  16
ATOM     16  C   UNL     1       2.485   8.267  18.698  0.00  0.00    +0.000 C 
BRANCH  16  18
ATOM     17  C   UNL     1       1.031   8.964  20.521  0.00  0.00    +0.000 C 
ATOM     18  N   UNL     1       1.131   8.752  19.072  0.00  0.00    +0.000 NA
BRANCH  18  19
ATOM     19  C   UNL     1       0.870  10.035  18.354  0.00  0.00    +0.000 C 
BRANCH  19  20
ATOM     20  C   UNL     1      -0.584  10.438  18.237  0.00  0.00    +0.000 A 
ATOM     21  C   UNL     1      -1.471   9.770  17.382  0.00  0.00    +0.000 A 
ATOM     22  C   UNL     1      -2.820  10.137  17.349  0.00  0.00    +0.000 A 
ATOM     23  C   UNL     1      -3.240  11.168  18.178  0.00  0.00    +0.000 A 
ATOM     24  N   UNL     1      -2.414  11.844  19.013  0.00  0.00    +0.000 NA
ATOM     25  C   UNL     1      -1.105  11.460  19.020  0.00  0.00    +0.000 A 
ENDBRANCH  19  20
ENDBRANCH  18  19
ENDBRANCH  16  18
ENDBRANCH   1  16
TORSDOF 4
ENDMDL
MODEL 4
REMARK VINA RESULT:      -6.9      2.165      4.050
REMARK  Name = 
REMARK  5 active torsions:
REMARK  status: ('A' for Active; 'I' for Inactive)
REMARK    1  A    between atoms: C_1  and  N_2
REMARK    2  A    between atoms: N_2  and  C_3
REMARK    3  A    between atoms: N_2  and  C_10
REMARK    4  A    between atoms: C_3  and  C_4
REMARK    5  A    between atoms: C_10  and  C_11
REMARK                            x       y       z     vdW  Elec       q    Type
REMARK                         _______ _______ _______ _____ _____    ______ ____
ROOT
ATOM      1  C   UNL     1       2.481   6.224  19.018  0.00  0.00    +0.000 C 
ATOM      2  C   UNL     1       2.742   4.986  19.906  0.00  0.00    +0.000 C 
ATOM      3  N   UNL     1       2.791   3.739  19.145  0.00  0.00    +0.000 N 
ATOM      4  C   UNL     1       1.717   2.879  19.229  0.00  0.00    +0.000 C 
ATOM      5  N   UNL     1       1.802   1.725  18.519  0.00  0.00    +0.000 N 
ATOM      6  O   UNL     1       0.695   3.105  19.869  0.00  0.00    +0.000 OA
ATOM      7  C   UNL     1       4.011   3.385  18.424  0.00  0.00    +0.000 C 
ATOM      8  C   UNL     1       5.052   4.447  18.331  0.00  0.00    +0.000 A 
ATOM      9  N   UNL     1       6.351   4.239  18.437  0.00  0.00    +0.000 NA
ATOM     10  C   UNL     1       6.950   5.421  18.101  0.00  0.00    +0.000 A 
ATOM     11  C   UNL     1       6.004   6.373  17.806  0.00  0.00    +0.000 A 
ATOM     12  N   UNL     1       4.798   5.769  18.041  0.00  0.00    +0.000 N 
ATOM     13  C   UNL     1       3.492   6.374  17.859  0.00  0.00    +0.000 C 
ATOM     14  H   UNL     1       2.692   1.284  18.352  0.00  0.00    +0.000 HD
ATOM     15  H   UNL     1       1.040   1.083  18.701  0.00  0.00    +0.000 HD
ENDROOT
BRANCH   1  16
ATOM     16  C   UNL     1       2.333   7.461  19.954  0.00  0.00    +0.000 C 
BRANCH  16  18
ATOM     17  C   UNL     1       0.744   8.877  21.134  0.00  0.00    +0.000 C 
ATOM     18  N   UNL     1       1.121   8.313  19.832  0.00  0.00    +0.000 NA
BRANCH  18  19
ATOM     19  C   UNL     1       1.410   9.415  18.867  0.00  0.00    +0.000 C 
BRANCH  19  20
ATOM     20  C   UNL     1       0.219  10.250  18.449  0.00  0.00    +0.000 A 
ATOM     21  C   UNL     1      -0.861   9.699  17.745  0.00  0.00    +0.000 A 
ATOM     22  C   UNL     1      -1.968  10.494  17.430  0.00  0.00    +0.000 A 
ATOM     23  C   UNL     1      -1.959  11.822  17.833  0.00  0.00    +0.000 A 
ATOM     24  N   UNL     1      -0.933  12.394  18.509  0.00  0.00    +0.000 NA
ATOM     25  C   UNL     1       0.131  11.591  18.799  0.00  0.00    +0.000 A 
ENDBRANCH  19  20
ENDBRANCH  18  19
ENDBRANCH  16  18
ENDBRANCH   1  16
TORSDOF 4
ENDMDL
MODEL 5
REMARK VINA RESULT:      -6.8      0.661      1.046
REMARK  Name = 
REMARK  5 active torsions:
REMARK  status: ('A' for Active; 'I' for Inactive)
REMARK    1  A    between atoms: C_1  and  N_2
REMARK    2  A    between atoms: N_2  and  C_3
REMARK    3  A    between atoms: N_2  and  C_10
REMARK    4  A    between atoms: C_3  and  C_4
REMARK    5  A    between atoms: C_10  and  C_11
REMARK                            x       y       z     vdW  Elec       q    Type
REMARK                         _______ _______ _______ _____ _____    ______ ____
ROOT
ATOM      1  C   UNL     1       3.104   6.865  18.732  0.00  0.00    +0.000 C 
ATOM      2  C   UNL     1       3.633   5.929  17.621  0.00  0.00    +0.000 C 
ATOM      3  N   UNL     1       4.657   5.001  18.097  0.00  0.00    +0.000 N 
ATOM      4  C   UNL     1       5.969   5.238  17.749  0.00  0.00    +0.000 C 
ATOM      5  N   UNL     1       6.890   4.349  18.198  0.00  0.00    +0.000 N 
ATOM      6  O   UNL     1       6.350   6.205  17.096  0.00  0.00    +0.000 OA
ATOM      7  C   UNL     1       4.253   3.795  18.816  0.00  0.00    +0.000 C 
ATOM      8  C   UNL     1       2.820   3.715  19.214  0.00  0.00    +0.000 A 
ATOM      9  N   UNL     1       2.085   2.620  19.166  0.00  0.00    +0.000 NA
ATOM     10  C   UNL     1       0.910   2.926  19.792  0.00  0.00    +0.000 A 
ATOM     11  C   UNL     1       0.916   4.235  20.212  0.00  0.00    +0.000 A 
ATOM     12  N   UNL     1       2.100   4.753  19.762  0.00  0.00    +0.000 N 
ATOM     13  C   UNL     1       2.570   6.111  19.969  0.00  0.00    +0.000 C 
ATOM     14  H   UNL     1       6.652   3.380  18.333  0.00  0.00    +0.000 HD
ATOM     15  H   UNL     1       7.818   4.507  17.824  0.00  0.00    +0.000 HD
ENDROOT
BRANCH   1  16
ATOM     16  C   UNL     1       2.118   7.877  18.076  0.00  0.00    +0.000 C 
BRANCH  16  18
ATOM     17  C   UNL     1       2.212  10.305  17.937  0.00  0.00    +0.000 C 
ATOM     18  N   UNL     1       1.832   9.158  18.772  0.00  0.00    +0.000 NA
BRANCH  18  19
ATOM     19  C   UNL     1       0.373   9.217  19.080  0.00  0.00    +0.000 C 
BRANCH  19  20
ATOM     20  C   UNL     1       0.015   9.682  20.475  0.00  0.00    +0.000 A 
ATOM     21  C   UNL     1      -0.364  11.006  20.739  0.00  0.00    +0.000 A 
ATOM     22  C   UNL     1      -0.745  11.378  22.033  0.00  0.00    +0.000 A 
ATOM     23  C   UNL     1      -0.733  10.409  23.026  0.00  0.00    +0.000 A 
ATOM     24  N   UNL     1      -0.366   9.121  22.814  0.00  0.00    +0.000 NA
ATOM     25  C   UNL     1      -0.001   8.792  21.541  0.00  0.00    +0.000 A 
ENDBRANCH  19  20
ENDBRANCH  18  19
ENDBRANCH  16  18
ENDBRANCH   1  16
TORSDOF 4
ENDMDL
MODEL 6
REMARK VINA RESULT:      -6.8      3.064      6.438
REMARK  Name = 
REMARK  5 active torsions:
REMARK  status: ('A' for Active; 'I' for Inactive)
REMARK    1  A    between atoms: C_1  and  N_2
REMARK    2  A    between atoms: N_2  and  C_3
REMARK    3  A    between atoms: N_2  and  C_10
REMARK    4  A    between atoms: C_3  and  C_4
REMARK    5  A    between atoms: C_10  and  C_11
REMARK                            x       y       z     vdW  Elec       q    Type
REMARK                         _______ _______ _______ _____ _____    ______ ____
ROOT
ATOM      1  C   UNL     1       3.634   4.358  17.330  0.00  0.00    +0.000 C 
ATOM      2  C   UNL     1       4.062   5.430  18.359  0.00  0.00    +0.000 C 
ATOM      3  N   UNL     1       2.969   6.322  18.739  0.00  0.00    +0.000 N 
ATOM      4  C   UNL     1       2.967   7.606  18.237  0.00  0.00    +0.000 C 
ATOM      5  N   UNL     1       1.944   8.410  18.622  0.00  0.00    +0.000 N 
ATOM      6  O   UNL     1       3.802   8.046  17.453  0.00  0.00    +0.000 OA
ATOM      7  C   UNL     1       1.988   5.875  19.726  0.00  0.00    +0.000 C 
ATOM      8  C   UNL     1       2.047   4.436  20.107  0.00  0.00    +0.000 A 
ATOM      9  N   UNL     1       1.875   3.974  21.331  0.00  0.00    +0.000 NA
ATOM     10  C   UNL     1       1.811   2.614  21.215  0.00  0.00    +0.000 A 
ATOM     11  C   UNL     1       1.968   2.236  19.903  0.00  0.00    +0.000 A 
ATOM     12  N   UNL     1       2.205   3.396  19.218  0.00  0.00    +0.000 N 
ATOM     13  C   UNL     1       2.425   3.514  17.788  0.00  0.00    +0.000 C 
ATOM     14  H   UNL     1       1.513   8.304  19.526  0.00  0.00    +0.000 HD
ATOM     15  H   UNL     1       2.049   9.370  18.315  0.00  0.00    +0.000 HD
ENDROOT
BRANCH   1  16
ATOM     16  C   UNL     1       4.905   3.556  16.919  0.00  0.00    +0.000 C 
BRANCH  16  18
ATOM     17  C   UNL     1       4.874   4.942  14.919  0.00  0.00    +0.000 C 
ATOM     18  N   UNL     1       5.501   3.789  15.577  0.00  0.00    +0.000 NA
BRANCH  18  19
ATOM     19  C   UNL     1       6.964   4.034  15.742  0.00  0.00    +0.000 C 
BRANCH  19  20
ATOM     20  C   UNL     1       7.348   5.002  16.840  0.00  0.00    +0.000 A 
ATOM     21  C   UNL     1       7.248   6.390  16.671  0.00  0.00    +0.000 A 
ATOM     22  C   UNL     1       7.557   7.247  17.733  0.00  0.00    +0.000 A 
ATOM     23  C   UNL     1       7.958   6.683  18.937  0.00  0.00    +0.000 A 
ATOM     24  N   UNL     1       8.073   5.348  19.139  0.00  0.00    +0.000 NA
ATOM     25  C   UNL     1       7.764   4.542  18.083  0.00  0.00    +0.000 A 
ENDBRANCH  19  20
ENDBRANCH  18  19
ENDBRANCH  16  18
ENDBRANCH   1  16
TORSDOF 4
ENDMDL
MODEL 7
REMARK VINA RESULT:      -6.7      2.228      4.096
REMARK  Name = 
REMARK  5 active torsions:
REMARK  status: ('A' for Active; 'I' for Inactive)
REMARK    1  A    between atoms: C_1  and  N_2
REMARK    2  A    between atoms: N_2  and  C_3
REMARK    3  A    between atoms: N_2  and  C_10
REMARK    4  A    between atoms: C_3  and  C_4
REMARK    5  A    between atoms: C_10  and  C_11
REMARK                            x       y       z     vdW  Elec       q    Type
REMARK                         _______ _______ _______ _____ _____    ______ ____
ROOT
ATOM      1  C   UNL     1       2.769   6.686  18.338  0.00  0.00    +0.000 C 
ATOM      2  C   UNL     1       2.875   6.022  19.730  0.00  0.00    +0.000 C 
ATOM      3  N   UNL     1       2.993   4.567  19.659  0.00  0.00    +0.000 N 
ATOM      4  C   UNL     1       1.896   3.804  19.996  0.00  0.00    +0.000 C 
ATOM      5  N   UNL     1       2.046   2.457  19.931  0.00  0.00    +0.000 N 
ATOM      6  O   UNL     1       0.803   4.263  20.314  0.00  0.00    +0.000 OA
ATOM      7  C   UNL     1       4.290   3.966  19.357  0.00  0.00    +0.000 C 
ATOM      8  C   UNL     1       5.362   4.902  18.913  0.00  0.00    +0.000 A 
ATOM      9  N   UNL     1       6.628   4.821  19.274  0.00  0.00    +0.000 NA
ATOM     10  C   UNL     1       7.298   5.729  18.504  0.00  0.00    +0.000 A 
ATOM     11  C   UNL     1       6.426   6.392  17.674  0.00  0.00    +0.000 A 
ATOM     12  N   UNL     1       5.184   5.921  18.004  0.00  0.00    +0.000 N 
ATOM     13  C   UNL     1       3.930   6.316  17.389  0.00  0.00    +0.000 C 
ATOM     14  H   UNL     1       2.938   2.026  20.111  0.00  0.00    +0.000 HD
ATOM     15  H   UNL     1       1.250   1.946  20.293  0.00  0.00    +0.000 HD
ENDROOT
BRANCH   1  16
ATOM     16  C   UNL     1       2.528   8.211  18.552  0.00  0.00    +0.000 C 
BRANCH  16  18
ATOM     17  C   UNL     1       1.101   8.857  20.415  0.00  0.00    +0.000 C 
ATOM     18  N   UNL     1       1.176   8.675  18.960  0.00  0.00    +0.000 NA
BRANCH  18  19
ATOM     19  C   UNL     1       0.889   9.968  18.272  0.00  0.00    +0.000 C 
BRANCH  19  20
ATOM     20  C   UNL     1      -0.560  10.404  18.271  0.00  0.00    +0.000 A 
ATOM     21  C   UNL     1      -1.011  11.471  19.060  0.00  0.00    +0.000 A 
ATOM     22  C   UNL     1      -2.347  11.880  18.984  0.00  0.00    +0.000 A 
ATOM     23  C   UNL     1      -3.192  11.202  18.116  0.00  0.00    +0.000 A 
ATOM     24  N   UNL     1      -2.797  10.163  17.341  0.00  0.00    +0.000 NA
ATOM     25  C   UNL     1      -1.488   9.790  17.441  0.00  0.00    +0.000 A 
ENDBRANCH  19  20
ENDBRANCH  18  19
ENDBRANCH  16  18
ENDBRANCH   1  16
TORSDOF 4
ENDMDL
MODEL 8
REMARK VINA RESULT:      -6.7      2.631      6.387
REMARK  Name = 
REMARK  5 active torsions:
REMARK  status: ('A' for Active; 'I' for Inactive)
REMARK    1  A    between atoms: C_1  and  N_2
REMARK    2  A    between atoms: N_2  and  C_3
REMARK    3  A    between atoms: N_2  and  C_10
REMARK    4  A    between atoms: C_3  and  C_4
REMARK    5  A    between atoms: C_10  and  C_11
REMARK                            x       y       z     vdW  Elec       q    Type
REMARK                         _______ _______ _______ _____ _____    ______ ____
ROOT
ATOM      1  C   UNL     1       2.383   5.007  17.833  0.00  0.00    +0.000 C 
ATOM      2  C   UNL     1       3.113   5.911  18.853  0.00  0.00    +0.000 C 
ATOM      3  N   UNL     1       2.199   6.605  19.757  0.00  0.00    +0.000 N 
ATOM      4  C   UNL     1       1.982   7.952  19.561  0.00  0.00    +0.000 C 
ATOM      5  N   UNL     1       1.136   8.566  20.427  0.00  0.00    +0.000 N 
ATOM      6  O   UNL     1       2.472   8.608  18.649  0.00  0.00    +0.000 OA
ATOM      7  C   UNL     1       1.643   5.889  20.903  0.00  0.00    +0.000 C 
ATOM      8  C   UNL     1       1.875   4.418  20.937  0.00  0.00    +0.000 A 
ATOM      9  N   UNL     1       2.160   3.726  22.024  0.00  0.00    +0.000 NA
ATOM     10  C   UNL     1       2.101   2.411  21.659  0.00  0.00    +0.000 A 
ATOM     11  C   UNL     1       1.796   2.296  20.324  0.00  0.00    +0.000 A 
ATOM     12  N   UNL     1       1.741   3.579  19.853  0.00  0.00    +0.000 N 
ATOM     13  C   UNL     1       1.438   3.977  18.490  0.00  0.00    +0.000 C 
ATOM     14  H   UNL     1       1.055   8.253  21.382  0.00  0.00    +0.000 HD
ATOM     15  H   UNL     1       1.098   9.571  20.308  0.00  0.00    +0.000 HD
ENDROOT
BRANCH   1  16
ATOM     16  C   UNL     1       3.451   4.425  16.859  0.00  0.00    +0.000 C 
BRANCH  16  18
ATOM     17  C   UNL     1       4.350   2.206  17.297  0.00  0.00    +0.000 C 
ATOM     18  N   UNL     1       4.588   3.650  17.419  0.00  0.00    +0.000 NA
BRANCH  18  19
ATOM     19  C   UNL     1       5.828   4.023  16.676  0.00  0.00    +0.000 C 
BRANCH  19  20
ATOM     20  C   UNL     1       6.653   5.133  17.290  0.00  0.00    +0.000 A 
ATOM     21  C   UNL     1       6.700   6.417  16.728  0.00  0.00    +0.000 A 
ATOM     22  C   UNL     1       7.427   7.430  17.362  0.00  0.00    +0.000 A 
ATOM     23  C   UNL     1       8.088   7.123  18.544  0.00  0.00    +0.000 A 
ATOM     24  N   UNL     1       8.072   5.895  19.115  0.00  0.00    +0.000 NA
ATOM     25  C   UNL     1       7.354   4.930  18.471  0.00  0.00    +0.000 A 
ENDBRANCH  19  20
ENDBRANCH  18  19
ENDBRANCH  16  18
ENDBRANCH   1  16
TORSDOF 4
ENDMDL
MODEL 9
REMARK VINA RESULT:      -6.6      1.113      1.377
REMARK  Name = 
REMARK  5 active torsions:
REMARK  status: ('A' for Active; 'I' for Inactive)
REMARK    1  A    between atoms: C_1  and  N_2
REMARK    2  A    between atoms: N_2  and  C_3
REMARK    3  A    between atoms: N_2  and  C_10
REMARK    4  A    between atoms: C_3  and  C_4
REMARK    5  A    between atoms: C_10  and  C_11
REMARK                            x       y       z     vdW  Elec       q    Type
REMARK                         _______ _______ _______ _____ _____    ______ ____
ROOT
ATOM      1  C   UNL     1       3.095   7.245  18.454  0.00  0.00    +0.000 C 
ATOM      2  C   UNL     1       3.883   6.785  17.206  0.00  0.00    +0.000 C 
ATOM      3  N   UNL     1       5.043   5.960  17.538  0.00  0.00    +0.000 N 
ATOM      4  C   UNL     1       6.297   6.522  17.433  0.00  0.00    +0.000 C 
ATOM      5  N   UNL     1       7.352   5.723  17.737  0.00  0.00    +0.000 N 
ATOM      6  O   UNL     1       6.511   7.689  17.120  0.00  0.00    +0.000 OA
ATOM      7  C   UNL     1       4.853   4.544  17.846  0.00  0.00    +0.000 C 
ATOM      8  C   UNL     1       3.444   4.094  18.025  0.00  0.00    +0.000 A 
ATOM      9  N   UNL     1       2.960   2.946  17.590  0.00  0.00    +0.000 NA
ATOM     10  C   UNL     1       1.707   2.839  18.124  0.00  0.00    +0.000 A 
ATOM     11  C   UNL     1       1.410   3.947  18.880  0.00  0.00    +0.000 A 
ATOM     12  N   UNL     1       2.487   4.780  18.739  0.00  0.00    +0.000 N 
ATOM     13  C   UNL     1       2.647   6.080  19.364  0.00  0.00    +0.000 C 
ATOM     14  H   UNL     1       7.313   4.730  17.573  0.00  0.00    +0.000 HD
ATOM     15  H   UNL     1       8.249   6.148  17.539  0.00  0.00    +0.000 HD
ENDROOT
BRANCH   1  16
ATOM     16  C   UNL     1       1.966   8.208  17.978  0.00  0.00    +0.000 C 
BRANCH  16  18
ATOM     17  C   UNL     1       2.237  10.625  17.893  0.00  0.00    +0.000 C 
ATOM     18  N   UNL     1       1.764   9.492  18.698  0.00  0.00    +0.000 NA
BRANCH  18  19
ATOM     19  C   UNL     1       0.309   9.650  18.990  0.00  0.00    +0.000 C 
BRANCH  19  20
ATOM     20  C   UNL     1      -0.046   9.905  20.439  0.00  0.00    +0.000 A 
ATOM     21  C   UNL     1      -0.492  11.158  20.882  0.00  0.00    +0.000 A 
ATOM     22  C   UNL     1      -0.866  11.334  22.219  0.00  0.00    +0.000 A 
ATOM     23  C   UNL     1      -0.781  10.244  23.073  0.00  0.00    +0.000 A 
ATOM     24  N   UNL     1      -0.350   9.018  22.687  0.00  0.00    +0.000 NA
ATOM     25  C   UNL     1       0.008   8.882  21.377  0.00  0.00    +0.000 A 
ENDBRANCH  19  20
ENDBRANCH  18  19
ENDBRANCH  16  18
ENDBRANCH   1  16
TORSDOF 4
ENDMDL
