MODEL 1
REMARK VINA RESULT:      -7.6      0.000      0.000
REMARK  Name = 
REMARK  8 active torsions:
REMARK  status: ('A' for Active; 'I' for Inactive)
REMARK    1  A    between atoms: C_1  and  O_2
REMARK    2  A    between atoms: O_2  and  C_3
REMARK    3  A    between atoms: C_6  and  C_7
REMARK    4  A    between atoms: C_7  and  C_8
REMARK    5  A    between atoms: C_11  and  C_12
REMARK    6  A    between atoms: C_16  and  C_17
REMARK    7  A    between atoms: C_22  and  O_23
REMARK    8  A    between atoms: O_23  and  C_24
REMARK                            x       y       z     vdW  Elec       q    Type
REMARK                         _______ _______ _______ _____ _____    ______ ____
ROOT
ATOM      1  C   UNL     1       2.631   5.713  20.252  0.00  0.00    +0.000 C 
ENDROOT
BRANCH   1   5
ATOM      2  C   UNL     1       1.975   9.418  18.088  0.00  0.00    +0.000 A 
ATOM      3  C   UNL     1       2.750   8.386  17.555  0.00  0.00    +0.000 A 
ATOM      4  C   UNL     1       2.915   7.195  18.260  0.00  0.00    +0.000 A 
ATOM      5  C   UNL     1       2.347   7.013  19.530  0.00  0.00    +0.000 A 
ATOM      6  C   UNL     1       1.596   8.073  20.092  0.00  0.00    +0.000 A 
ATOM      7 CL   UNL     1       1.061   7.925  21.740  0.00  0.00    +0.000 Cl
ATOM      8  C   UNL     1       1.380   9.263  19.359  0.00  0.00    +0.000 A 
BRANCH   2  10
ATOM      9  C   UNL     1       2.554  11.725  17.895  0.00  0.00    +0.000 C 
ATOM     10  O   UNL     1       1.774  10.619  17.451  0.00  0.00    +0.000 OA
ENDBRANCH   2  10
BRANCH   8  11
ATOM     11  O   UNL     1       0.711  10.369  19.830  0.00  0.00    +0.000 OA
ATOM     12  C   UNL     1      -0.710  10.341  19.750  0.00  0.00    +0.000 C 
ENDBRANCH   8  11
ENDBRANCH   1   5
BRANCH   1  13
ATOM     13  C   UNL     1       3.762   5.037  19.564  0.00  0.00    +0.000 A 
ATOM     14  N   UNL     1       3.592   4.060  18.661  0.00  0.00    +0.000 NA
ATOM     15  O   UNL     1       4.872   3.866  18.140  0.00  0.00    +0.000 OA
ATOM     16  C   UNL     1       5.689   4.747  18.786  0.00  0.00    +0.000 A 
ATOM     17  N   UNL     1       5.057   5.492  19.671  0.00  0.00    +0.000 NA
BRANCH  16  18
ATOM     18  C   UNL     1       7.131   4.772  18.383  0.00  0.00    +0.000 C 
ATOM     19  C   UNL     1       7.306   4.399  16.903  0.00  0.00    +0.000 C 
ATOM     20  C   UNL     1       6.860   5.532  15.983  0.00  0.00    +0.000 C 
ATOM     21  O   UNL     1       7.530   6.749  16.314  0.00  0.00    +0.000 OA
ATOM     22  C   UNL     1       7.252   7.181  17.649  0.00  0.00    +0.000 C 
ATOM     23  C   UNL     1       7.927   8.529  17.858  0.00  0.00    +0.000 C 
ATOM     24  C   UNL     1       7.778   6.140  18.639  0.00  0.00    +0.000 C 
ENDBRANCH  16  18
ENDBRANCH   1  13
TORSDOF 5
ENDMDL
MODEL 2
REMARK VINA RESULT:      -7.5      1.195      1.382
REMARK  Name = 
REMARK  8 active torsions:
REMARK  status: ('A' for Active; 'I' for Inactive)
REMARK    1  A    between atoms: C_1  and  O_2
REMARK    2  A    between atoms: O_2  and  C_3
REMARK    3  A    between atoms: C_6  and  C_7
REMARK    4  A    between atoms: C_7  and  C_8
REMARK    5  A    between atoms: C_11  and  C_12
REMARK    6  A    between atoms: C_16  and  C_17
REMARK    7  A    between atoms: C_22  and  O_23
REMARK    8  A    between atoms: O_23  and  C_24
REMARK                            x       y       z     vdW  Elec       q    Type
REMARK                         _______ _______ _______ _____ _____    ______ ____
ROOT
ATOM      1  C   UNL     1       2.312   5.409  18.148  0.00  0.00    +0.000 C 
ENDROOT
BRANCH   1   5
ATOM      2  C   UNL     1       1.561   9.507  19.368  0.00  0.00    +0.000 A 
ATOM      3  C   UNL     1       1.983   9.193  18.074  0.00  0.00    +0.000 A 
ATOM      4  C   UNL     1       2.184   7.864  17.702  0.00  0.00    +0.000 A 
ATOM      5  C   UNL     1       2.010   6.816  18.617  0.00  0.00    +0.000 A 
ATOM      6  C   UNL     1       1.624   7.132  19.942  0.00  0.00    +0.000 A 
ATOM      7 CL   UNL     1       1.601   5.858  21.124  0.00  0.00    +0.000 Cl
ATOM      8  C   UNL     1       1.366   8.473  20.310  0.00  0.00    +0.000 A 
BRANCH   2  10
ATOM      9  C   UNL     1       1.164  11.791  18.804  0.00  0.00    +0.000 C 
ATOM     10  O   UNL     1       1.348  10.793  19.803  0.00  0.00    +0.000 OA
ENDBRANCH   2  10
BRANCH   8  11
ATOM     11  O   UNL     1       1.036   8.894  21.579  0.00  0.00    +0.000 OA
ATOM     12  C   UNL     1      -0.332   8.785  21.954  0.00  0.00    +0.000 C 
ENDBRANCH   8  11
ENDBRANCH   1   5
BRANCH   1  13
ATOM     13  C   UNL     1       3.668   5.040  18.634  0.00  0.00    +0.000 A 
ATOM     14  N   UNL     1       3.888   4.043  19.505  0.00  0.00    +0.000 NA
ATOM     15  O   UNL     1       5.279   3.921  19.521  0.00  0.00    +0.000 OA
ATOM     16  C   UNL     1       5.759   4.863  18.658  0.00  0.00    +0.000 A 
ATOM     17  N   UNL     1       4.810   5.577  18.085  0.00  0.00    +0.000 NA
BRANCH  16  18
ATOM     18  C   UNL     1       7.241   4.922  18.460  0.00  0.00    +0.000 C 
ATOM     19  C   UNL     1       7.638   4.457  17.050  0.00  0.00    +0.000 C 
ATOM     20  C   UNL     1       7.291   5.504  15.996  0.00  0.00    +0.000 C 
ATOM     21  O   UNL     1       7.867   6.768  16.327  0.00  0.00    +0.000 OA
ATOM     22  C   UNL     1       7.387   7.278  17.575  0.00  0.00    +0.000 C 
ATOM     23  C   UNL     1       7.981   8.665  17.777  0.00  0.00    +0.000 C 
ATOM     24  C   UNL     1       7.800   6.331  18.703  0.00  0.00    +0.000 C 
ENDBRANCH  16  18
ENDBRANCH   1  13
TORSDOF 5
ENDMDL
MODEL 3
REMARK VINA RESULT:      -7.4      1.188      1.322
REMARK  Name = 
REMARK  8 active torsions:
REMARK  status: ('A' for Active; 'I' for Inactive)
REMARK    1  A    between atoms: C_1  and  O_2
REMARK    2  A    between atoms: O_2  and  C_3
REMARK    3  A    between atoms: C_6  and  C_7
REMARK    4  A    between atoms: C_7  and  C_8
REMARK    5  A    between atoms: C_11  and  C_12
REMARK    6  A    between atoms: C_16  and  C_17
REMARK    7  A    between atoms: C_22  and  O_23
REMARK    8  A    between atoms: O_23  and  C_24
REMARK                            x       y       z     vdW  Elec       q    Type
REMARK                         _______ _______ _______ _____ _____    ______ ____
ROOT
ATOM      1  C   UNL     1       1.978   6.453  20.495  0.00  0.00    +0.000 C 
ENDROOT
BRANCH   1   5
ATOM      2  C   UNL     1       1.501  10.359  18.662  0.00  0.00    +0.000 A 
ATOM      3  C   UNL     1       2.137   9.309  17.996  0.00  0.00    +0.000 A 
ATOM      4  C   UNL     1       2.246   8.056  18.597  0.00  0.00    +0.000 A 
ATOM      5  C   UNL     1       1.761   7.824  19.893  0.00  0.00    +0.000 A 
ATOM      6  C   UNL     1       1.153   8.897  20.590  0.00  0.00    +0.000 A 
ATOM      7 CL   UNL     1       0.732   8.666  22.260  0.00  0.00    +0.000 Cl
ATOM      8  C   UNL     1       0.992  10.155  19.964  0.00  0.00    +0.000 A 
BRANCH   2  10
ATOM      9  C   UNL     1       2.525  12.440  18.105  0.00  0.00    +0.000 C 
ATOM     10  O   UNL     1       1.363  11.619  18.131  0.00  0.00    +0.000 OA
ENDBRANCH   2  10
BRANCH   8  11
ATOM     11  O   UNL     1       0.463  11.274  20.565  0.00  0.00    +0.000 OA
ATOM     12  C   UNL     1      -0.957  11.366  20.613  0.00  0.00    +0.000 C 
ENDBRANCH   8  11
ENDBRANCH   1   5
BRANCH   1  13
ATOM     13  C   UNL     1       2.679   5.611  19.490  0.00  0.00    +0.000 A 
ATOM     14  N   UNL     1       2.055   5.041  18.448  0.00  0.00    +0.000 NA
ATOM     15  O   UNL     1       3.100   4.530  17.677  0.00  0.00    +0.000 OA
ATOM     16  C   UNL     1       4.254   4.840  18.337  0.00  0.00    +0.000 A 
ATOM     17  N   UNL     1       4.051   5.505  19.457  0.00  0.00    +0.000 NA
BRANCH  16  18
ATOM     18  C   UNL     1       5.544   4.432  17.697  0.00  0.00    +0.000 C 
ATOM     19  C   UNL     1       5.413   4.358  16.168  0.00  0.00    +0.000 C 
ATOM     20  C   UNL     1       5.355   5.748  15.543  0.00  0.00    +0.000 C 
ATOM     21  O   UNL     1       6.475   6.536  15.950  0.00  0.00    +0.000 OA
ATOM     22  C   UNL     1       6.519   6.732  17.366  0.00  0.00    +0.000 C 
ATOM     23  C   UNL     1       7.683   7.664  17.676  0.00  0.00    +0.000 C 
ATOM     24  C   UNL     1       6.694   5.381  18.061  0.00  0.00    +0.000 C 
ENDBRANCH  16  18
ENDBRANCH   1  13
TORSDOF 5
ENDMDL
MODEL 4
REMARK VINA RESULT:      -7.1      1.667      2.575
REMARK  Name = 
REMARK  8 active torsions:
REMARK  status: ('A' for Active; 'I' for Inactive)
REMARK    1  A    between atoms: C_1  and  O_2
REMARK    2  A    between atoms: O_2  and  C_3
REMARK    3  A    between atoms: C_6  and  C_7
REMARK    4  A    between atoms: C_7  and  C_8
REMARK    5  A    between atoms: C_11  and  C_12
REMARK    6  A    between atoms: C_16  and  C_17
REMARK    7  A    between atoms: C_22  and  O_23
REMARK    8  A    between atoms: O_23  and  C_24
REMARK                            x       y       z     vdW  Elec       q    Type
REMARK                         _______ _______ _______ _____ _____    ______ ____
ROOT
ATOM      1  C   UNL     1       2.053   6.853  18.236  0.00  0.00    +0.000 C 
ENDROOT
BRANCH   1   5
ATOM      2  C   UNL     1       0.985   9.458  21.540  0.00  0.00    +0.000 A 
ATOM      3  C   UNL     1       1.329   8.119  21.743  0.00  0.00    +0.000 A 
ATOM      4  C   UNL     1       1.700   7.317  20.666  0.00  0.00    +0.000 A 
ATOM      5  C   UNL     1       1.700   7.811  19.353  0.00  0.00    +0.000 A 
ATOM      6  C   UNL     1       1.310   9.155  19.137  0.00  0.00    +0.000 A 
ATOM      7 CL   UNL     1       1.120   9.708  17.500  0.00  0.00    +0.000 Cl
ATOM      8  C   UNL     1       0.985   9.989  20.231  0.00  0.00    +0.000 A 
BRANCH   2  10
ATOM      9  C   UNL     1      -0.663  10.063  23.155  0.00  0.00    +0.000 C 
ATOM     10  O   UNL     1       0.605  10.304  22.555  0.00  0.00    +0.000 OA
ENDBRANCH   2  10
BRANCH   8  11
ATOM     11  O   UNL     1       0.547  11.290  20.130  0.00  0.00    +0.000 OA
ATOM     12  C   UNL     1       1.537  12.282  19.879  0.00  0.00    +0.000 C 
ENDBRANCH   8  11
ENDBRANCH   1   5
BRANCH   1  13
ATOM     13  C   UNL     1       3.237   6.061  18.662  0.00  0.00    +0.000 A 
ATOM     14  N   UNL     1       3.143   4.848  19.228  0.00  0.00    +0.000 NA
ATOM     15  O   UNL     1       4.465   4.403  19.274  0.00  0.00    +0.000 OA
ATOM     16  C   UNL     1       5.227   5.396  18.733  0.00  0.00    +0.000 A 
ATOM     17  N   UNL     1       4.521   6.438  18.339  0.00  0.00    +0.000 NA
BRANCH  16  18
ATOM     18  C   UNL     1       6.700   5.154  18.627  0.00  0.00    +0.000 C 
ATOM     19  C   UNL     1       7.064   4.475  17.298  0.00  0.00    +0.000 C 
ATOM     20  C   UNL     1       6.975   5.451  16.128  0.00  0.00    +0.000 C 
ATOM     21  O   UNL     1       7.769   6.613  16.374  0.00  0.00    +0.000 OA
ATOM     22  C   UNL     1       7.340   7.333  17.533  0.00  0.00    +0.000 C 
ATOM     23  C   UNL     1       8.182   8.597  17.639  0.00  0.00    +0.000 C 
ATOM     24  C   UNL     1       7.509   6.451  18.771  0.00  0.00    +0.000 C 
ENDBRANCH  16  18
ENDBRANCH   1  13
TORSDOF 5
ENDMDL
MODEL 5
REMARK VINA RESULT:      -7.0      2.911      4.819
REMARK  Name = 
REMARK  8 active torsions:
REMARK  status: ('A' for Active; 'I' for Inactive)
REMARK    1  A    between atoms: C_1  and  O_2
REMARK    2  A    between atoms: O_2  and  C_3
REMARK    3  A    between atoms: C_6  and  C_7
REMARK    4  A    between atoms: C_7  and  C_8
REMARK    5  A    between atoms: C_11  and  C_12
REMARK    6  A    between atoms: C_16  and  C_17
REMARK    7  A    between atoms: C_22  and  O_23
REMARK    8  A    between atoms: O_23  and  C_24
REMARK                            x       y       z     vdW  Elec       q    Type
REMARK                         _______ _______ _______ _____ _____    ______ ____
ROOT
ATOM      1  C   UNL     1       1.612   9.821  18.149  0.00  0.00    +0.000 C 
ENDROOT
BRANCH   1   5
ATOM      2  C   UNL     1      -2.496  11.175  18.519  0.00  0.00    +0.000 A 
ATOM      3  C   UNL     1      -2.138  10.150  17.640  0.00  0.00    +0.000 A 
ATOM      4  C   UNL     1      -0.816   9.714  17.567  0.00  0.00    +0.000 A 
ATOM      5  C   UNL     1       0.193  10.312  18.337  0.00  0.00    +0.000 A 
ATOM      6  C   UNL     1      -0.157  11.380  19.199  0.00  0.00    +0.000 A 
ATOM      7 CL   UNL     1       1.118  12.249  20.000  0.00  0.00    +0.000 Cl
ATOM      8  C   UNL     1      -1.505  11.790  19.316  0.00  0.00    +0.000 A 
BRANCH   2  10
ATOM      9  C   UNL     1      -4.605  11.583  17.482  0.00  0.00    +0.000 C 
ATOM     10  O   UNL     1      -3.777  11.656  18.638  0.00  0.00    +0.000 OA
ENDBRANCH   2  10
BRANCH   8  11
ATOM     11  O   UNL     1      -1.945  12.846  20.082  0.00  0.00    +0.000 OA
ATOM     12  C   UNL     1      -2.123  12.598  21.473  0.00  0.00    +0.000 C 
ENDBRANCH   8  11
ENDBRANCH   1   5
BRANCH   1  13
ATOM     13  C   UNL     1       1.836   8.682  19.077  0.00  0.00    +0.000 A 
ATOM     14  N   UNL     1       1.259   8.597  20.286  0.00  0.00    +0.000 NA
ATOM     15  O   UNL     1       1.577   7.307  20.713  0.00  0.00    +0.000 OA
ATOM     16  C   UNL     1       2.321   6.743  19.718  0.00  0.00    +0.000 A 
ATOM     17  N   UNL     1       2.508   7.546  18.689  0.00  0.00    +0.000 NA
BRANCH  16  18
ATOM     18  C   UNL     1       2.768   5.327  19.910  0.00  0.00    +0.000 C 
ATOM     19  C   UNL     1       1.666   4.332  19.516  0.00  0.00    +0.000 C 
ATOM     20  C   UNL     1       1.503   4.247  18.001  0.00  0.00    +0.000 C 
ATOM     21  O   UNL     1       2.751   3.946  17.373  0.00  0.00    +0.000 OA
ATOM     22  C   UNL     1       3.742   4.948  17.616  0.00  0.00    +0.000 C 
ATOM     23  C   UNL     1       4.987   4.581  16.821  0.00  0.00    +0.000 C 
ATOM     24  C   UNL     1       4.042   5.011  19.115  0.00  0.00    +0.000 C 
ENDBRANCH  16  18
ENDBRANCH   1  13
TORSDOF 5
ENDMDL
MODEL 6
REMARK VINA RESULT:      -7.0      4.932      7.303
REMARK  Name = 
REMARK  8 active torsions:
REMARK  status: ('A' for Active; 'I' for Inactive)
REMARK    1  A    between atoms: C_1  and  O_2
REMARK    2  A    between atoms: O_2  and  C_3
REMARK    3  A    between atoms: C_6  and  C_7
REMARK    4  A    between atoms: C_7  and  C_8
REMARK    5  A    between atoms: C_11  and  C_12
REMARK    6  A    between atoms: C_16  and  C_17
REMARK    7  A    between atoms: C_22  and  O_23
REMARK    8  A    between atoms: O_23  and  C_24
REMARK                            x       y       z     vdW  Elec       q    Type
REMARK                         _______ _______ _______ _____ _____    ______ ____
ROOT
ATOM      1  C   UNL     1       9.636  10.118  19.568  0.00  0.00    +0.000 C 
ENDROOT
BRANCH   1   5
ATOM      2  C   UNL     1      10.319  14.020  17.793  0.00  0.00    +0.000 A 
ATOM      3  C   UNL     1      10.817  12.853  17.211  0.00  0.00    +0.000 A 
ATOM      4  C   UNL     1      10.553  11.611  17.786  0.00  0.00    +0.000 A 
ATOM      5  C   UNL     1       9.821  11.499  18.977  0.00  0.00    +0.000 A 
ATOM      6  C   UNL     1       9.350  12.683  19.595  0.00  0.00    +0.000 A 
ATOM      7 CL   UNL     1       8.618  12.561  21.167  0.00  0.00    +0.000 Cl
ATOM      8  C   UNL     1       9.568  13.941  18.987  0.00  0.00    +0.000 A 
BRANCH   2  10
ATOM      9  C   UNL     1      11.901  15.662  17.094  0.00  0.00    +0.000 C 
ATOM     10  O   UNL     1      10.544  15.276  17.283  0.00  0.00    +0.000 OA
ENDBRANCH   2  10
BRANCH   8  11
ATOM     11  O   UNL     1       9.199  15.153  19.526  0.00  0.00    +0.000 OA
ATOM     12  C   UNL     1       7.834  15.528  19.383  0.00  0.00    +0.000 C 
ENDBRANCH   8  11
ENDBRANCH   1   5
BRANCH   1  13
ATOM     13  C   UNL     1       8.657   9.381  18.726  0.00  0.00    +0.000 A 
ATOM     14  N   UNL     1       7.888   9.978  17.804  0.00  0.00    +0.000 NA
ATOM     15  O   UNL     1       7.288   8.911  17.133  0.00  0.00    +0.000 OA
ATOM     16  C   UNL     1       7.756   7.773  17.723  0.00  0.00    +0.000 A 
ATOM     17  N   UNL     1       8.601   8.006  18.708  0.00  0.00    +0.000 NA
BRANCH  16  18
ATOM     18  C   UNL     1       7.291   6.466  17.162  0.00  0.00    +0.000 C 
ATOM     19  C   UNL     1       7.538   5.312  18.146  0.00  0.00    +0.000 C 
ATOM     20  C   UNL     1       6.552   5.348  19.309  0.00  0.00    +0.000 C 
ATOM     21  O   UNL     1       5.205   5.371  18.834  0.00  0.00    +0.000 OA
ATOM     22  C   UNL     1       4.927   6.524  18.035  0.00  0.00    +0.000 C 
ATOM     23  C   UNL     1       3.449   6.500  17.672  0.00  0.00    +0.000 C 
ATOM     24  C   UNL     1       5.804   6.497  16.782  0.00  0.00    +0.000 C 
ENDBRANCH  16  18
ENDBRANCH   1  13
TORSDOF 5
ENDMDL
MODEL 7
REMARK VINA RESULT:      -6.8      2.955      4.622
REMARK  Name = 
REMARK  8 active torsions:
REMARK  status: ('A' for Active; 'I' for Inactive)
REMARK    1  A    between atoms: C_1  and  O_2
REMARK    2  A    between atoms: O_2  and  C_3
REMARK    3  A    between atoms: C_6  and  C_7
REMARK    4  A    between atoms: C_7  and  C_8
REMARK    5  A    between atoms: C_11  and  C_12
REMARK    6  A    between atoms: C_16  and  C_17
REMARK    7  A    between atoms: C_22  and  O_23
REMARK    8  A    between atoms: O_23  and  C_24
REMARK                            x       y       z     vdW  Elec       q    Type
REMARK                         _______ _______ _______ _____ _____    ______ ____
ROOT
ATOM      1  C   UNL     1       2.934   8.073  17.875  0.00  0.00    +0.000 C 
ENDROOT
BRANCH   1   5
ATOM      2  C   UNL     1       0.335   8.640  21.306  0.00  0.00    +0.000 A 
ATOM      3  C   UNL     1       1.209   7.554  21.220  0.00  0.00    +0.000 A 
ATOM      4  C   UNL     1       2.055   7.417  20.121  0.00  0.00    +0.000 A 
ATOM      5  C   UNL     1       2.027   8.334  19.059  0.00  0.00    +0.000 A 
ATOM      6  C   UNL     1       1.112   9.413  19.121  0.00  0.00    +0.000 A 
ATOM      7 CL   UNL     1       0.937  10.431  17.723  0.00  0.00    +0.000 Cl
ATOM      8  C   UNL     1       0.289   9.587  20.258  0.00  0.00    +0.000 A 
BRANCH   2  10
ATOM      9  C   UNL     1      -0.018   9.520  23.495  0.00  0.00    +0.000 C 
ATOM     10  O   UNL     1      -0.529   8.835  22.357  0.00  0.00    +0.000 OA
ENDBRANCH   2  10
BRANCH   8  11
ATOM     11  O   UNL     1      -0.666  10.567  20.399  0.00  0.00    +0.000 OA
ATOM     12  C   UNL     1      -0.201  11.875  20.715  0.00  0.00    +0.000 C 
ENDBRANCH   8  11
ENDBRANCH   1   5
BRANCH   1  13
ATOM     13  C   UNL     1       3.289   6.630  17.872  0.00  0.00    +0.000 A 
ATOM     14  N   UNL     1       4.537   6.181  18.073  0.00  0.00    +0.000 NA
ATOM     15  O   UNL     1       4.377   4.799  18.186  0.00  0.00    +0.000 OA
ATOM     16  C   UNL     1       3.043   4.552  18.037  0.00  0.00    +0.000 A 
ATOM     17  N   UNL     1       2.329   5.643  17.843  0.00  0.00    +0.000 NA
BRANCH  16  18
ATOM     18  C   UNL     1       2.590   3.130  18.154  0.00  0.00    +0.000 C 
ATOM     19  C   UNL     1       3.777   2.178  18.362  0.00  0.00    +0.000 C 
ATOM     20  C   UNL     1       4.340   2.285  19.776  0.00  0.00    +0.000 C 
ATOM     21  O   UNL     1       3.313   2.086  20.749  0.00  0.00    +0.000 OA
ATOM     22  C   UNL     1       2.273   3.063  20.653  0.00  0.00    +0.000 C 
ATOM     23  C   UNL     1       1.294   2.821  21.793  0.00  0.00    +0.000 C 
ATOM     24  C   UNL     1       1.581   2.938  19.295  0.00  0.00    +0.000 C 
ENDBRANCH  16  18
ENDBRANCH   1  13
TORSDOF 5
ENDMDL
MODEL 8
REMARK VINA RESULT:      -6.8      1.938      2.898
REMARK  Name = 
REMARK  8 active torsions:
REMARK  status: ('A' for Active; 'I' for Inactive)
REMARK    1  A    between atoms: C_1  and  O_2
REMARK    2  A    between atoms: O_2  and  C_3
REMARK    3  A    between atoms: C_6  and  C_7
REMARK    4  A    between atoms: C_7  and  C_8
REMARK    5  A    between atoms: C_11  and  C_12
REMARK    6  A    between atoms: C_16  and  C_17
REMARK    7  A    between atoms: C_22  and  O_23
REMARK    8  A    between atoms: O_23  and  C_24
REMARK                            x       y       z     vdW  Elec       q    Type
REMARK                         _______ _______ _______ _____ _____    ______ ____
ROOT
ATOM      1  C   UNL     1       1.908   8.095  17.866  0.00  0.00    +0.000 C 
ENDROOT
BRANCH   1   5
ATOM      2  C   UNL     1       0.884   9.631  21.795  0.00  0.00    +0.000 A 
ATOM      3  C   UNL     1       0.952   8.260  21.539  0.00  0.00    +0.000 A 
ATOM      4  C   UNL     1       1.316   7.797  20.276  0.00  0.00    +0.000 A 
ATOM      5  C   UNL     1       1.583   8.684  19.222  0.00  0.00    +0.000 A 
ATOM      6  C   UNL     1       1.474  10.075  19.465  0.00  0.00    +0.000 A 
ATOM      7 CL   UNL     1       1.610  11.163  18.117  0.00  0.00    +0.000 Cl
ATOM      8  C   UNL     1       1.158  10.551  20.759  0.00  0.00    +0.000 A 
BRANCH   2  10
ATOM      9  C   UNL     1      -0.863  10.199  23.318  0.00  0.00    +0.000 C 
ATOM     10  O   UNL     1       0.527  10.157  23.014  0.00  0.00    +0.000 OA
ENDBRANCH   2  10
BRANCH   8  11
ATOM     11  O   UNL     1       0.977  11.875  21.090  0.00  0.00    +0.000 OA
ATOM     12  C   UNL     1      -0.203  12.503  20.601  0.00  0.00    +0.000 C 
ENDBRANCH   8  11
ENDBRANCH   1   5
BRANCH   1  13
ATOM     13  C   UNL     1       2.727   6.872  18.076  0.00  0.00    +0.000 A 
ATOM     14  N   UNL     1       2.223   5.631  18.007  0.00  0.00    +0.000 NA
ATOM     15  O   UNL     1       3.352   4.813  18.064  0.00  0.00    +0.000 OA
ATOM     16  C   UNL     1       4.428   5.646  18.167  0.00  0.00    +0.000 A 
ATOM     17  N   UNL     1       4.099   6.922  18.177  0.00  0.00    +0.000 NA
BRANCH  16  18
ATOM     18  C   UNL     1       5.785   5.015  18.209  0.00  0.00    +0.000 C 
ATOM     19  C   UNL     1       6.165   4.410  16.849  0.00  0.00    +0.000 C 
ATOM     20  C   UNL     1       6.520   5.492  15.834  0.00  0.00    +0.000 C 
ATOM     21  O   UNL     1       7.540   6.353  16.344  0.00  0.00    +0.000 OA
ATOM     22  C   UNL     1       7.135   7.034  17.534  0.00  0.00    +0.000 C 
ATOM     23  C   UNL     1       8.248   7.994  17.929  0.00  0.00    +0.000 C 
ATOM     24  C   UNL     1       6.870   6.011  18.640  0.00  0.00    +0.000 C 
ENDBRANCH  16  18
ENDBRANCH   1  13
TORSDOF 5
ENDMDL
MODEL 9
REMARK VINA RESULT:      -6.8      1.885      3.116
REMARK  Name = 
REMARK  8 active torsions:
REMARK  status: ('A' for Active; 'I' for Inactive)
REMARK    1  A    between atoms: C_1  and  O_2
REMARK    2  A    between atoms: O_2  and  C_3
REMARK    3  A    between atoms: C_6  and  C_7
REMARK    4  A    between atoms: C_7  and  C_8
REMARK    5  A    between atoms: C_11  and  C_12
REMARK    6  A    between atoms: C_16  and  C_17
REMARK    7  A    between atoms: C_22  and  O_23
REMARK    8  A    between atoms: O_23  and  C_24
REMARK                            x       y       z     vdW  Elec       q    Type
REMARK                         _______ _______ _______ _____ _____    ______ ____
ROOT
ATOM      1  C   UNL     1       1.752   6.479  19.154  0.00  0.00    +0.000 C 
ENDROOT
BRANCH   1   5
ATOM      2  C   UNL     1       0.878  10.102  21.381  0.00  0.00    +0.000 A 
ATOM      3  C   UNL     1       1.012   8.865  22.016  0.00  0.00    +0.000 A 
ATOM      4  C   UNL     1       1.326   7.725  21.278  0.00  0.00    +0.000 A 
ATOM      5  C   UNL     1       1.476   7.776  19.885  0.00  0.00    +0.000 A 
ATOM      6  C   UNL     1       1.299   9.020  19.230  0.00  0.00    +0.000 A 
ATOM      7 CL   UNL     1       1.288   9.046  17.492  0.00  0.00    +0.000 Cl
ATOM      8  C   UNL     1       1.034  10.189  19.980  0.00  0.00    +0.000 A 
BRANCH   2  10
ATOM      9  C   UNL     1      -0.747  11.366  22.585  0.00  0.00    +0.000 C 
ATOM     10  O   UNL     1       0.566  11.264  22.045  0.00  0.00    +0.000 OA
ENDBRANCH   2  10
BRANCH   8  11
ATOM     11  O   UNL     1       0.795  11.434  19.442  0.00  0.00    +0.000 OA
ATOM     12  C   UNL     1      -0.477  11.637  18.837  0.00  0.00    +0.000 C 
ENDBRANCH   8  11
ENDBRANCH   1   5
BRANCH   1  13
ATOM     13  C   UNL     1       3.222   6.360  18.962  0.00  0.00    +0.000 A 
ATOM     14  N   UNL     1       3.984   5.499  19.654  0.00  0.00    +0.000 NA
ATOM     15  O   UNL     1       5.227   5.580  19.024  0.00  0.00    +0.000 OA
ATOM     16  C   UNL     1       5.090   6.488  18.015  0.00  0.00    +0.000 A 
ATOM     17  N   UNL     1       3.876   6.996  17.932  0.00  0.00    +0.000 NA
BRANCH  16  18
ATOM     18  C   UNL     1       6.284   6.738  17.147  0.00  0.00    +0.000 C 
ATOM     19  C   UNL     1       7.576   6.246  17.816  0.00  0.00    +0.000 C 
ATOM     20  C   UNL     1       7.675   4.724  17.792  0.00  0.00    +0.000 C 
ATOM     21  O   UNL     1       7.534   4.226  16.461  0.00  0.00    +0.000 OA
ATOM     22  C   UNL     1       6.267   4.557  15.884  0.00  0.00    +0.000 C 
ATOM     23  C   UNL     1       6.185   3.893  14.517  0.00  0.00    +0.000 C 
ATOM     24  C   UNL     1       6.144   6.077  15.769  0.00  0.00    +0.000 C 
ENDBRANCH  16  18
ENDBRANCH   1  13
TORSDOF 5
ENDMDL
