MODEL 1
REMARK VINA RESULT:      -9.0      0.000      0.000
REMARK  Name = 
REMARK  6 active torsions:
REMARK  status: ('A' for Active; 'I' for Inactive)
REMARK    1  A    between atoms: C_1  and  C_2
REMARK    2  A    between atoms: C_4  and  S_5
REMARK    3  A    between atoms: S_5  and  N_8
REMARK    4  A    between atoms: C_16  and  O_17
REMARK    5  A    between atoms: O_17  and  C_18
REMARK    6  A    between atoms: C_23  and  C_24
REMARK                            x       y       z     vdW  Elec       q    Type
REMARK                         _______ _______ _______ _____ _____    ______ ____
ROOT
ATOM      1  C   UNL     1       3.169   7.407  17.228  0.00  0.00    +0.000 C 
ATOM      2  C   UNL     1       2.556   7.773  18.552  0.00  0.00    +0.000 A 
ATOM      3  C   UNL     1       1.885   9.006  18.637  0.00  0.00    +0.000 A 
ATOM      4  C   UNL     1       1.167   9.348  19.785  0.00  0.00    +0.000 A 
ATOM      5  C   UNL     1       1.090   8.466  20.863  0.00  0.00    +0.000 A 
ATOM      6  C   UNL     1       1.805   7.270  20.814  0.00  0.00    +0.000 A 
ATOM      7  C   UNL     1       2.570   6.935  19.686  0.00  0.00    +0.000 A 
ENDROOT
BRANCH   4   8
ATOM      8  S   UNL     1       0.198  10.836  19.803  0.00  0.00    +0.000 S 
ATOM      9  O   UNL     1      -1.068  10.528  20.445  0.00  0.00    +0.000 OA
ATOM     10  O   UNL     1       1.041  11.900  20.288  0.00  0.00    +0.000 OA
BRANCH   8  11
ATOM     11  N   UNL     1      -0.167  11.035  18.159  0.00  0.00    +0.000 N 
ATOM     12  C   UNL     1      -1.529  10.764  17.913  0.00  0.00    +0.000 A 
ATOM     13  N   UNL     1      -1.895   9.627  17.375  0.00  0.00    +0.000 NA
ATOM     14  C   UNL     1      -3.280   9.639  17.304  0.00  0.00    +0.000 A 
ATOM     15  N   UNL     1      -3.970  10.733  17.632  0.00  0.00    +0.000 NA
ATOM     16  S   UNL     1      -2.835  11.848  18.159  0.00  0.00    +0.000 S 
ATOM     17  H   UNL     1       0.398  10.343  17.666  0.00  0.00    +0.000 HD
ENDBRANCH   8  11
ENDBRANCH   4   8
BRANCH   7  18
ATOM     18  O   UNL     1       3.200   5.712  19.789  0.00  0.00    +0.000 OA
BRANCH  18  19
ATOM     19  C   UNL     1       2.566   4.550  19.393  0.00  0.00    +0.000 A 
ATOM     20  C   UNL     1       1.273   4.233  19.853  0.00  0.00    +0.000 A 
ATOM     21  C   UNL     1       0.683   3.014  19.537  0.00  0.00    +0.000 A 
ATOM     22  C   UNL     1       1.354   2.125  18.714  0.00  0.00    +0.000 A 
ATOM     23  C   UNL     1       2.599   2.473  18.176  0.00  0.00    +0.000 A 
ATOM     24  C   UNL     1       3.231   3.705  18.467  0.00  0.00    +0.000 A 
BRANCH  24  25
ATOM     25  C   UNL     1       4.493   4.071  17.751  0.00  0.00    +0.000 A 
ATOM     26  C   UNL     1       5.666   4.386  18.474  0.00  0.00    +0.000 A 
ATOM     27  C   UNL     1       6.884   4.657  17.840  0.00  0.00    +0.000 A 
ATOM     28  C   UNL     1       6.972   4.602  16.454  0.00  0.00    +0.000 A 
ATOM     29  C   UNL     1       5.833   4.318  15.710  0.00  0.00    +0.000 A 
ATOM     30  C   UNL     1       4.609   4.080  16.349  0.00  0.00    +0.000 A 
ENDBRANCH  24  25
ENDBRANCH  18  19
ENDBRANCH   7  18
TORSDOF 5
ENDMDL
MODEL 2
REMARK VINA RESULT:      -8.9      2.036      2.520
REMARK  Name = 
REMARK  6 active torsions:
REMARK  status: ('A' for Active; 'I' for Inactive)
REMARK    1  A    between atoms: C_1  and  C_2
REMARK    2  A    between atoms: C_4  and  S_5
REMARK    3  A    between atoms: S_5  and  N_8
REMARK    4  A    between atoms: C_16  and  O_17
REMARK    5  A    between atoms: O_17  and  C_18
REMARK    6  A    between atoms: C_23  and  C_24
REMARK                            x       y       z     vdW  Elec       q    Type
REMARK                         _______ _______ _______ _____ _____    ______ ____
ROOT
ATOM      1  C   UNL     1       3.288   7.322  17.200  0.00  0.00    +0.000 C 
ATOM      2  C   UNL     1       2.620   7.723  18.487  0.00  0.00    +0.000 A 
ATOM      3  C   UNL     1       1.951   8.961  18.511  0.00  0.00    +0.000 A 
ATOM      4  C   UNL     1       1.185   9.334  19.617  0.00  0.00    +0.000 A 
ATOM      5  C   UNL     1       1.056   8.480  20.712  0.00  0.00    +0.000 A 
ATOM      6  C   UNL     1       1.767   7.280  20.725  0.00  0.00    +0.000 A 
ATOM      7  C   UNL     1       2.579   6.914  19.640  0.00  0.00    +0.000 A 
ENDROOT
BRANCH   4   8
ATOM      8  S   UNL     1       0.223  10.826  19.555  0.00  0.00    +0.000 S 
ATOM      9  O   UNL     1       0.728  11.628  18.455  0.00  0.00    +0.000 OA
ATOM     10  O   UNL     1      -1.167  10.451  19.630  0.00  0.00    +0.000 OA
BRANCH   8  11
ATOM     11  N   UNL     1       0.726  11.624  20.964  0.00  0.00    +0.000 N 
ATOM     12  C   UNL     1      -0.367  11.856  21.825  0.00  0.00    +0.000 A 
ATOM     13  N   UNL     1      -0.909  13.046  21.906  0.00  0.00    +0.000 NA
ATOM     14  C   UNL     1      -1.976  12.945  22.787  0.00  0.00    +0.000 A 
ATOM     15  N   UNL     1      -2.201  11.814  23.459  0.00  0.00    +0.000 NA
ATOM     16  S   UNL     1      -1.051  10.724  22.916  0.00  0.00    +0.000 S 
ATOM     17  H   UNL     1       1.094  12.524  20.654  0.00  0.00    +0.000 HD
ENDBRANCH   8  11
ENDBRANCH   4   8
BRANCH   7  18
ATOM     18  O   UNL     1       3.198   5.692  19.801  0.00  0.00    +0.000 OA
BRANCH  18  19
ATOM     19  C   UNL     1       2.579   4.523  19.403  0.00  0.00    +0.000 A 
ATOM     20  C   UNL     1       1.283   4.197  19.852  0.00  0.00    +0.000 A 
ATOM     21  C   UNL     1       0.707   2.972  19.535  0.00  0.00    +0.000 A 
ATOM     22  C   UNL     1       1.394   2.084  18.723  0.00  0.00    +0.000 A 
ATOM     23  C   UNL     1       2.641   2.441  18.196  0.00  0.00    +0.000 A 
ATOM     24  C   UNL     1       3.259   3.679  18.488  0.00  0.00    +0.000 A 
BRANCH  24  25
ATOM     25  C   UNL     1       4.525   4.053  17.783  0.00  0.00    +0.000 A 
ATOM     26  C   UNL     1       5.674   4.429  18.517  0.00  0.00    +0.000 A 
ATOM     27  C   UNL     1       6.897   4.710  17.896  0.00  0.00    +0.000 A 
ATOM     28  C   UNL     1       7.015   4.604  16.516  0.00  0.00    +0.000 A 
ATOM     29  C   UNL     1       5.900   4.258  15.761  0.00  0.00    +0.000 A 
ATOM     30  C   UNL     1       4.670   4.011  16.385  0.00  0.00    +0.000 A 
ENDBRANCH  24  25
ENDBRANCH  18  19
ENDBRANCH   7  18
TORSDOF 5
ENDMDL
MODEL 3
REMARK VINA RESULT:      -8.9      1.722      2.477
REMARK  Name = 
REMARK  6 active torsions:
REMARK  status: ('A' for Active; 'I' for Inactive)
REMARK    1  A    between atoms: C_1  and  C_2
REMARK    2  A    between atoms: C_4  and  S_5
REMARK    3  A    between atoms: S_5  and  N_8
REMARK    4  A    between atoms: C_16  and  O_17
REMARK    5  A    between atoms: O_17  and  C_18
REMARK    6  A    between atoms: C_23  and  C_24
REMARK                            x       y       z     vdW  Elec       q    Type
REMARK                         _______ _______ _______ _____ _____    ______ ____
ROOT
ATOM      1  C   UNL     1       3.197   7.431  17.236  0.00  0.00    +0.000 C 
ATOM      2  C   UNL     1       2.511   7.786  18.527  0.00  0.00    +0.000 A 
ATOM      3  C   UNL     1       1.775   8.985  18.562  0.00  0.00    +0.000 A 
ATOM      4  C   UNL     1       0.993   9.307  19.673  0.00  0.00    +0.000 A 
ATOM      5  C   UNL     1       0.914   8.439  20.761  0.00  0.00    +0.000 A 
ATOM      6  C   UNL     1       1.690   7.280  20.764  0.00  0.00    +0.000 A 
ATOM      7  C   UNL     1       2.518   6.968  19.675  0.00  0.00    +0.000 A 
ENDROOT
BRANCH   4   8
ATOM      8  S   UNL     1      -0.050  10.744  19.625  0.00  0.00    +0.000 S 
ATOM      9  O   UNL     1      -1.348  10.328  19.125  0.00  0.00    +0.000 OA
ATOM     10  O   UNL     1       0.081  11.420  20.891  0.00  0.00    +0.000 OA
BRANCH   8  11
ATOM     11  N   UNL     1       0.651  11.642  18.368  0.00  0.00    +0.000 N 
ATOM     12  C   UNL     1       0.948  12.953  18.795  0.00  0.00    +0.000 A 
ATOM     13  N   UNL     1       0.177  13.955  18.451  0.00  0.00    +0.000 NA
ATOM     14  C   UNL     1       0.695  15.091  19.055  0.00  0.00    +0.000 A 
ATOM     15  N   UNL     1       1.851  15.042  19.721  0.00  0.00    +0.000 NA
ATOM     16  S   UNL     1       2.332  13.438  19.684  0.00  0.00    +0.000 S 
ATOM     17  H   UNL     1      -0.057  11.690  17.636  0.00  0.00    +0.000 HD
ENDBRANCH   8  11
ENDBRANCH   4   8
BRANCH   7  18
ATOM     18  O   UNL     1       3.203   5.780  19.824  0.00  0.00    +0.000 OA
BRANCH  18  19
ATOM     19  C   UNL     1       2.619   4.574  19.488  0.00  0.00    +0.000 A 
ATOM     20  C   UNL     1       1.343   4.224  19.972  0.00  0.00    +0.000 A 
ATOM     21  C   UNL     1       0.806   2.967  19.718  0.00  0.00    +0.000 A 
ATOM     22  C   UNL     1       1.511   2.069  18.934  0.00  0.00    +0.000 A 
ATOM     23  C   UNL     1       2.737   2.445  18.372  0.00  0.00    +0.000 A 
ATOM     24  C   UNL     1       3.316   3.715  18.600  0.00  0.00    +0.000 A 
BRANCH  24  25
ATOM     25  C   UNL     1       4.557   4.101  17.859  0.00  0.00    +0.000 A 
ATOM     26  C   UNL     1       5.732   4.460  18.559  0.00  0.00    +0.000 A 
ATOM     27  C   UNL     1       6.933   4.751  17.902  0.00  0.00    +0.000 A 
ATOM     28  C   UNL     1       7.003   4.673  16.516  0.00  0.00    +0.000 A 
ATOM     29  C   UNL     1       5.861   4.345  15.794  0.00  0.00    +0.000 A 
ATOM     30  C   UNL     1       4.653   4.087  16.456  0.00  0.00    +0.000 A 
ENDBRANCH  24  25
ENDBRANCH  18  19
ENDBRANCH   7  18
TORSDOF 5
ENDMDL
MODEL 4
REMARK VINA RESULT:      -8.8      2.049      2.987
REMARK  Name = 
REMARK  6 active torsions:
REMARK  status: ('A' for Active; 'I' for Inactive)
REMARK    1  A    between atoms: C_1  and  C_2
REMARK    2  A    between atoms: C_4  and  S_5
REMARK    3  A    between atoms: S_5  and  N_8
REMARK    4  A    between atoms: C_16  and  O_17
REMARK    5  A    between atoms: O_17  and  C_18
REMARK    6  A    between atoms: C_23  and  C_24
REMARK                            x       y       z     vdW  Elec       q    Type
REMARK                         _______ _______ _______ _____ _____    ______ ____
ROOT
ATOM      1  C   UNL     1       2.982   7.906  17.217  0.00  0.00    +0.000 C 
ATOM      2  C   UNL     1       2.283   8.231  18.508  0.00  0.00    +0.000 A 
ATOM      3  C   UNL     1       1.475   9.383  18.536  0.00  0.00    +0.000 A 
ATOM      4  C   UNL     1       0.681   9.669  19.648  0.00  0.00    +0.000 A 
ATOM      5  C   UNL     1       0.661   8.809  20.746  0.00  0.00    +0.000 A 
ATOM      6  C   UNL     1       1.506   7.700  20.755  0.00  0.00    +0.000 A 
ATOM      7  C   UNL     1       2.346   7.427  19.664  0.00  0.00    +0.000 A 
ENDROOT
BRANCH   4   8
ATOM      8  S   UNL     1      -0.448  11.039  19.591  0.00  0.00    +0.000 S 
ATOM      9  O   UNL     1      -1.722  10.538  19.109  0.00  0.00    +0.000 OA
ATOM     10  O   UNL     1      -0.348  11.738  20.848  0.00  0.00    +0.000 OA
BRANCH   8  11
ATOM     11  N   UNL     1       0.186  11.961  18.317  0.00  0.00    +0.000 N 
ATOM     12  C   UNL     1       0.762  13.154  18.802  0.00  0.00    +0.000 A 
ATOM     13  N   UNL     1       0.126  14.294  18.689  0.00  0.00    +0.000 NA
ATOM     14  C   UNL     1       0.916  15.261  19.293  0.00  0.00    +0.000 A 
ATOM     15  N   UNL     1       2.138  14.961  19.739  0.00  0.00    +0.000 NA
ATOM     16  S   UNL     1       2.330  13.318  19.476  0.00  0.00    +0.000 S 
ATOM     17  H   UNL     1      -0.611  12.200  17.727  0.00  0.00    +0.000 HD
ENDBRANCH   8  11
ENDBRANCH   4   8
BRANCH   7  18
ATOM     18  O   UNL     1       3.103   6.285  19.822  0.00  0.00    +0.000 OA
BRANCH  18  19
ATOM     19  C   UNL     1       2.930   5.195  18.990  0.00  0.00    +0.000 A 
ATOM     20  C   UNL     1       1.652   4.646  18.767  0.00  0.00    +0.000 A 
ATOM     21  C   UNL     1       1.496   3.487  18.015  0.00  0.00    +0.000 A 
ATOM     22  C   UNL     1       2.606   2.897  17.433  0.00  0.00    +0.000 A 
ATOM     23  C   UNL     1       3.866   3.491  17.571  0.00  0.00    +0.000 A 
ATOM     24  C   UNL     1       4.067   4.673  18.322  0.00  0.00    +0.000 A 
BRANCH  24  25
ATOM     25  C   UNL     1       5.412   5.329  18.314  0.00  0.00    +0.000 A 
ATOM     26  C   UNL     1       5.781   6.203  17.266  0.00  0.00    +0.000 A 
ATOM     27  C   UNL     1       6.999   6.894  17.265  0.00  0.00    +0.000 A 
ATOM     28  C   UNL     1       7.882   6.747  18.327  0.00  0.00    +0.000 A 
ATOM     29  C   UNL     1       7.562   5.878  19.364  0.00  0.00    +0.000 A 
ATOM     30  C   UNL     1       6.356   5.164  19.344  0.00  0.00    +0.000 A 
ENDBRANCH  24  25
ENDBRANCH  18  19
ENDBRANCH   7  18
TORSDOF 5
ENDMDL
MODEL 5
REMARK VINA RESULT:      -8.8      4.118      8.785
REMARK  Name = 
REMARK  6 active torsions:
REMARK  status: ('A' for Active; 'I' for Inactive)
REMARK    1  A    between atoms: C_1  and  C_2
REMARK    2  A    between atoms: C_4  and  S_5
REMARK    3  A    between atoms: S_5  and  N_8
REMARK    4  A    between atoms: C_16  and  O_17
REMARK    5  A    between atoms: O_17  and  C_18
REMARK    6  A    between atoms: C_23  and  C_24
REMARK                            x       y       z     vdW  Elec       q    Type
REMARK                         _______ _______ _______ _____ _____    ______ ____
ROOT
ATOM      1  C   UNL     1       0.483   8.830  21.475  0.00  0.00    +0.000 C 
ATOM      2  C   UNL     1       1.266   8.535  20.225  0.00  0.00    +0.000 A 
ATOM      3  C   UNL     1       1.996   7.332  20.186  0.00  0.00    +0.000 A 
ATOM      4  C   UNL     1       2.626   6.920  19.011  0.00  0.00    +0.000 A 
ATOM      5  C   UNL     1       2.529   7.683  17.848  0.00  0.00    +0.000 A 
ATOM      6  C   UNL     1       1.863   8.908  17.893  0.00  0.00    +0.000 A 
ATOM      7  C   UNL     1       1.267   9.358  19.081  0.00  0.00    +0.000 A 
ENDROOT
BRANCH   4   8
ATOM      8  S   UNL     1       3.402   5.323  18.945  0.00  0.00    +0.000 S 
ATOM      9  O   UNL     1       2.807   4.503  19.984  0.00  0.00    +0.000 OA
ATOM     10  O   UNL     1       3.406   4.898  17.567  0.00  0.00    +0.000 OA
BRANCH   8  11
ATOM     11  N   UNL     1       4.969   5.675  19.489  0.00  0.00    +0.000 N 
ATOM     12  C   UNL     1       5.907   5.519  18.447  0.00  0.00    +0.000 A 
ATOM     13  N   UNL     1       6.670   4.454  18.392  0.00  0.00    +0.000 NA
ATOM     14  C   UNL     1       7.441   4.568  17.244  0.00  0.00    +0.000 A 
ATOM     15  N   UNL     1       7.404   5.678  16.505  0.00  0.00    +0.000 NA
ATOM     16  S   UNL     1       6.258   6.667  17.223  0.00  0.00    +0.000 S 
ATOM     17  H   UNL     1       5.169   4.986  20.214  0.00  0.00    +0.000 HD
ENDBRANCH   8  11
ENDBRANCH   4   8
BRANCH   7  18
ATOM     18  O   UNL     1       0.633  10.577  18.954  0.00  0.00    +0.000 OA
BRANCH  18  19
ATOM     19  C   UNL     1      -0.688  10.654  18.559  0.00  0.00    +0.000 A 
ATOM     20  C   UNL     1      -1.197   9.810  17.553  0.00  0.00    +0.000 A 
ATOM     21  C   UNL     1      -2.498   9.963  17.084  0.00  0.00    +0.000 A 
ATOM     22  C   UNL     1      -3.319  10.921  17.654  0.00  0.00    +0.000 A 
ATOM     23  C   UNL     1      -2.851  11.700  18.719  0.00  0.00    +0.000 A 
ATOM     24  C   UNL     1      -1.538  11.572  19.229  0.00  0.00    +0.000 A 
BRANCH  24  25
ATOM     25  C   UNL     1      -1.147  12.336  20.455  0.00  0.00    +0.000 A 
ATOM     26  C   UNL     1      -0.460  13.567  20.348  0.00  0.00    +0.000 A 
ATOM     27  C   UNL     1      -0.148  14.346  21.468  0.00  0.00    +0.000 A 
ATOM     28  C   UNL     1      -0.532  13.927  22.736  0.00  0.00    +0.000 A 
ATOM     29  C   UNL     1      -1.190  12.711  22.880  0.00  0.00    +0.000 A 
ATOM     30  C   UNL     1      -1.471  11.919  21.759  0.00  0.00    +0.000 A 
ENDBRANCH  24  25
ENDBRANCH  18  19
ENDBRANCH   7  18
TORSDOF 5
ENDMDL
MODEL 6
REMARK VINA RESULT:      -8.8      2.073      2.614
REMARK  Name = 
REMARK  6 active torsions:
REMARK  status: ('A' for Active; 'I' for Inactive)
REMARK    1  A    between atoms: C_1  and  C_2
REMARK    2  A    between atoms: C_4  and  S_5
REMARK    3  A    between atoms: S_5  and  N_8
REMARK    4  A    between atoms: C_16  and  O_17
REMARK    5  A    between atoms: O_17  and  C_18
REMARK    6  A    between atoms: C_23  and  C_24
REMARK                            x       y       z     vdW  Elec       q    Type
REMARK                         _______ _______ _______ _____ _____    ______ ____
ROOT
ATOM      1  C   UNL     1       3.181   7.343  17.187  0.00  0.00    +0.000 C 
ATOM      2  C   UNL     1       2.558   7.680  18.514  0.00  0.00    +0.000 A 
ATOM      3  C   UNL     1       1.854   8.895  18.609  0.00  0.00    +0.000 A 
ATOM      4  C   UNL     1       1.126   9.207  19.759  0.00  0.00    +0.000 A 
ATOM      5  C   UNL     1       1.070   8.314  20.828  0.00  0.00    +0.000 A 
ATOM      6  C   UNL     1       1.816   7.137  20.769  0.00  0.00    +0.000 A 
ATOM      7  C   UNL     1       2.591   6.833  19.640  0.00  0.00    +0.000 A 
ENDROOT
BRANCH   4   8
ATOM      8  S   UNL     1       0.118  10.670  19.790  0.00  0.00    +0.000 S 
ATOM      9  O   UNL     1       0.989  11.797  20.072  0.00  0.00    +0.000 OA
ATOM     10  O   UNL     1      -0.717  10.647  18.615  0.00  0.00    +0.000 OA
BRANCH   8  11
ATOM     11  N   UNL     1      -0.791  10.437  21.201  0.00  0.00    +0.000 N 
ATOM     12  C   UNL     1      -1.180  11.675  21.755  0.00  0.00    +0.000 A 
ATOM     13  N   UNL     1      -0.555  12.162  22.799  0.00  0.00    +0.000 NA
ATOM     14  C   UNL     1      -1.128  13.395  23.074  0.00  0.00    +0.000 A 
ATOM     15  N   UNL     1      -2.202  13.813  22.402  0.00  0.00    +0.000 NA
ATOM     16  S   UNL     1      -2.514  12.631  21.257  0.00  0.00    +0.000 S 
ATOM     17  H   UNL     1      -0.167   9.968  21.857  0.00  0.00    +0.000 HD
ENDBRANCH   8  11
ENDBRANCH   4   8
BRANCH   7  18
ATOM     18  O   UNL     1       3.252   5.626  19.732  0.00  0.00    +0.000 OA
BRANCH  18  19
ATOM     19  C   UNL     1       2.656   4.453  19.307  0.00  0.00    +0.000 A 
ATOM     20  C   UNL     1       1.349   4.115  19.709  0.00  0.00    +0.000 A 
ATOM     21  C   UNL     1       0.794   2.887  19.367  0.00  0.00    +0.000 A 
ATOM     22  C   UNL     1       1.516   2.009  18.575  0.00  0.00    +0.000 A 
ATOM     23  C   UNL     1       2.777   2.379  18.093  0.00  0.00    +0.000 A 
ATOM     24  C   UNL     1       3.375   3.620  18.412  0.00  0.00    +0.000 A 
BRANCH  24  25
ATOM     25  C   UNL     1       4.662   4.008  17.753  0.00  0.00    +0.000 A 
ATOM     26  C   UNL     1       4.762   4.062  16.344  0.00  0.00    +0.000 A 
ATOM     27  C   UNL     1       5.924   4.494  15.694  0.00  0.00    +0.000 A 
ATOM     28  C   UNL     1       7.022   4.907  16.438  0.00  0.00    +0.000 A 
ATOM     29  C   UNL     1       6.967   4.847  17.826  0.00  0.00    +0.000 A 
ATOM     30  C   UNL     1       5.813   4.381  18.470  0.00  0.00    +0.000 A 
ENDBRANCH  24  25
ENDBRANCH  18  19
ENDBRANCH   7  18
TORSDOF 5
ENDMDL
MODEL 7
REMARK VINA RESULT:      -8.8      2.630      3.183
REMARK  Name = 
REMARK  6 active torsions:
REMARK  status: ('A' for Active; 'I' for Inactive)
REMARK    1  A    between atoms: C_1  and  C_2
REMARK    2  A    between atoms: C_4  and  S_5
REMARK    3  A    between atoms: S_5  and  N_8
REMARK    4  A    between atoms: C_16  and  O_17
REMARK    5  A    between atoms: O_17  and  C_18
REMARK    6  A    between atoms: C_23  and  C_24
REMARK                            x       y       z     vdW  Elec       q    Type
REMARK                         _______ _______ _______ _____ _____    ______ ____
ROOT
ATOM      1  C   UNL     1       2.742   8.124  17.373  0.00  0.00    +0.000 C 
ATOM      2  C   UNL     1       2.152   8.331  18.741  0.00  0.00    +0.000 A 
ATOM      3  C   UNL     1       1.332   9.459  18.930  0.00  0.00    +0.000 A 
ATOM      4  C   UNL     1       0.632   9.639  20.124  0.00  0.00    +0.000 A 
ATOM      5  C   UNL     1       0.721   8.695  21.147  0.00  0.00    +0.000 A 
ATOM      6  C   UNL     1       1.580   7.608  20.995  0.00  0.00    +0.000 A 
ATOM      7  C   UNL     1       2.327   7.440  19.819  0.00  0.00    +0.000 A 
ENDROOT
BRANCH   4   8
ATOM      8  S   UNL     1      -0.518  10.984  20.274  0.00  0.00    +0.000 S 
ATOM      9  O   UNL     1       0.238  12.220  20.183  0.00  0.00    +0.000 OA
ATOM     10  O   UNL     1      -1.620  10.715  19.384  0.00  0.00    +0.000 OA
BRANCH   8  11
ATOM     11  N   UNL     1      -0.989  10.861  21.898  0.00  0.00    +0.000 N 
ATOM     12  C   UNL     1      -1.397  12.117  22.397  0.00  0.00    +0.000 A 
ATOM     13  N   UNL     1      -0.602  12.817  23.167  0.00  0.00    +0.000 NA
ATOM     14  C   UNL     1      -1.257  14.006  23.451  0.00  0.00    +0.000 A 
ATOM     15  N   UNL     1      -2.517  14.201  23.057  0.00  0.00    +0.000 NA
ATOM     16  S   UNL     1      -2.938  12.837  22.181  0.00  0.00    +0.000 S 
ATOM     17  H   UNL     1      -0.155  10.564  22.405  0.00  0.00    +0.000 HD
ENDBRANCH   8  11
ENDBRANCH   4   8
BRANCH   7  18
ATOM     18  O   UNL     1       3.113   6.307  19.820  0.00  0.00    +0.000 OA
BRANCH  18  19
ATOM     19  C   UNL     1       2.912   5.300  18.894  0.00  0.00    +0.000 A 
ATOM     20  C   UNL     1       1.620   4.802  18.631  0.00  0.00    +0.000 A 
ATOM     21  C   UNL     1       1.435   3.719  17.779  0.00  0.00    +0.000 A 
ATOM     22  C   UNL     1       2.529   3.159  17.139  0.00  0.00    +0.000 A 
ATOM     23  C   UNL     1       3.803   3.710  17.322  0.00  0.00    +0.000 A 
ATOM     24  C   UNL     1       4.034   4.815  18.175  0.00  0.00    +0.000 A 
BRANCH  24  25
ATOM     25  C   UNL     1       5.393   5.439  18.218  0.00  0.00    +0.000 A 
ATOM     26  C   UNL     1       5.767   6.416  17.268  0.00  0.00    +0.000 A 
ATOM     27  C   UNL     1       7.000   7.077  17.323  0.00  0.00    +0.000 A 
ATOM     28  C   UNL     1       7.894   6.795  18.348  0.00  0.00    +0.000 A 
ATOM     29  C   UNL     1       7.569   5.823  19.287  0.00  0.00    +0.000 A 
ATOM     30  C   UNL     1       6.347   5.141  19.208  0.00  0.00    +0.000 A 
ENDBRANCH  24  25
ENDBRANCH  18  19
ENDBRANCH   7  18
TORSDOF 5
ENDMDL
MODEL 8
REMARK VINA RESULT:      -8.8      1.839      2.745
REMARK  Name = 
REMARK  6 active torsions:
REMARK  status: ('A' for Active; 'I' for Inactive)
REMARK    1  A    between atoms: C_1  and  C_2
REMARK    2  A    between atoms: C_4  and  S_5
REMARK    3  A    between atoms: S_5  and  N_8
REMARK    4  A    between atoms: C_16  and  O_17
REMARK    5  A    between atoms: O_17  and  C_18
REMARK    6  A    between atoms: C_23  and  C_24
REMARK                            x       y       z     vdW  Elec       q    Type
REMARK                         _______ _______ _______ _____ _____    ______ ____
ROOT
ATOM      1  C   UNL     1       2.976   7.710  17.370  0.00  0.00    +0.000 C 
ATOM      2  C   UNL     1       2.243   8.114  18.620  0.00  0.00    +0.000 A 
ATOM      3  C   UNL     1       1.435   9.263  18.556  0.00  0.00    +0.000 A 
ATOM      4  C   UNL     1       0.612   9.616  19.627  0.00  0.00    +0.000 A 
ATOM      5  C   UNL     1       0.564   8.827  20.775  0.00  0.00    +0.000 A 
ATOM      6  C   UNL     1       1.409   7.722  20.875  0.00  0.00    +0.000 A 
ATOM      7  C   UNL     1       2.277   7.383  19.826  0.00  0.00    +0.000 A 
ENDROOT
BRANCH   4   8
ATOM      8  S   UNL     1      -0.516  10.978  19.456  0.00  0.00    +0.000 S 
ATOM      9  O   UNL     1      -1.725  10.471  18.833  0.00  0.00    +0.000 OA
ATOM     10  O   UNL     1      -0.560  11.668  20.721  0.00  0.00    +0.000 OA
BRANCH   8  11
ATOM     11  N   UNL     1       0.247  11.915  18.266  0.00  0.00    +0.000 N 
ATOM     12  C   UNL     1       0.751  13.112  18.818  0.00  0.00    +0.000 A 
ATOM     13  N   UNL     1       0.117  14.245  18.640  0.00  0.00    +0.000 NA
ATOM     14  C   UNL     1       0.824  15.217  19.334  0.00  0.00    +0.000 A 
ATOM     15  N   UNL     1       1.991  14.928  19.913  0.00  0.00    +0.000 NA
ATOM     16  S   UNL     1       2.231  13.289  19.665  0.00  0.00    +0.000 S 
ATOM     17  H   UNL     1      -0.482  12.149  17.591  0.00  0.00    +0.000 HD
ENDBRANCH   8  11
ENDBRANCH   4   8
BRANCH   7  18
ATOM     18  O   UNL     1       3.031   6.255  20.073  0.00  0.00    +0.000 OA
BRANCH  18  19
ATOM     19  C   UNL     1       2.534   4.994  19.806  0.00  0.00    +0.000 A 
ATOM     20  C   UNL     1       1.272   4.593  20.287  0.00  0.00    +0.000 A 
ATOM     21  C   UNL     1       0.822   3.289  20.106  0.00  0.00    +0.000 A 
ATOM     22  C   UNL     1       1.602   2.391  19.397  0.00  0.00    +0.000 A 
ATOM     23  C   UNL     1       2.814   2.809  18.835  0.00  0.00    +0.000 A 
ATOM     24  C   UNL     1       3.304   4.127  18.990  0.00  0.00    +0.000 A 
BRANCH  24  25
ATOM     25  C   UNL     1       4.536   4.544  18.249  0.00  0.00    +0.000 A 
ATOM     26  C   UNL     1       4.548   4.584  16.836  0.00  0.00    +0.000 A 
ATOM     27  C   UNL     1       5.654   5.043  16.112  0.00  0.00    +0.000 A 
ATOM     28  C   UNL     1       6.783   5.498  16.782  0.00  0.00    +0.000 A 
ATOM     29  C   UNL     1       6.815   5.453  18.171  0.00  0.00    +0.000 A 
ATOM     30  C   UNL     1       5.716   4.961  18.890  0.00  0.00    +0.000 A 
ENDBRANCH  24  25
ENDBRANCH  18  19
ENDBRANCH   7  18
TORSDOF 5
ENDMDL
MODEL 9
REMARK VINA RESULT:      -8.7      1.979      2.709
REMARK  Name = 
REMARK  6 active torsions:
REMARK  status: ('A' for Active; 'I' for Inactive)
REMARK    1  A    between atoms: C_1  and  C_2
REMARK    2  A    between atoms: C_4  and  S_5
REMARK    3  A    between atoms: S_5  and  N_8
REMARK    4  A    between atoms: C_16  and  O_17
REMARK    5  A    between atoms: O_17  and  C_18
REMARK    6  A    between atoms: C_23  and  C_24
REMARK                            x       y       z     vdW  Elec       q    Type
REMARK                         _______ _______ _______ _____ _____    ______ ____
ROOT
ATOM      1  C   UNL     1       3.282   7.354  17.179  0.00  0.00    +0.000 C 
ATOM      2  C   UNL     1       2.587   7.754  18.451  0.00  0.00    +0.000 A 
ATOM      3  C   UNL     1       1.875   8.967  18.447  0.00  0.00    +0.000 A 
ATOM      4  C   UNL     1       1.085   9.333  19.539  0.00  0.00    +0.000 A 
ATOM      5  C   UNL     1       0.976   8.494  20.648  0.00  0.00    +0.000 A 
ATOM      6  C   UNL     1       1.728   7.321  20.689  0.00  0.00    +0.000 A 
ATOM      7  C   UNL     1       2.563   6.965  19.619  0.00  0.00    +0.000 A 
ENDROOT
BRANCH   4   8
ATOM      8  S   UNL     1       0.072  10.788  19.442  0.00  0.00    +0.000 S 
ATOM      9  O   UNL     1       0.808  11.785  18.686  0.00  0.00    +0.000 OA
ATOM     10  O   UNL     1      -1.249  10.373  19.042  0.00  0.00    +0.000 OA
BRANCH   8  11
ATOM     11  N   UNL     1       0.090  11.335  21.047  0.00  0.00    +0.000 N 
ATOM     12  C   UNL     1       0.322  12.725  21.099  0.00  0.00    +0.000 A 
ATOM     13  N   UNL     1       1.504  13.191  21.420  0.00  0.00    +0.000 NA
ATOM     14  C   UNL     1       1.430  14.574  21.339  0.00  0.00    +0.000 A 
ATOM     15  N   UNL     1       0.266  15.181  21.102  0.00  0.00    +0.000 NA
ATOM     16  S   UNL     1      -0.852  13.954  20.873  0.00  0.00    +0.000 S 
ATOM     17  H   UNL     1       0.874  10.856  21.492  0.00  0.00    +0.000 HD
ENDBRANCH   8  11
ENDBRANCH   4   8
BRANCH   7  18
ATOM     18  O   UNL     1       3.223   5.768  19.807  0.00  0.00    +0.000 OA
BRANCH  18  19
ATOM     19  C   UNL     1       2.627   4.566  19.475  0.00  0.00    +0.000 A 
ATOM     20  C   UNL     1       1.348   4.230  19.962  0.00  0.00    +0.000 A 
ATOM     21  C   UNL     1       0.798   2.977  19.712  0.00  0.00    +0.000 A 
ATOM     22  C   UNL     1       1.494   2.071  18.930  0.00  0.00    +0.000 A 
ATOM     23  C   UNL     1       2.722   2.433  18.365  0.00  0.00    +0.000 A 
ATOM     24  C   UNL     1       3.314   3.698  18.588  0.00  0.00    +0.000 A 
BRANCH  24  25
ATOM     25  C   UNL     1       4.558   4.070  17.844  0.00  0.00    +0.000 A 
ATOM     26  C   UNL     1       5.730   4.442  18.542  0.00  0.00    +0.000 A 
ATOM     27  C   UNL     1       6.933   4.721  17.883  0.00  0.00    +0.000 A 
ATOM     28  C   UNL     1       7.008   4.617  16.500  0.00  0.00    +0.000 A 
ATOM     29  C   UNL     1       5.869   4.275  15.779  0.00  0.00    +0.000 A 
ATOM     30  C   UNL     1       4.659   4.029  16.442  0.00  0.00    +0.000 A 
ENDBRANCH  24  25
ENDBRANCH  18  19
ENDBRANCH   7  18
TORSDOF 5
ENDMDL
