MODEL 1
REMARK VINA RESULT:      -7.2      0.000      0.000
REMARK  Name = 
REMARK  5 active torsions:
REMARK  status: ('A' for Active; 'I' for Inactive)
REMARK    1  A    between atoms: C_1  and  O_2
REMARK    2  A    between atoms: O_2  and  C_3
REMARK    3  A    between atoms: C_8  and  C_9
REMARK    4  A    between atoms: C_13  and  O_14
REMARK    5  A    between atoms: C_13  and  C_15
REMARK                            x       y       z     vdW  Elec       q    Type
REMARK                         _______ _______ _______ _____ _____    ______ ____
ROOT
ATOM      1  C   UNL     1       1.765   4.002  20.359  0.00  0.00    +0.000 A 
ATOM      2  C   UNL     1       1.357   5.341  20.337  0.00  0.00    +0.000 A 
ATOM      3  C   UNL     1       2.199   6.348  19.862  0.00  0.00    +0.000 A 
ATOM      4  C   UNL     1       3.488   6.051  19.403  0.00  0.00    +0.000 A 
ATOM      5  C   UNL     1       3.940   4.719  19.458  0.00  0.00    +0.000 A 
ATOM      6  C   UNL     1       5.146   4.021  19.121  0.00  0.00    +0.000 A 
ATOM      7  N   UNL     1       5.030   2.707  19.405  0.00  0.00    +0.000 NA
ATOM      8  N   UNL     1       3.776   2.577  19.866  0.00  0.00    +0.000 N 
ATOM      9  C   UNL     1       3.074   3.744  19.937  0.00  0.00    +0.000 A 
ATOM     10  H   UNL     1       3.442   1.654  20.123  0.00  0.00    +0.000 HD
ENDROOT
BRANCH   6  11
ATOM     11  C   UNL     1       6.349   4.602  18.484  0.00  0.00    +0.000 C 
ATOM     12  O   UNL     1       7.332   4.956  19.137  0.00  0.00    +0.000 OA
ATOM     13  N   UNL     1       6.297   4.785  17.121  0.00  0.00    +0.000 N 
ATOM     14  C   UNL     1       7.298   5.361  16.234  0.00  0.00    +0.000 C 
ATOM     15  C   UNL     1       6.294   5.010  15.096  0.00  0.00    +0.000 C 
ATOM     16  C   UNL     1       5.770   3.921  16.069  0.00  0.00    +0.000 C 
BRANCH  15  17
ATOM     17  C   UNL     1       6.934   4.489  13.826  0.00  0.00    +0.000 C 
ATOM     18  F   UNL     1       5.942   4.053  13.003  0.00  0.00    +0.000 F 
ATOM     19  F   UNL     1       7.582   5.481  13.168  0.00  0.00    +0.000 F 
ENDBRANCH  15  17
BRANCH  15  20
ATOM     20  O   UNL     1       5.313   6.047  14.765  0.00  0.00    +0.000 OA
ATOM     21  H   UNL     1       5.005   5.823  13.868  0.00  0.00    +0.000 HD
ENDBRANCH  15  20
ENDBRANCH   6  11
BRANCH   1  23
ATOM     22  C   UNL     1       1.297   2.506  22.115  0.00  0.00    +0.000 C 
ATOM     23  O   UNL     1       1.001   2.952  20.792  0.00  0.00    +0.000 OA
ENDBRANCH   1  23
TORSDOF 4
ENDMDL
MODEL 2
REMARK VINA RESULT:      -7.2      1.702      1.973
REMARK  Name = 
REMARK  5 active torsions:
REMARK  status: ('A' for Active; 'I' for Inactive)
REMARK    1  A    between atoms: C_1  and  O_2
REMARK    2  A    between atoms: O_2  and  C_3
REMARK    3  A    between atoms: C_8  and  C_9
REMARK    4  A    between atoms: C_13  and  O_14
REMARK    5  A    between atoms: C_13  and  C_15
REMARK                            x       y       z     vdW  Elec       q    Type
REMARK                         _______ _______ _______ _____ _____    ______ ____
ROOT
ATOM      1  C   UNL     1       2.985   3.434  19.671  0.00  0.00    +0.000 A 
ATOM      2  C   UNL     1       1.826   3.917  19.052  0.00  0.00    +0.000 A 
ATOM      3  C   UNL     1       1.895   4.723  17.914  0.00  0.00    +0.000 A 
ATOM      4  C   UNL     1       3.129   5.085  17.362  0.00  0.00    +0.000 A 
ATOM      5  C   UNL     1       4.310   4.652  17.992  0.00  0.00    +0.000 A 
ATOM      6  C   UNL     1       5.718   4.809  17.773  0.00  0.00    +0.000 A 
ATOM      7  N   UNL     1       6.423   4.167  18.727  0.00  0.00    +0.000 NA
ATOM      8  N   UNL     1       5.488   3.590  19.498  0.00  0.00    +0.000 N 
ATOM      9  C   UNL     1       4.203   3.851  19.122  0.00  0.00    +0.000 A 
ATOM     10  H   UNL     1       5.784   3.019  20.282  0.00  0.00    +0.000 HD
ENDROOT
BRANCH   6  11
ATOM     11  C   UNL     1       6.357   5.506  16.634  0.00  0.00    +0.000 C 
ATOM     12  O   UNL     1       6.937   6.585  16.767  0.00  0.00    +0.000 OA
ATOM     13  N   UNL     1       6.223   4.919  15.397  0.00  0.00    +0.000 N 
ATOM     14  C   UNL     1       6.704   5.383  14.104  0.00  0.00    +0.000 C 
ATOM     15  C   UNL     1       6.110   4.051  13.557  0.00  0.00    +0.000 C 
ATOM     16  C   UNL     1       6.315   3.517  15.000  0.00  0.00    +0.000 C 
BRANCH  15  17
ATOM     17  C   UNL     1       6.948   3.374  12.492  0.00  0.00    +0.000 C 
ATOM     18  F   UNL     1       6.162   2.467  11.851  0.00  0.00    +0.000 F 
ATOM     19  F   UNL     1       7.358   4.267  11.558  0.00  0.00    +0.000 F 
ENDBRANCH  15  17
BRANCH  15  20
ATOM     20  O   UNL     1       4.711   4.102  13.125  0.00  0.00    +0.000 OA
ATOM     21  H   UNL     1       4.467   5.044  13.179  0.00  0.00    +0.000 HD
ENDBRANCH  15  20
ENDBRANCH   6  11
BRANCH   1  23
ATOM     22  C   UNL     1       1.946   2.853  21.702  0.00  0.00    +0.000 C 
ATOM     23  O   UNL     1       3.010   2.629  20.777  0.00  0.00    +0.000 OA
ENDBRANCH   1  23
TORSDOF 4
ENDMDL
MODEL 3
REMARK VINA RESULT:      -7.2      1.053      1.165
REMARK  Name = 
REMARK  5 active torsions:
REMARK  status: ('A' for Active; 'I' for Inactive)
REMARK    1  A    between atoms: C_1  and  O_2
REMARK    2  A    between atoms: O_2  and  C_3
REMARK    3  A    between atoms: C_8  and  C_9
REMARK    4  A    between atoms: C_13  and  O_14
REMARK    5  A    between atoms: C_13  and  C_15
REMARK                            x       y       z     vdW  Elec       q    Type
REMARK                         _______ _______ _______ _____ _____    ______ ____
ROOT
ATOM      1  C   UNL     1       2.234   5.190  19.944  0.00  0.00    +0.000 A 
ATOM      2  C   UNL     1       1.944   6.436  19.374  0.00  0.00    +0.000 A 
ATOM      3  C   UNL     1       2.833   7.053  18.492  0.00  0.00    +0.000 A 
ATOM      4  C   UNL     1       4.051   6.451  18.159  0.00  0.00    +0.000 A 
ATOM      5  C   UNL     1       4.389   5.221  18.754  0.00  0.00    +0.000 A 
ATOM      6  C   UNL     1       5.499   4.316  18.704  0.00  0.00    +0.000 A 
ATOM      7  N   UNL     1       5.291   3.260  19.517  0.00  0.00    +0.000 NA
ATOM      8  N   UNL     1       4.068   3.475  20.031  0.00  0.00    +0.000 N 
ATOM      9  C   UNL     1       3.479   4.636  19.627  0.00  0.00    +0.000 A 
ATOM     10  H   UNL     1       3.676   2.785  20.663  0.00  0.00    +0.000 HD
ENDROOT
BRANCH   6  11
ATOM     11  C   UNL     1       6.696   4.442  17.842  0.00  0.00    +0.000 C 
ATOM     12  O   UNL     1       7.835   4.509  18.306  0.00  0.00    +0.000 OA
ATOM     13  N   UNL     1       6.473   4.541  16.487  0.00  0.00    +0.000 N 
ATOM     14  C   UNL     1       7.436   4.709  15.409  0.00  0.00    +0.000 C 
ATOM     15  C   UNL     1       6.197   4.619  14.470  0.00  0.00    +0.000 C 
ATOM     16  C   UNL     1       5.539   3.820  15.627  0.00  0.00    +0.000 C 
BRANCH  15  17
ATOM     17  C   UNL     1       6.425   3.839  13.193  0.00  0.00    +0.000 C 
ATOM     18  F   UNL     1       5.220   3.661  12.587  0.00  0.00    +0.000 F 
ATOM     19  F   UNL     1       7.199   4.540  12.328  0.00  0.00    +0.000 F 
ENDBRANCH  15  17
BRANCH  15  20
ATOM     20  O   UNL     1       5.534   5.889  14.161  0.00  0.00    +0.000 OA
ATOM     21  H   UNL     1       4.583   5.710  14.277  0.00  0.00    +0.000 HD
ENDBRANCH  15  20
ENDBRANCH   6  11
BRANCH   1  23
ATOM     22  C   UNL     1       0.684   3.438  20.206  0.00  0.00    +0.000 C 
ATOM     23  O   UNL     1       1.416   4.508  20.803  0.00  0.00    +0.000 OA
ENDBRANCH   1  23
TORSDOF 4
ENDMDL
MODEL 4
REMARK VINA RESULT:      -7.1      3.311      4.492
REMARK  Name = 
REMARK  5 active torsions:
REMARK  status: ('A' for Active; 'I' for Inactive)
REMARK    1  A    between atoms: C_1  and  O_2
REMARK    2  A    between atoms: O_2  and  C_3
REMARK    3  A    between atoms: C_8  and  C_9
REMARK    4  A    between atoms: C_13  and  O_14
REMARK    5  A    between atoms: C_13  and  C_15
REMARK                            x       y       z     vdW  Elec       q    Type
REMARK                         _______ _______ _______ _____ _____    ______ ____
ROOT
ATOM      1  C   UNL     1       1.247   9.473  20.440  0.00  0.00    +0.000 A 
ATOM      2  C   UNL     1       1.251  10.314  19.321  0.00  0.00    +0.000 A 
ATOM      3  C   UNL     1       1.542   9.823  18.047  0.00  0.00    +0.000 A 
ATOM      4  C   UNL     1       1.854   8.473  17.850  0.00  0.00    +0.000 A 
ATOM      5  C   UNL     1       1.905   7.616  18.965  0.00  0.00    +0.000 A 
ATOM      6  C   UNL     1       2.191   6.230  19.193  0.00  0.00    +0.000 A 
ATOM      7  N   UNL     1       2.103   5.935  20.507  0.00  0.00    +0.000 NA
ATOM      8  N   UNL     1       1.731   7.091  21.081  0.00  0.00    +0.000 N 
ATOM      9  C   UNL     1       1.608   8.140  20.217  0.00  0.00    +0.000 A 
ATOM     10  H   UNL     1       1.571   7.110  22.082  0.00  0.00    +0.000 HD
ENDROOT
BRANCH   6  11
ATOM     11  C   UNL     1       2.478   5.211  18.159  0.00  0.00    +0.000 C 
ATOM     12  O   UNL     1       1.583   4.617  17.556  0.00  0.00    +0.000 OA
ATOM     13  N   UNL     1       3.803   4.911  17.939  0.00  0.00    +0.000 N 
ATOM     14  C   UNL     1       4.385   3.939  17.025  0.00  0.00    +0.000 C 
ATOM     15  C   UNL     1       5.754   4.485  17.530  0.00  0.00    +0.000 C 
ATOM     16  C   UNL     1       4.970   5.785  17.854  0.00  0.00    +0.000 C 
BRANCH  15  17
ATOM     17  C   UNL     1       6.816   4.620  16.460  0.00  0.00    +0.000 C 
ATOM     18  F   UNL     1       8.024   4.354  17.028  0.00  0.00    +0.000 F 
ATOM     19  F   UNL     1       6.635   3.702  15.479  0.00  0.00    +0.000 F 
ENDBRANCH  15  17
BRANCH  15  20
ATOM     20  O   UNL     1       6.318   3.813  18.704  0.00  0.00    +0.000 OA
ATOM     21  H   UNL     1       7.209   3.532  18.427  0.00  0.00    +0.000 HD
ENDBRANCH  15  20
ENDBRANCH   6  11
BRANCH   1  23
ATOM     22  C   UNL     1      -0.429   9.842  22.050  0.00  0.00    +0.000 C 
ATOM     23  O   UNL     1       0.959   9.865  21.719  0.00  0.00    +0.000 OA
ENDBRANCH   1  23
TORSDOF 4
ENDMDL
MODEL 5
REMARK VINA RESULT:      -7.1      1.667      2.115
REMARK  Name = 
REMARK  5 active torsions:
REMARK  status: ('A' for Active; 'I' for Inactive)
REMARK    1  A    between atoms: C_1  and  O_2
REMARK    2  A    between atoms: O_2  and  C_3
REMARK    3  A    between atoms: C_8  and  C_9
REMARK    4  A    between atoms: C_13  and  O_14
REMARK    5  A    between atoms: C_13  and  C_15
REMARK                            x       y       z     vdW  Elec       q    Type
REMARK                         _______ _______ _______ _____ _____    ______ ____
ROOT
ATOM      1  C   UNL     1       3.190   5.209  19.868  0.00  0.00    +0.000 A 
ATOM      2  C   UNL     1       2.351   6.229  19.402  0.00  0.00    +0.000 A 
ATOM      3  C   UNL     1       2.682   6.978  18.271  0.00  0.00    +0.000 A 
ATOM      4  C   UNL     1       3.872   6.742  17.574  0.00  0.00    +0.000 A 
ATOM      5  C   UNL     1       4.756   5.755  18.049  0.00  0.00    +0.000 A 
ATOM      6  C   UNL     1       6.033   5.234  17.659  0.00  0.00    +0.000 A 
ATOM      7  N   UNL     1       6.436   4.271  18.513  0.00  0.00    +0.000 NA
ATOM      8  N   UNL     1       5.424   4.161  19.389  0.00  0.00    +0.000 N 
ATOM      9  C   UNL     1       4.393   5.029  19.177  0.00  0.00    +0.000 A 
ATOM     10  H   UNL     1       5.487   3.466  20.125  0.00  0.00    +0.000 HD
ENDROOT
BRANCH   6  11
ATOM     11  C   UNL     1       6.807   5.616  16.456  0.00  0.00    +0.000 C 
ATOM     12  O   UNL     1       7.659   6.505  16.479  0.00  0.00    +0.000 OA
ATOM     13  N   UNL     1       6.489   4.967  15.285  0.00  0.00    +0.000 N 
ATOM     14  C   UNL     1       7.044   5.152  13.953  0.00  0.00    +0.000 C 
ATOM     15  C   UNL     1       6.100   3.982  13.544  0.00  0.00    +0.000 C 
ATOM     16  C   UNL     1       6.190   3.559  15.035  0.00  0.00    +0.000 C 
BRANCH  15  17
ATOM     17  C   UNL     1       6.698   3.002  12.557  0.00  0.00    +0.000 C 
ATOM     18  F   UNL     1       5.677   2.319  11.971  0.00  0.00    +0.000 F 
ATOM     19  F   UNL     1       7.354   3.653  11.565  0.00  0.00    +0.000 F 
ENDBRANCH  15  17
BRANCH  15  20
ATOM     20  O   UNL     1       4.756   4.366  13.106  0.00  0.00    +0.000 OA
ATOM     21  H   UNL     1       4.763   5.341  13.100  0.00  0.00    +0.000 HD
ENDBRANCH  15  20
ENDBRANCH   6  11
BRANCH   1  23
ATOM     22  C   UNL     1       2.096   3.296  20.693  0.00  0.00    +0.000 C 
ATOM     23  O   UNL     1       2.938   4.418  20.956  0.00  0.00    +0.000 OA
ENDBRANCH   1  23
TORSDOF 4
ENDMDL
MODEL 6
REMARK VINA RESULT:      -7.0      3.756      6.454
REMARK  Name = 
REMARK  5 active torsions:
REMARK  status: ('A' for Active; 'I' for Inactive)
REMARK    1  A    between atoms: C_1  and  O_2
REMARK    2  A    between atoms: O_2  and  C_3
REMARK    3  A    between atoms: C_8  and  C_9
REMARK    4  A    between atoms: C_13  and  O_14
REMARK    5  A    between atoms: C_13  and  C_15
REMARK                            x       y       z     vdW  Elec       q    Type
REMARK                         _______ _______ _______ _____ _____    ______ ____
ROOT
ATOM      1  C   UNL     1       7.755   7.831  17.919  0.00  0.00    +0.000 A 
ATOM      2  C   UNL     1       8.410   7.207  18.988  0.00  0.00    +0.000 A 
ATOM      3  C   UNL     1       8.139   5.881  19.328  0.00  0.00    +0.000 A 
ATOM      4  C   UNL     1       7.191   5.134  18.619  0.00  0.00    +0.000 A 
ATOM      5  C   UNL     1       6.484   5.752  17.571  0.00  0.00    +0.000 A 
ATOM      6  C   UNL     1       5.460   5.367  16.644  0.00  0.00    +0.000 A 
ATOM      7  N   UNL     1       5.133   6.399  15.839  0.00  0.00    +0.000 NA
ATOM      8  N   UNL     1       5.957   7.389  16.220  0.00  0.00    +0.000 N 
ATOM      9  C   UNL     1       6.781   7.073  17.260  0.00  0.00    +0.000 A 
ATOM     10  H   UNL     1       5.916   8.276  15.728  0.00  0.00    +0.000 HD
ENDROOT
BRANCH   6  11
ATOM     11  C   UNL     1       4.864   4.020  16.505  0.00  0.00    +0.000 C 
ATOM     12  O   UNL     1       5.408   3.125  15.857  0.00  0.00    +0.000 OA
ATOM     13  N   UNL     1       3.632   3.826  17.089  0.00  0.00    +0.000 N 
ATOM     14  C   UNL     1       2.793   2.637  17.089  0.00  0.00    +0.000 C 
ATOM     15  C   UNL     1       1.843   3.473  17.996  0.00  0.00    +0.000 C 
ATOM     16  C   UNL     1       3.119   4.266  18.383  0.00  0.00    +0.000 C 
BRANCH  15  17
ATOM     17  C   UNL     1       1.199   2.695  19.125  0.00  0.00    +0.000 C 
ATOM     18  F   UNL     1       0.503   3.572  19.899  0.00  0.00    +0.000 F 
ATOM     19  F   UNL     1       0.301   1.799  18.645  0.00  0.00    +0.000 F 
ENDBRANCH  15  17
BRANCH  15  20
ATOM     20  O   UNL     1       0.826   4.266  17.301  0.00  0.00    +0.000 OA
ATOM     21  H   UNL     1       0.487   3.680  16.600  0.00  0.00    +0.000 HD
ENDBRANCH  15  20
ENDBRANCH   6  11
BRANCH   1  23
ATOM     22  C   UNL     1       8.771   9.901  18.392  0.00  0.00    +0.000 C 
ATOM     23  O   UNL     1       7.970   9.118  17.507  0.00  0.00    +0.000 OA
ENDBRANCH   1  23
TORSDOF 4
ENDMDL
MODEL 7
REMARK VINA RESULT:      -6.8      1.430      1.909
REMARK  Name = 
REMARK  5 active torsions:
REMARK  status: ('A' for Active; 'I' for Inactive)
REMARK    1  A    between atoms: C_1  and  O_2
REMARK    2  A    between atoms: O_2  and  C_3
REMARK    3  A    between atoms: C_8  and  C_9
REMARK    4  A    between atoms: C_13  and  O_14
REMARK    5  A    between atoms: C_13  and  C_15
REMARK                            x       y       z     vdW  Elec       q    Type
REMARK                         _______ _______ _______ _____ _____    ______ ____
ROOT
ATOM      1  C   UNL     1       1.977   3.225  19.774  0.00  0.00    +0.000 A 
ATOM      2  C   UNL     1       1.704   2.160  18.907  0.00  0.00    +0.000 A 
ATOM      3  C   UNL     1       2.611   1.785  17.913  0.00  0.00    +0.000 A 
ATOM      4  C   UNL     1       3.819   2.471  17.744  0.00  0.00    +0.000 A 
ATOM      5  C   UNL     1       4.096   3.575  18.572  0.00  0.00    +0.000 A 
ATOM      6  C   UNL     1       5.163   4.524  18.711  0.00  0.00    +0.000 A 
ATOM      7  N   UNL     1       4.889   5.407  19.693  0.00  0.00    +0.000 NA
ATOM      8  N   UNL     1       3.707   5.001  20.184  0.00  0.00    +0.000 N 
ATOM      9  C   UNL     1       3.171   3.919  19.550  0.00  0.00    +0.000 A 
ATOM     10  H   UNL     1       3.303   5.505  20.966  0.00  0.00    +0.000 HD
ENDROOT
BRANCH   6  11
ATOM     11  C   UNL     1       6.435   4.530  17.956  0.00  0.00    +0.000 C 
ATOM     12  O   UNL     1       7.532   4.485  18.516  0.00  0.00    +0.000 OA
ATOM     13  N   UNL     1       6.340   4.648  16.588  0.00  0.00    +0.000 N 
ATOM     14  C   UNL     1       7.404   4.719  15.596  0.00  0.00    +0.000 C 
ATOM     15  C   UNL     1       6.247   4.750  14.555  0.00  0.00    +0.000 C 
ATOM     16  C   UNL     1       5.417   4.021  15.646  0.00  0.00    +0.000 C 
BRANCH  15  17
ATOM     17  C   UNL     1       6.506   3.948  13.296  0.00  0.00    +0.000 C 
ATOM     18  F   UNL     1       5.307   3.698  12.702  0.00  0.00    +0.000 F 
ATOM     19  F   UNL     1       7.241   4.663  12.410  0.00  0.00    +0.000 F 
ENDBRANCH  15  17
BRANCH  15  20
ATOM     20  O   UNL     1       5.740   6.078  14.199  0.00  0.00    +0.000 OA
ATOM     21  H   UNL     1       6.535   6.636  14.119  0.00  0.00    +0.000 HD
ENDBRANCH  15  20
ENDBRANCH   6  11
BRANCH   1  23
ATOM     22  C   UNL     1       1.282   2.918  22.002  0.00  0.00    +0.000 C 
ATOM     23  O   UNL     1       1.155   3.649  20.782  0.00  0.00    +0.000 OA
ENDBRANCH   1  23
TORSDOF 4
ENDMDL
MODEL 8
REMARK VINA RESULT:      -6.7      2.647      3.675
REMARK  Name = 
REMARK  5 active torsions:
REMARK  status: ('A' for Active; 'I' for Inactive)
REMARK    1  A    between atoms: C_1  and  O_2
REMARK    2  A    between atoms: O_2  and  C_3
REMARK    3  A    between atoms: C_8  and  C_9
REMARK    4  A    between atoms: C_13  and  O_14
REMARK    5  A    between atoms: C_13  and  C_15
REMARK                            x       y       z     vdW  Elec       q    Type
REMARK                         _______ _______ _______ _____ _____    ______ ____
ROOT
ATOM      1  C   UNL     1       1.531   8.363  20.520  0.00  0.00    +0.000 A 
ATOM      2  C   UNL     1       1.432   9.319  19.502  0.00  0.00    +0.000 A 
ATOM      3  C   UNL     1       1.672   8.984  18.168  0.00  0.00    +0.000 A 
ATOM      4  C   UNL     1       2.032   7.681  17.806  0.00  0.00    +0.000 A 
ATOM      5  C   UNL     1       2.184   6.712  18.816  0.00  0.00    +0.000 A 
ATOM      6  C   UNL     1       2.545   5.325  18.874  0.00  0.00    +0.000 A 
ATOM      7  N   UNL     1       2.545   4.887  20.150  0.00  0.00    +0.000 NA
ATOM      8  N   UNL     1       2.156   5.954  20.867  0.00  0.00    +0.000 N 
ATOM      9  C   UNL     1       1.937   7.082  20.132  0.00  0.00    +0.000 A 
ATOM     10  H   UNL     1       2.053   5.857  21.871  0.00  0.00    +0.000 HD
ENDROOT
BRANCH   6  11
ATOM     11  C   UNL     1       2.817   4.440  17.720  0.00  0.00    +0.000 C 
ATOM     12  O   UNL     1       1.980   3.645  17.290  0.00  0.00    +0.000 OA
ATOM     13  N   UNL     1       4.081   4.503  17.179  0.00  0.00    +0.000 N 
ATOM     14  C   UNL     1       4.647   3.738  16.077  0.00  0.00    +0.000 C 
ATOM     15  C   UNL     1       5.916   4.613  16.300  0.00  0.00    +0.000 C 
ATOM     16  C   UNL     1       4.935   5.654  16.902  0.00  0.00    +0.000 C 
BRANCH  15  17
ATOM     17  C   UNL     1       6.618   5.045  15.030  0.00  0.00    +0.000 C 
ATOM     18  F   UNL     1       7.938   4.735  15.151  0.00  0.00    +0.000 F 
ATOM     19  F   UNL     1       6.151   4.355  13.960  0.00  0.00    +0.000 F 
ENDBRANCH  15  17
BRANCH  15  20
ATOM     20  O   UNL     1       6.898   4.088  17.252  0.00  0.00    +0.000 OA
ATOM     21  H   UNL     1       6.520   4.276  18.131  0.00  0.00    +0.000 HD
ENDBRANCH  15  20
ENDBRANCH   6  11
BRANCH   1  23
ATOM     22  C   UNL     1       0.076   9.281  22.126  0.00  0.00    +0.000 C 
ATOM     23  O   UNL     1       1.299   8.600  21.848  0.00  0.00    +0.000 OA
ENDBRANCH   1  23
TORSDOF 4
ENDMDL
MODEL 9
REMARK VINA RESULT:      -6.5      3.853      6.774
REMARK  Name = 
REMARK  5 active torsions:
REMARK  status: ('A' for Active; 'I' for Inactive)
REMARK    1  A    between atoms: C_1  and  O_2
REMARK    2  A    between atoms: O_2  and  C_3
REMARK    3  A    between atoms: C_8  and  C_9
REMARK    4  A    between atoms: C_13  and  O_14
REMARK    5  A    between atoms: C_13  and  C_15
REMARK                            x       y       z     vdW  Elec       q    Type
REMARK                         _______ _______ _______ _____ _____    ______ ____
ROOT
ATOM      1  C   UNL     1       7.607   7.454  17.802  0.00  0.00    +0.000 A 
ATOM      2  C   UNL     1       8.341   6.907  18.862  0.00  0.00    +0.000 A 
ATOM      3  C   UNL     1       7.931   5.731  19.495  0.00  0.00    +0.000 A 
ATOM      4  C   UNL     1       6.764   5.068  19.098  0.00  0.00    +0.000 A 
ATOM      5  C   UNL     1       5.983   5.623  18.067  0.00  0.00    +0.000 A 
ATOM      6  C   UNL     1       4.760   5.287  17.399  0.00  0.00    +0.000 A 
ATOM      7  N   UNL     1       4.458   6.211  16.464  0.00  0.00    +0.000 NA
ATOM      8  N   UNL     1       5.482   7.078  16.513  0.00  0.00    +0.000 N 
ATOM      9  C   UNL     1       6.423   6.793  17.460  0.00  0.00    +0.000 A 
ATOM     10  H   UNL     1       5.492   7.861  15.869  0.00  0.00    +0.000 HD
ENDROOT
BRANCH   6  11
ATOM     11  C   UNL     1       3.944   4.072  17.621  0.00  0.00    +0.000 C 
ATOM     12  O   UNL     1       3.907   3.149  16.806  0.00  0.00    +0.000 OA
ATOM     13  N   UNL     1       3.176   4.044  18.762  0.00  0.00    +0.000 N 
ATOM     14  C   UNL     1       2.257   3.014  19.225  0.00  0.00    +0.000 C 
ATOM     15  C   UNL     1       2.077   3.927  20.474  0.00  0.00    +0.000 C 
ATOM     16  C   UNL     1       3.489   4.466  20.125  0.00  0.00    +0.000 C 
BRANCH  15  17
ATOM     17  C   UNL     1       1.974   3.186  21.790  0.00  0.00    +0.000 C 
ATOM     18  F   UNL     1       0.773   2.547  21.822  0.00  0.00    +0.000 F 
ATOM     19  F   UNL     1       2.930   2.229  21.883  0.00  0.00    +0.000 F 
ENDBRANCH  15  17
BRANCH  15  20
ATOM     20  O   UNL     1       1.010   4.929  20.387  0.00  0.00    +0.000 OA
ATOM     21  H   UNL     1       0.431   4.616  19.668  0.00  0.00    +0.000 HD
ENDBRANCH  15  20
ENDBRANCH   6  11
BRANCH   1  23
ATOM     22  C   UNL     1       8.394   9.668  17.934  0.00  0.00    +0.000 C 
ATOM     23  O   UNL     1       7.943   8.589  17.116  0.00  0.00    +0.000 OA
ENDBRANCH   1  23
TORSDOF 4
ENDMDL
