MODEL 1
REMARK VINA RESULT:      -8.0      0.000      0.000
REMARK  Name = 
REMARK  5 active torsions:
REMARK  status: ('A' for Active; 'I' for Inactive)
REMARK    1  A    between atoms: C_1  and  C_2
REMARK    2  A    between atoms: C_2  and  C_3
REMARK    3  A    between atoms: C_2  and  C_4
REMARK    4  A    between atoms: C_14  and  C_15
REMARK    5  A    between atoms: C_19  and  N_20
REMARK                            x       y       z     vdW  Elec       q    Type
REMARK                         _______ _______ _______ _____ _____    ______ ____
ROOT
ATOM      1  C   UNL     1       2.117   7.026  19.491  0.00  0.00    +0.000 A 
ATOM      2  N   UNL     1       2.778   6.120  18.793  0.00  0.00    +0.000 NA
ATOM      3  C   UNL     1       2.526   4.883  19.317  0.00  0.00    +0.000 A 
ATOM      4  C   UNL     1       1.663   4.824  20.394  0.00  0.00    +0.000 A 
ATOM      5  S   UNL     1       1.135   6.395  20.779  0.00  0.00    +0.000 S 
ATOM      6  C   UNL     1       1.308   3.560  21.148  0.00  0.00    +0.000 C 
ATOM      7  C   UNL     1       1.476   2.282  20.267  0.00  0.00    +0.000 C 
ATOM      8  C   UNL     1       2.585   2.469  19.296  0.00  0.00    +0.000 A 
ATOM      9  O   UNL     1       3.213   1.433  18.706  0.00  0.00    +0.000 OA
ATOM     10  N   UNL     1       4.155   1.942  17.814  0.00  0.00    +0.000 NA
ATOM     11  C   UNL     1       4.077   3.290  17.886  0.00  0.00    +0.000 A 
ATOM     12  C   UNL     1       3.083   3.649  18.813  0.00  0.00    +0.000 A 
ENDROOT
BRANCH  11  13
ATOM     13  C   UNL     1       4.961   4.139  17.091  0.00  0.00    +0.000 A 
ATOM     14  C   UNL     1       4.977   4.030  15.692  0.00  0.00    +0.000 A 
ATOM     15  C   UNL     1       5.830   4.829  14.923  0.00  0.00    +0.000 A 
ATOM     16  C   UNL     1       6.676   5.748  15.544  0.00  0.00    +0.000 A 
ATOM     17  C   UNL     1       6.665   5.859  16.939  0.00  0.00    +0.000 A 
ATOM     18  C   UNL     1       5.821   5.054  17.710  0.00  0.00    +0.000 A 
BRANCH  17  19
ATOM     19  N   UNL     1       7.553   6.818  17.609  0.00  0.00    +0.000 N 
ATOM     20  O   UNL     1       8.005   6.500  18.719  0.00  0.00    +0.000 OA
ATOM     21  O   UNL     1       7.797   7.887  17.034  0.00  0.00    +0.000 OA
ENDBRANCH  17  19
ENDBRANCH  11  13
BRANCH   1  23
ATOM     22  C   UNL     1       2.125   8.817  17.736  0.00  0.00    +0.000 C 
ATOM     23  C   UNL     1       2.175   8.514  19.235  0.00  0.00    +0.000 C 
ATOM     24  C   UNL     1       1.032   9.245  19.947  0.00  0.00    +0.000 C 
ENDBRANCH   1  23
TORSDOF 3
ENDMDL
MODEL 2
REMARK VINA RESULT:      -7.5      1.725      2.128
REMARK  Name = 
REMARK  5 active torsions:
REMARK  status: ('A' for Active; 'I' for Inactive)
REMARK    1  A    between atoms: C_1  and  C_2
REMARK    2  A    between atoms: C_2  and  C_3
REMARK    3  A    between atoms: C_2  and  C_4
REMARK    4  A    between atoms: C_14  and  C_15
REMARK    5  A    between atoms: C_19  and  N_20
REMARK                            x       y       z     vdW  Elec       q    Type
REMARK                         _______ _______ _______ _____ _____    ______ ____
ROOT
ATOM      1  C   UNL     1       2.178   7.188  19.636  0.00  0.00    +0.000 A 
ATOM      2  N   UNL     1       3.075   6.322  19.199  0.00  0.00    +0.000 NA
ATOM      3  C   UNL     1       2.910   5.139  19.861  0.00  0.00    +0.000 A 
ATOM      4  C   UNL     1       1.885   5.076  20.785  0.00  0.00    +0.000 A 
ATOM      5  S   UNL     1       1.080   6.573  20.835  0.00  0.00    +0.000 S 
ATOM      6  C   UNL     1       1.582   3.878  21.659  0.00  0.00    +0.000 C 
ATOM      7  C   UNL     1       2.084   2.542  21.024  0.00  0.00    +0.000 C 
ATOM      8  C   UNL     1       3.312   2.785  20.223  0.00  0.00    +0.000 A 
ATOM      9  O   UNL     1       4.176   1.800  19.906  0.00  0.00    +0.000 OA
ATOM     10  N   UNL     1       5.181   2.339  19.106  0.00  0.00    +0.000 NA
ATOM     11  C   UNL     1       4.903   3.654  18.956  0.00  0.00    +0.000 A 
ATOM     12  C   UNL     1       3.718   3.959  19.648  0.00  0.00    +0.000 A 
ENDROOT
BRANCH  11  13
ATOM     13  C   UNL     1       5.786   4.528  18.189  0.00  0.00    +0.000 A 
ATOM     14  C   UNL     1       6.454   5.590  18.820  0.00  0.00    +0.000 A 
ATOM     15  C   UNL     1       7.291   6.442  18.092  0.00  0.00    +0.000 A 
ATOM     16  C   UNL     1       7.472   6.241  16.723  0.00  0.00    +0.000 A 
ATOM     17  C   UNL     1       6.807   5.186  16.088  0.00  0.00    +0.000 A 
ATOM     18  C   UNL     1       5.962   4.339  16.813  0.00  0.00    +0.000 A 
BRANCH  17  19
ATOM     19  N   UNL     1       6.982   4.963  14.648  0.00  0.00    +0.000 N 
ATOM     20  O   UNL     1       7.901   5.576  14.082  0.00  0.00    +0.000 OA
ATOM     21  O   UNL     1       6.207   4.183  14.079  0.00  0.00    +0.000 OA
ENDBRANCH  17  19
ENDBRANCH  11  13
BRANCH   1  23
ATOM     22  C   UNL     1       1.858   8.688  17.652  0.00  0.00    +0.000 C 
ATOM     23  C   UNL     1       2.071   8.621  19.166  0.00  0.00    +0.000 C 
ATOM     24  C   UNL     1       0.932   9.355  19.880  0.00  0.00    +0.000 C 
ENDBRANCH   1  23
TORSDOF 3
ENDMDL
MODEL 3
REMARK VINA RESULT:      -7.4      1.760      2.076
REMARK  Name = 
REMARK  5 active torsions:
REMARK  status: ('A' for Active; 'I' for Inactive)
REMARK    1  A    between atoms: C_1  and  C_2
REMARK    2  A    between atoms: C_2  and  C_3
REMARK    3  A    between atoms: C_2  and  C_4
REMARK    4  A    between atoms: C_14  and  C_15
REMARK    5  A    between atoms: C_19  and  N_20
REMARK                            x       y       z     vdW  Elec       q    Type
REMARK                         _______ _______ _______ _____ _____    ______ ____
ROOT
ATOM      1  C   UNL     1       2.130   6.984  19.483  0.00  0.00    +0.000 A 
ATOM      2  N   UNL     1       2.864   6.095  18.839  0.00  0.00    +0.000 NA
ATOM      3  C   UNL     1       2.547   4.845  19.291  0.00  0.00    +0.000 A 
ATOM      4  C   UNL     1       1.564   4.759  20.258  0.00  0.00    +0.000 A 
ATOM      5  S   UNL     1       1.001   6.322  20.628  0.00  0.00    +0.000 S 
ATOM      6  C   UNL     1       1.118   3.476  20.925  0.00  0.00    +0.000 C 
ATOM      7  C   UNL     1       1.382   2.224  20.029  0.00  0.00    +0.000 C 
ATOM      8  C   UNL     1       2.598   2.432  19.201  0.00  0.00    +0.000 A 
ATOM      9  O   UNL     1       3.286   1.410  18.656  0.00  0.00    +0.000 OA
ATOM     10  N   UNL     1       4.328   1.938  17.896  0.00  0.00    +0.000 NA
ATOM     11  C   UNL     1       4.249   3.284  18.001  0.00  0.00    +0.000 A 
ATOM     12  C   UNL     1       3.154   3.622  18.817  0.00  0.00    +0.000 A 
ENDROOT
BRANCH  11  13
ATOM     13  C   UNL     1       5.223   4.150  17.343  0.00  0.00    +0.000 A 
ATOM     14  C   UNL     1       5.859   5.175  18.060  0.00  0.00    +0.000 A 
ATOM     15  C   UNL     1       6.783   6.019  17.435  0.00  0.00    +0.000 A 
ATOM     16  C   UNL     1       7.083   5.846  16.083  0.00  0.00    +0.000 A 
ATOM     17  C   UNL     1       6.450   4.827  15.362  0.00  0.00    +0.000 A 
ATOM     18  C   UNL     1       5.519   3.989  15.984  0.00  0.00    +0.000 A 
BRANCH  17  19
ATOM     19  N   UNL     1       6.752   4.635  13.938  0.00  0.00    +0.000 N 
ATOM     20  O   UNL     1       6.150   3.729  13.343  0.00  0.00    +0.000 OA
ATOM     21  O   UNL     1       7.587   5.383  13.413  0.00  0.00    +0.000 OA
ENDBRANCH  17  19
ENDBRANCH  11  13
BRANCH   1  23
ATOM     22  C   UNL     1       2.177   8.839  17.797  0.00  0.00    +0.000 C 
ATOM     23  C   UNL     1       2.223   8.480  19.283  0.00  0.00    +0.000 C 
ATOM     24  C   UNL     1       1.101   9.210  20.027  0.00  0.00    +0.000 C 
ENDBRANCH   1  23
TORSDOF 3
ENDMDL
MODEL 4
REMARK VINA RESULT:      -7.3      4.361      7.286
REMARK  Name = 
REMARK  5 active torsions:
REMARK  status: ('A' for Active; 'I' for Inactive)
REMARK    1  A    between atoms: C_1  and  C_2
REMARK    2  A    between atoms: C_2  and  C_3
REMARK    3  A    between atoms: C_2  and  C_4
REMARK    4  A    between atoms: C_14  and  C_15
REMARK    5  A    between atoms: C_19  and  N_20
REMARK                            x       y       z     vdW  Elec       q    Type
REMARK                         _______ _______ _______ _____ _____    ______ ____
ROOT
ATOM      1  C   UNL     1      -2.332  11.346  18.468  0.00  0.00    +0.000 A 
ATOM      2  N   UNL     1      -1.407  10.621  19.072  0.00  0.00    +0.000 NA
ATOM      3  C   UNL     1      -1.321  11.008  20.379  0.00  0.00    +0.000 A 
ATOM      4  C   UNL     1      -2.183  12.004  20.795  0.00  0.00    +0.000 A 
ATOM      5  S   UNL     1      -3.156  12.489  19.486  0.00  0.00    +0.000 S 
ATOM      6  C   UNL     1      -2.200  12.608  22.183  0.00  0.00    +0.000 C 
ATOM      7  C   UNL     1      -1.632  11.628  23.259  0.00  0.00    +0.000 C 
ATOM      8  C   UNL     1      -0.576  10.769  22.664  0.00  0.00    +0.000 A 
ATOM      9  O   UNL     1       0.349  10.136  23.412  0.00  0.00    +0.000 OA
ATOM     10  N   UNL     1       1.149   9.372  22.566  0.00  0.00    +0.000 NA
ATOM     11  C   UNL     1       0.688   9.562  21.310  0.00  0.00    +0.000 A 
ATOM     12  C   UNL     1      -0.412  10.437  21.346  0.00  0.00    +0.000 A 
ENDROOT
BRANCH  11  13
ATOM     13  C   UNL     1       1.331   8.920  20.166  0.00  0.00    +0.000 A 
ATOM     14  C   UNL     1       1.432   9.596  18.940  0.00  0.00    +0.000 A 
ATOM     15  C   UNL     1       2.033   8.985  17.834  0.00  0.00    +0.000 A 
ATOM     16  C   UNL     1       2.543   7.691  17.942  0.00  0.00    +0.000 A 
ATOM     17  C   UNL     1       2.443   7.012  19.162  0.00  0.00    +0.000 A 
ATOM     18  C   UNL     1       1.833   7.617  20.265  0.00  0.00    +0.000 A 
BRANCH  17  19
ATOM     19  N   UNL     1       2.970   5.647  19.292  0.00  0.00    +0.000 N 
ATOM     20  O   UNL     1       2.200   4.710  19.039  0.00  0.00    +0.000 OA
ATOM     21  O   UNL     1       4.149   5.509  19.646  0.00  0.00    +0.000 OA
ENDBRANCH  17  19
ENDBRANCH  11  13
BRANCH   1  23
ATOM     22  C   UNL     1      -2.277   9.872  16.440  0.00  0.00    +0.000 C 
ATOM     23  C   UNL     1      -2.688  11.234  17.004  0.00  0.00    +0.000 C 
ATOM     24  C   UNL     1      -4.187  11.455  16.778  0.00  0.00    +0.000 C 
ENDBRANCH   1  23
TORSDOF 3
ENDMDL
MODEL 5
REMARK VINA RESULT:      -6.7      1.901      2.140
REMARK  Name = 
REMARK  5 active torsions:
REMARK  status: ('A' for Active; 'I' for Inactive)
REMARK    1  A    between atoms: C_1  and  C_2
REMARK    2  A    between atoms: C_2  and  C_3
REMARK    3  A    between atoms: C_2  and  C_4
REMARK    4  A    between atoms: C_14  and  C_15
REMARK    5  A    between atoms: C_19  and  N_20
REMARK                            x       y       z     vdW  Elec       q    Type
REMARK                         _______ _______ _______ _____ _____    ______ ____
ROOT
ATOM      1  C   UNL     1       1.895   7.231  19.752  0.00  0.00    +0.000 A 
ATOM      2  N   UNL     1       2.501   6.399  18.923  0.00  0.00    +0.000 NA
ATOM      3  C   UNL     1       2.419   5.131  19.426  0.00  0.00    +0.000 A 
ATOM      4  C   UNL     1       1.740   4.973  20.619  0.00  0.00    +0.000 A 
ATOM      5  S   UNL     1       1.171   6.487  21.147  0.00  0.00    +0.000 S 
ATOM      6  C   UNL     1       1.593   3.663  21.363  0.00  0.00    +0.000 C 
ATOM      7  C   UNL     1       1.710   2.430  20.413  0.00  0.00    +0.000 C 
ATOM      8  C   UNL     1       2.639   2.730  19.293  0.00  0.00    +0.000 A 
ATOM      9  O   UNL     1       3.238   1.763  18.570  0.00  0.00    +0.000 OA
ATOM     10  N   UNL     1       3.992   2.368  17.568  0.00  0.00    +0.000 NA
ATOM     11  C   UNL     1       3.835   3.704  17.708  0.00  0.00    +0.000 A 
ATOM     12  C   UNL     1       2.975   3.958  18.791  0.00  0.00    +0.000 A 
ENDROOT
BRANCH  11  13
ATOM     13  C   UNL     1       4.524   4.641  16.826  0.00  0.00    +0.000 A 
ATOM     14  C   UNL     1       4.374   6.025  17.005  0.00  0.00    +0.000 A 
ATOM     15  C   UNL     1       5.018   6.931  16.156  0.00  0.00    +0.000 A 
ATOM     16  C   UNL     1       5.824   6.463  15.117  0.00  0.00    +0.000 A 
ATOM     17  C   UNL     1       5.976   5.084  14.932  0.00  0.00    +0.000 A 
ATOM     18  C   UNL     1       5.324   4.177  15.774  0.00  0.00    +0.000 A 
BRANCH  17  19
ATOM     19  N   UNL     1       6.816   4.575  13.841  0.00  0.00    +0.000 N 
ATOM     20  O   UNL     1       7.868   5.184  13.597  0.00  0.00    +0.000 OA
ATOM     21  O   UNL     1       6.430   3.572  13.226  0.00  0.00    +0.000 OA
ENDBRANCH  17  19
ENDBRANCH  11  13
BRANCH   1  23
ATOM     22  C   UNL     1       1.718   9.081  18.069  0.00  0.00    +0.000 C 
ATOM     23  C   UNL     1       1.811   8.727  19.555  0.00  0.00    +0.000 C 
ATOM     24  C   UNL     1       0.612   9.318  20.303  0.00  0.00    +0.000 C 
ENDBRANCH   1  23
TORSDOF 3
ENDMDL
MODEL 6
REMARK VINA RESULT:      -6.7      6.917      9.824
REMARK  Name = 
REMARK  5 active torsions:
REMARK  status: ('A' for Active; 'I' for Inactive)
REMARK    1  A    between atoms: C_1  and  C_2
REMARK    2  A    between atoms: C_2  and  C_3
REMARK    3  A    between atoms: C_2  and  C_4
REMARK    4  A    between atoms: C_14  and  C_15
REMARK    5  A    between atoms: C_19  and  N_20
REMARK                            x       y       z     vdW  Elec       q    Type
REMARK                         _______ _______ _______ _____ _____    ______ ____
ROOT
ATOM      1  C   UNL     1      -4.135  12.935  21.802  0.00  0.00    +0.000 A 
ATOM      2  N   UNL     1      -3.486  12.646  20.688  0.00  0.00    +0.000 NA
ATOM      3  C   UNL     1      -4.381  12.205  19.753  0.00  0.00    +0.000 A 
ATOM      4  C   UNL     1      -5.711  12.175  20.126  0.00  0.00    +0.000 A 
ATOM      5  S   UNL     1      -5.859  12.722  21.730  0.00  0.00    +0.000 S 
ATOM      6  C   UNL     1      -6.840  11.665  19.256  0.00  0.00    +0.000 C 
ATOM      7  C   UNL     1      -6.503  11.764  17.734  0.00  0.00    +0.000 C 
ATOM      8  C   UNL     1      -5.044  11.577  17.518  0.00  0.00    +0.000 A 
ATOM      9  O   UNL     1      -4.530  11.214  16.327  0.00  0.00    +0.000 OA
ATOM     10  N   UNL     1      -3.142  11.183  16.439  0.00  0.00    +0.000 NA
ATOM     11  C   UNL     1      -2.842  11.530  17.711  0.00  0.00    +0.000 A 
ATOM     12  C   UNL     1      -4.032  11.793  18.413  0.00  0.00    +0.000 A 
ENDROOT
BRANCH  11  13
ATOM     13  C   UNL     1      -1.458  11.567  18.176  0.00  0.00    +0.000 A 
ATOM     14  C   UNL     1      -0.795  12.794  18.329  0.00  0.00    +0.000 A 
ATOM     15  C   UNL     1       0.535  12.840  18.760  0.00  0.00    +0.000 A 
ATOM     16  C   UNL     1       1.218  11.657  19.046  0.00  0.00    +0.000 A 
ATOM     17  C   UNL     1       0.562  10.430  18.893  0.00  0.00    +0.000 A 
ATOM     18  C   UNL     1      -0.765  10.382  18.453  0.00  0.00    +0.000 A 
BRANCH  17  19
ATOM     19  N   UNL     1       1.267   9.176  19.186  0.00  0.00    +0.000 N 
ATOM     20  O   UNL     1       1.919   8.658  18.266  0.00  0.00    +0.000 OA
ATOM     21  O   UNL     1       1.171   8.705  20.327  0.00  0.00    +0.000 OA
ENDBRANCH  17  19
ENDBRANCH  11  13
BRANCH   1  23
ATOM     22  C   UNL     1      -3.923  12.577  24.275  0.00  0.00    +0.000 C 
ATOM     23  C   UNL     1      -3.479  13.417  23.075  0.00  0.00    +0.000 C 
ATOM     24  C   UNL     1      -1.952  13.385  22.959  0.00  0.00    +0.000 C 
ENDBRANCH   1  23
TORSDOF 3
ENDMDL
MODEL 7
REMARK VINA RESULT:      -6.6      3.231      6.047
REMARK  Name = 
REMARK  5 active torsions:
REMARK  status: ('A' for Active; 'I' for Inactive)
REMARK    1  A    between atoms: C_1  and  C_2
REMARK    2  A    between atoms: C_2  and  C_3
REMARK    3  A    between atoms: C_2  and  C_4
REMARK    4  A    between atoms: C_14  and  C_15
REMARK    5  A    between atoms: C_19  and  N_20
REMARK                            x       y       z     vdW  Elec       q    Type
REMARK                         _______ _______ _______ _____ _____    ______ ____
ROOT
ATOM      1  C   UNL     1       2.662   3.060  19.127  0.00  0.00    +0.000 A 
ATOM      2  N   UNL     1       2.693   4.323  18.741  0.00  0.00    +0.000 NA
ATOM      3  C   UNL     1       3.705   4.488  17.838  0.00  0.00    +0.000 A 
ATOM      4  C   UNL     1       4.438   3.365  17.507  0.00  0.00    +0.000 A 
ATOM      5  S   UNL     1       3.836   2.026  18.367  0.00  0.00    +0.000 S 
ATOM      6  C   UNL     1       5.631   3.355  16.575  0.00  0.00    +0.000 C 
ATOM      7  C   UNL     1       5.591   4.537  15.554  0.00  0.00    +0.000 C 
ATOM      8  C   UNL     1       4.936   5.722  16.166  0.00  0.00    +0.000 A 
ATOM      9  O   UNL     1       5.116   6.972  15.696  0.00  0.00    +0.000 OA
ATOM     10  N   UNL     1       4.325   7.840  16.445  0.00  0.00    +0.000 NA
ATOM     11  C   UNL     1       3.678   7.090  17.365  0.00  0.00    +0.000 A 
ATOM     12  C   UNL     1       4.042   5.742  17.203  0.00  0.00    +0.000 A 
ENDROOT
BRANCH  11  13
ATOM     13  C   UNL     1       2.781   7.702  18.341  0.00  0.00    +0.000 A 
ATOM     14  C   UNL     1       2.586   7.105  19.596  0.00  0.00    +0.000 A 
ATOM     15  C   UNL     1       1.717   7.676  20.533  0.00  0.00    +0.000 A 
ATOM     16  C   UNL     1       1.035   8.853  20.225  0.00  0.00    +0.000 A 
ATOM     17  C   UNL     1       1.224   9.452  18.975  0.00  0.00    +0.000 A 
ATOM     18  C   UNL     1       2.083   8.877  18.033  0.00  0.00    +0.000 A 
BRANCH  17  19
ATOM     19  N   UNL     1       0.509  10.689  18.634  0.00  0.00    +0.000 N 
ATOM     20  O   UNL     1      -0.716  10.612  18.457  0.00  0.00    +0.000 OA
ATOM     21  O   UNL     1       1.165  11.735  18.540  0.00  0.00    +0.000 OA
ENDBRANCH  17  19
ENDBRANCH  11  13
BRANCH   1  23
ATOM     22  C   UNL     1       2.256   2.655  21.568  0.00  0.00    +0.000 C 
ATOM     23  C   UNL     1       1.702   2.500  20.150  0.00  0.00    +0.000 C 
ATOM     24  C   UNL     1       0.331   3.177  20.055  0.00  0.00    +0.000 C 
ENDBRANCH   1  23
TORSDOF 3
ENDMDL
MODEL 8
REMARK VINA RESULT:      -6.6      7.781     10.226
REMARK  Name = 
REMARK  5 active torsions:
REMARK  status: ('A' for Active; 'I' for Inactive)
REMARK    1  A    between atoms: C_1  and  C_2
REMARK    2  A    between atoms: C_2  and  C_3
REMARK    3  A    between atoms: C_2  and  C_4
REMARK    4  A    between atoms: C_14  and  C_15
REMARK    5  A    between atoms: C_19  and  N_20
REMARK                            x       y       z     vdW  Elec       q    Type
REMARK                         _______ _______ _______ _____ _____    ______ ____
ROOT
ATOM      1  C   UNL     1      -4.636  13.033  22.099  0.00  0.00    +0.000 A 
ATOM      2  N   UNL     1      -3.887  12.772  21.042  0.00  0.00    +0.000 NA
ATOM      3  C   UNL     1      -4.680  12.271  20.048  0.00  0.00    +0.000 A 
ATOM      4  C   UNL     1      -6.031  12.165  20.318  0.00  0.00    +0.000 A 
ATOM      5  S   UNL     1      -6.334  12.719  21.898  0.00  0.00    +0.000 S 
ATOM      6  C   UNL     1      -7.058  11.582  19.372  0.00  0.00    +0.000 C 
ATOM      7  C   UNL     1      -6.611  11.686  17.879  0.00  0.00    +0.000 C 
ATOM      8  C   UNL     1      -5.132  11.583  17.778  0.00  0.00    +0.000 A 
ATOM      9  O   UNL     1      -4.507  11.238  16.635  0.00  0.00    +0.000 OA
ATOM     10  N   UNL     1      -3.132  11.290  16.854  0.00  0.00    +0.000 NA
ATOM     11  C   UNL     1      -2.952  11.666  18.140  0.00  0.00    +0.000 A 
ATOM     12  C   UNL     1      -4.205  11.866  18.745  0.00  0.00    +0.000 A 
ENDROOT
BRANCH  11  13
ATOM     13  C   UNL     1      -1.613  11.789  18.708  0.00  0.00    +0.000 A 
ATOM     14  C   UNL     1      -0.791  12.872  18.359  0.00  0.00    +0.000 A 
ATOM     15  C   UNL     1       0.499  12.991  18.887  0.00  0.00    +0.000 A 
ATOM     16  C   UNL     1       0.982  12.029  19.774  0.00  0.00    +0.000 A 
ATOM     17  C   UNL     1       0.168  10.945  20.124  0.00  0.00    +0.000 A 
ATOM     18  C   UNL     1      -1.118  10.820  19.589  0.00  0.00    +0.000 A 
BRANCH  17  19
ATOM     19  N   UNL     1       0.663   9.921  21.053  0.00  0.00    +0.000 N 
ATOM     20  O   UNL     1       0.831   8.777  20.606  0.00  0.00    +0.000 OA
ATOM     21  O   UNL     1       0.883  10.254  22.225  0.00  0.00    +0.000 OA
ENDBRANCH  17  19
ENDBRANCH  11  13
BRANCH   1  23
ATOM     22  C   UNL     1      -4.297  12.543  24.535  0.00  0.00    +0.000 C 
ATOM     23  C   UNL     1      -4.109  13.565  23.412  0.00  0.00    +0.000 C 
ATOM     24  C   UNL     1      -2.629  13.945  23.303  0.00  0.00    +0.000 C 
ENDBRANCH   1  23
TORSDOF 3
ENDMDL
MODEL 9
REMARK VINA RESULT:      -6.5      7.919     10.272
REMARK  Name = 
REMARK  5 active torsions:
REMARK  status: ('A' for Active; 'I' for Inactive)
REMARK    1  A    between atoms: C_1  and  C_2
REMARK    2  A    between atoms: C_2  and  C_3
REMARK    3  A    between atoms: C_2  and  C_4
REMARK    4  A    between atoms: C_14  and  C_15
REMARK    5  A    between atoms: C_19  and  N_20
REMARK                            x       y       z     vdW  Elec       q    Type
REMARK                         _______ _______ _______ _____ _____    ______ ____
ROOT
ATOM      1  C   UNL     1      -4.310  12.873  22.007  0.00  0.00    +0.000 A 
ATOM      2  N   UNL     1      -3.696  12.580  20.875  0.00  0.00    +0.000 NA
ATOM      3  C   UNL     1      -4.629  12.232  19.939  0.00  0.00    +0.000 A 
ATOM      4  C   UNL     1      -5.953  12.277  20.329  0.00  0.00    +0.000 A 
ATOM      5  S   UNL     1      -6.045  12.778  21.953  0.00  0.00    +0.000 S 
ATOM      6  C   UNL     1      -7.124  11.873  19.459  0.00  0.00    +0.000 C 
ATOM      7  C   UNL     1      -6.800  12.002  17.937  0.00  0.00    +0.000 C 
ATOM      8  C   UNL     1      -5.360  11.726  17.694  0.00  0.00    +0.000 A 
ATOM      9  O   UNL     1      -4.886  11.371  16.484  0.00  0.00    +0.000 OA
ATOM     10  N   UNL     1      -3.501  11.244  16.575  0.00  0.00    +0.000 NA
ATOM     11  C   UNL     1      -3.164  11.526  17.854  0.00  0.00    +0.000 A 
ATOM     12  C   UNL     1      -4.324  11.844  18.581  0.00  0.00    +0.000 A 
ENDROOT
BRANCH  11  13
ATOM     13  C   UNL     1      -1.775  11.456  18.299  0.00  0.00    +0.000 A 
ATOM     14  C   UNL     1      -1.183  10.214  18.579  0.00  0.00    +0.000 A 
ATOM     15  C   UNL     1       0.142  10.137  19.021  0.00  0.00    +0.000 A 
ATOM     16  C   UNL     1       0.893  11.301  19.185  0.00  0.00    +0.000 A 
ATOM     17  C   UNL     1       0.307  12.542  18.910  0.00  0.00    +0.000 A 
ATOM     18  C   UNL     1      -1.021  12.622  18.478  0.00  0.00    +0.000 A 
BRANCH  17  19
ATOM     19  N   UNL     1       1.082  13.777  19.082  0.00  0.00    +0.000 N 
ATOM     20  O   UNL     1       0.570  14.834  18.685  0.00  0.00    +0.000 OA
ATOM     21  O   UNL     1       2.199  13.696  19.610  0.00  0.00    +0.000 OA
ENDBRANCH  17  19
ENDBRANCH  11  13
BRANCH   1  23
ATOM     22  C   UNL     1      -4.193  12.520  24.487  0.00  0.00    +0.000 C 
ATOM     23  C   UNL     1      -3.608  13.267  23.286  0.00  0.00    +0.000 C 
ATOM     24  C   UNL     1      -2.102  13.000  23.197  0.00  0.00    +0.000 C 
ENDBRANCH   1  23
TORSDOF 3
ENDMDL
