MODEL 1
REMARK VINA RESULT:      -6.5      0.000      0.000
REMARK  Name = 
REMARK  8 active torsions:
REMARK  status: ('A' for Active; 'I' for Inactive)
REMARK    1  A    between atoms: C_2  and  C_3
REMARK    2  A    between atoms: C_3  and  C_4
REMARK    3  A    between atoms: N_13  and  C_14
REMARK    4  A    between atoms: C_14  and  C_15
REMARK    5  A    between atoms: C_15  and  O_16
REMARK    6  A    between atoms: O_16  and  C_17
REMARK    7  A    between atoms: C_17  and  C_18
REMARK    8  A    between atoms: C_18  and  O_19
REMARK                            x       y       z     vdW  Elec       q    Type
REMARK                         _______ _______ _______ _____ _____    ______ ____
ROOT
ATOM      1  O   UNL     1       7.509   5.330  15.166  0.00  0.00    +0.000 OA
ATOM      2  C   UNL     1       6.626   4.500  15.369  0.00  0.00    +0.000 C 
ATOM      3  N   UNL     1       6.157   3.649  14.400  0.00  0.00    +0.000 N 
ATOM      4  H   UNL     1       5.464   2.958  14.639  0.00  0.00    +0.000 HD
ENDROOT
BRANCH   2   5
ATOM      5  C   UNL     1       5.937   4.359  16.719  0.00  0.00    +0.000 C 
BRANCH   5   6
ATOM      6  C   UNL     1       4.557   5.004  16.846  0.00  0.00    +0.000 C 
ATOM      7  C   UNL     1       4.543   6.291  17.702  0.00  0.00    +0.000 C 
ATOM      8  C   UNL     1       3.102   6.456  18.203  0.00  0.00    +0.000 C 
ATOM      9  C   UNL     1       2.675   5.025  18.313  0.00  0.00    +0.000 A 
ATOM     10  C   UNL     1       1.612   4.513  19.038  0.00  0.00    +0.000 A 
ATOM     11  C   UNL     1       1.354   3.143  18.959  0.00  0.00    +0.000 A 
ATOM     12  C   UNL     1       2.123   2.320  18.124  0.00  0.00    +0.000 A 
ATOM     13  C   UNL     1       3.169   2.854  17.368  0.00  0.00    +0.000 A 
ATOM     14  C   UNL     1       3.471   4.200  17.509  0.00  0.00    +0.000 A 
ENDBRANCH   5   6
ENDBRANCH   2   5
BRANCH   3  15
ATOM     15  C   UNL     1       6.584   3.708  13.015  0.00  0.00    +0.000 C 
BRANCH  15  16
ATOM     16  C   UNL     1       5.392   3.676  12.055  0.00  0.00    +0.000 C 
BRANCH  16  17
ATOM     17  O   UNL     1       5.102   2.320  11.676  0.00  0.00    +0.000 OA
BRANCH  17  18
ATOM     18  C   UNL     1       6.305   1.592  11.386  0.00  0.00    +0.000 C 
BRANCH  18  19
ATOM     19  C   UNL     1       5.937   0.191  10.900  0.00  0.00    +0.000 C 
BRANCH  19  20
ATOM     20  O   UNL     1       6.248  -0.777  11.898  0.00  0.00    +0.000 OA
ATOM     21  H   UNL     1       7.075  -0.471  12.314  0.00  0.00    +0.000 HD
ENDBRANCH  19  20
ENDBRANCH  18  19
ENDBRANCH  17  18
ENDBRANCH  16  17
ENDBRANCH  15  16
ENDBRANCH   3  15
TORSDOF 8
ENDMDL
MODEL 2
REMARK VINA RESULT:      -6.4      1.624      2.966
REMARK  Name = 
REMARK  8 active torsions:
REMARK  status: ('A' for Active; 'I' for Inactive)
REMARK    1  A    between atoms: C_2  and  C_3
REMARK    2  A    between atoms: C_3  and  C_4
REMARK    3  A    between atoms: N_13  and  C_14
REMARK    4  A    between atoms: C_14  and  C_15
REMARK    5  A    between atoms: C_15  and  O_16
REMARK    6  A    between atoms: O_16  and  C_17
REMARK    7  A    between atoms: C_17  and  C_18
REMARK    8  A    between atoms: C_18  and  O_19
REMARK                            x       y       z     vdW  Elec       q    Type
REMARK                         _______ _______ _______ _____ _____    ______ ____
ROOT
ATOM      1  O   UNL     1       5.419   5.739  18.578  0.00  0.00    +0.000 OA
ATOM      2  C   UNL     1       4.684   5.818  17.595  0.00  0.00    +0.000 C 
ATOM      3  N   UNL     1       4.889   5.099  16.443  0.00  0.00    +0.000 N 
ATOM      4  H   UNL     1       4.226   5.172  15.690  0.00  0.00    +0.000 HD
ENDROOT
BRANCH   2   5
ATOM      5  C   UNL     1       3.486   6.756  17.548  0.00  0.00    +0.000 C 
BRANCH   5   6
ATOM      6  C   UNL     1       2.308   6.395  18.453  0.00  0.00    +0.000 C 
ATOM      7  C   UNL     1       2.474   6.864  19.916  0.00  0.00    +0.000 C 
ATOM      8  C   UNL     1       1.568   5.958  20.762  0.00  0.00    +0.000 C 
ATOM      9  C   UNL     1       1.624   4.687  19.973  0.00  0.00    +0.000 A 
ATOM     10  C   UNL     1       1.303   3.410  20.403  0.00  0.00    +0.000 A 
ATOM     11  C   UNL     1       1.373   2.363  19.482  0.00  0.00    +0.000 A 
ATOM     12  C   UNL     1       1.711   2.613  18.143  0.00  0.00    +0.000 A 
ATOM     13  C   UNL     1       1.997   3.909  17.713  0.00  0.00    +0.000 A 
ATOM     14  C   UNL     1       2.001   4.934  18.647  0.00  0.00    +0.000 A 
ENDBRANCH   5   6
ENDBRANCH   2   5
BRANCH   3  15
ATOM     15  C   UNL     1       6.045   4.250  16.232  0.00  0.00    +0.000 C 
BRANCH  15  16
ATOM     16  C   UNL     1       7.171   4.997  15.512  0.00  0.00    +0.000 C 
BRANCH  16  17
ATOM     17  O   UNL     1       6.912   5.032  14.098  0.00  0.00    +0.000 OA
BRANCH  17  18
ATOM     18  C   UNL     1       6.205   3.859  13.669  0.00  0.00    +0.000 C 
BRANCH  18  19
ATOM     19  C   UNL     1       6.551   3.573  12.209  0.00  0.00    +0.000 C 
BRANCH  19  20
ATOM     20  O   UNL     1       6.291   2.207  11.897  0.00  0.00    +0.000 OA
ATOM     21  H   UNL     1       6.840   2.005  11.117  0.00  0.00    +0.000 HD
ENDBRANCH  19  20
ENDBRANCH  18  19
ENDBRANCH  17  18
ENDBRANCH  16  17
ENDBRANCH  15  16
ENDBRANCH   3  15
TORSDOF 8
ENDMDL
MODEL 3
REMARK VINA RESULT:      -6.4      3.164      4.857
REMARK  Name = 
REMARK  8 active torsions:
REMARK  status: ('A' for Active; 'I' for Inactive)
REMARK    1  A    between atoms: C_2  and  C_3
REMARK    2  A    between atoms: C_3  and  C_4
REMARK    3  A    between atoms: N_13  and  C_14
REMARK    4  A    between atoms: C_14  and  C_15
REMARK    5  A    between atoms: C_15  and  O_16
REMARK    6  A    between atoms: O_16  and  C_17
REMARK    7  A    between atoms: C_17  and  C_18
REMARK    8  A    between atoms: C_18  and  O_19
REMARK                            x       y       z     vdW  Elec       q    Type
REMARK                         _______ _______ _______ _____ _____    ______ ____
ROOT
ATOM      1  O   UNL     1       4.838   3.241  17.762  0.00  0.00    +0.000 OA
ATOM      2  C   UNL     1       4.286   3.667  16.750  0.00  0.00    +0.000 C 
ATOM      3  N   UNL     1       4.969   4.021  15.613  0.00  0.00    +0.000 N 
ATOM      4  H   UNL     1       4.457   4.319  14.800  0.00  0.00    +0.000 HD
ENDROOT
BRANCH   2   5
ATOM      5  C   UNL     1       2.781   3.877  16.672  0.00  0.00    +0.000 C 
BRANCH   5   6
ATOM      6  C   UNL     1       2.155   4.712  17.790  0.00  0.00    +0.000 C 
ATOM      7  C   UNL     1       2.984   5.956  18.182  0.00  0.00    +0.000 C 
ATOM      8  C   UNL     1       2.570   6.312  19.616  0.00  0.00    +0.000 C 
ATOM      9  C   UNL     1       2.246   4.955  20.162  0.00  0.00    +0.000 A 
ATOM     10  C   UNL     1       2.154   4.579  21.491  0.00  0.00    +0.000 A 
ATOM     11  C   UNL     1       1.784   3.265  21.784  0.00  0.00    +0.000 A 
ATOM     12  C   UNL     1       1.462   2.369  20.754  0.00  0.00    +0.000 A 
ATOM     13  C   UNL     1       1.523   2.771  19.418  0.00  0.00    +0.000 A 
ATOM     14  C   UNL     1       1.965   4.052  19.129  0.00  0.00    +0.000 A 
ENDBRANCH   5   6
ENDBRANCH   2   5
BRANCH   3  15
ATOM     15  C   UNL     1       6.417   4.022  15.524  0.00  0.00    +0.000 C 
BRANCH  15  16
ATOM     16  C   UNL     1       7.008   5.366  15.956  0.00  0.00    +0.000 C 
BRANCH  16  17
ATOM     17  O   UNL     1       7.728   5.213  17.191  0.00  0.00    +0.000 OA
BRANCH  17  18
ATOM     18  C   UNL     1       7.355   6.223  18.140  0.00  0.00    +0.000 C 
BRANCH  18  19
ATOM     19  C   UNL     1       6.989   5.555  19.464  0.00  0.00    +0.000 C 
BRANCH  19  20
ATOM     20  O   UNL     1       8.100   5.579  20.355  0.00  0.00    +0.000 OA
ATOM     21  H   UNL     1       8.808   6.054  19.882  0.00  0.00    +0.000 HD
ENDBRANCH  19  20
ENDBRANCH  18  19
ENDBRANCH  17  18
ENDBRANCH  16  17
ENDBRANCH  15  16
ENDBRANCH   3  15
TORSDOF 8
ENDMDL
MODEL 4
REMARK VINA RESULT:      -6.3      1.325      1.631
REMARK  Name = 
REMARK  8 active torsions:
REMARK  status: ('A' for Active; 'I' for Inactive)
REMARK    1  A    between atoms: C_2  and  C_3
REMARK    2  A    between atoms: C_3  and  C_4
REMARK    3  A    between atoms: N_13  and  C_14
REMARK    4  A    between atoms: C_14  and  C_15
REMARK    5  A    between atoms: C_15  and  O_16
REMARK    6  A    between atoms: O_16  and  C_17
REMARK    7  A    between atoms: C_17  and  C_18
REMARK    8  A    between atoms: C_18  and  O_19
REMARK                            x       y       z     vdW  Elec       q    Type
REMARK                         _______ _______ _______ _____ _____    ______ ____
ROOT
ATOM      1  O   UNL     1       5.212   6.358  15.627  0.00  0.00    +0.000 OA
ATOM      2  C   UNL     1       5.424   5.170  15.861  0.00  0.00    +0.000 C 
ATOM      3  N   UNL     1       6.436   4.456  15.268  0.00  0.00    +0.000 N 
ATOM      4  H   UNL     1       6.589   3.498  15.537  0.00  0.00    +0.000 HD
ENDROOT
BRANCH   2   5
ATOM      5  C   UNL     1       4.556   4.361  16.814  0.00  0.00    +0.000 C 
BRANCH   5   6
ATOM      6  C   UNL     1       3.423   5.120  17.507  0.00  0.00    +0.000 C 
ATOM      7  C   UNL     1       3.907   6.148  18.556  0.00  0.00    +0.000 C 
ATOM      8  C   UNL     1       2.733   6.359  19.521  0.00  0.00    +0.000 C 
ATOM      9  C   UNL     1       2.087   5.009  19.482  0.00  0.00    +0.000 A 
ATOM     10  C   UNL     1       1.202   4.468  20.399  0.00  0.00    +0.000 A 
ATOM     11  C   UNL     1       0.671   3.202  20.141  0.00  0.00    +0.000 A 
ATOM     12  C   UNL     1       0.991   2.523  18.956  0.00  0.00    +0.000 A 
ATOM     13  C   UNL     1       1.857   3.094  18.022  0.00  0.00    +0.000 A 
ATOM     14  C   UNL     1       2.441   4.317  18.317  0.00  0.00    +0.000 A 
ENDBRANCH   5   6
ENDBRANCH   2   5
BRANCH   3  15
ATOM     15  C   UNL     1       7.293   5.001  14.234  0.00  0.00    +0.000 C 
BRANCH  15  16
ATOM     16  C   UNL     1       6.884   4.508  12.844  0.00  0.00    +0.000 C 
BRANCH  16  17
ATOM     17  O   UNL     1       5.938   3.432  12.962  0.00  0.00    +0.000 OA
BRANCH  17  18
ATOM     18  C   UNL     1       5.477   3.000  11.673  0.00  0.00    +0.000 C 
BRANCH  18  19
ATOM     19  C   UNL     1       5.869   1.539  11.465  0.00  0.00    +0.000 C 
BRANCH  19  20
ATOM     20  O   UNL     1       7.258   1.436  11.163  0.00  0.00    +0.000 OA
ATOM     21  H   UNL     1       7.351   1.740  10.242  0.00  0.00    +0.000 HD
ENDBRANCH  19  20
ENDBRANCH  18  19
ENDBRANCH  17  18
ENDBRANCH  16  17
ENDBRANCH  15  16
ENDBRANCH   3  15
TORSDOF 8
ENDMDL
MODEL 5
REMARK VINA RESULT:      -6.3      2.485      3.765
REMARK  Name = 
REMARK  8 active torsions:
REMARK  status: ('A' for Active; 'I' for Inactive)
REMARK    1  A    between atoms: C_2  and  C_3
REMARK    2  A    between atoms: C_3  and  C_4
REMARK    3  A    between atoms: N_13  and  C_14
REMARK    4  A    between atoms: C_14  and  C_15
REMARK    5  A    between atoms: C_15  and  O_16
REMARK    6  A    between atoms: O_16  and  C_17
REMARK    7  A    between atoms: C_17  and  C_18
REMARK    8  A    between atoms: C_18  and  O_19
REMARK                            x       y       z     vdW  Elec       q    Type
REMARK                         _______ _______ _______ _____ _____    ______ ____
ROOT
ATOM      1  O   UNL     1       5.481   7.328  17.524  0.00  0.00    +0.000 OA
ATOM      2  C   UNL     1       4.828   6.298  17.680  0.00  0.00    +0.000 C 
ATOM      3  N   UNL     1       5.328   5.178  18.296  0.00  0.00    +0.000 N 
ATOM      4  H   UNL     1       4.729   4.380  18.435  0.00  0.00    +0.000 HD
ENDROOT
BRANCH   2   5
ATOM      5  C   UNL     1       3.402   6.153  17.168  0.00  0.00    +0.000 C 
BRANCH   5   6
ATOM      6  C   UNL     1       2.305   6.091  18.231  0.00  0.00    +0.000 C 
ATOM      7  C   UNL     1       2.674   6.797  19.556  0.00  0.00    +0.000 C 
ATOM      8  C   UNL     1       1.792   6.163  20.640  0.00  0.00    +0.000 C 
ATOM      9  C   UNL     1       1.647   4.770  20.107  0.00  0.00    +0.000 A 
ATOM     10  C   UNL     1       1.264   3.635  20.802  0.00  0.00    +0.000 A 
ATOM     11  C   UNL     1       1.139   2.437  20.096  0.00  0.00    +0.000 A 
ATOM     12  C   UNL     1       1.345   2.402  18.709  0.00  0.00    +0.000 A 
ATOM     13  C   UNL     1       1.695   3.561  18.013  0.00  0.00    +0.000 A 
ATOM     14  C   UNL     1       1.894   4.731  18.729  0.00  0.00    +0.000 A 
ENDBRANCH   5   6
ENDBRANCH   2   5
BRANCH   3  15
ATOM     15  C   UNL     1       6.705   5.060  18.736  0.00  0.00    +0.000 C 
BRANCH  15  16
ATOM     16  C   UNL     1       7.632   4.655  17.588  0.00  0.00    +0.000 C 
BRANCH  16  17
ATOM     17  O   UNL     1       6.877   4.005  16.551  0.00  0.00    +0.000 OA
BRANCH  17  18
ATOM     18  C   UNL     1       7.060   4.660  15.287  0.00  0.00    +0.000 C 
BRANCH  18  19
ATOM     19  C   UNL     1       5.897   4.301  14.365  0.00  0.00    +0.000 C 
BRANCH  19  20
ATOM     20  O   UNL     1       6.306   3.333  13.403  0.00  0.00    +0.000 OA
ATOM     21  H   UNL     1       6.660   3.842  12.651  0.00  0.00    +0.000 HD
ENDBRANCH  19  20
ENDBRANCH  18  19
ENDBRANCH  17  18
ENDBRANCH  16  17
ENDBRANCH  15  16
ENDBRANCH   3  15
TORSDOF 8
ENDMDL
MODEL 6
REMARK VINA RESULT:      -6.3      2.861      4.029
REMARK  Name = 
REMARK  8 active torsions:
REMARK  status: ('A' for Active; 'I' for Inactive)
REMARK    1  A    between atoms: C_2  and  C_3
REMARK    2  A    between atoms: C_3  and  C_4
REMARK    3  A    between atoms: N_13  and  C_14
REMARK    4  A    between atoms: C_14  and  C_15
REMARK    5  A    between atoms: C_15  and  O_16
REMARK    6  A    between atoms: O_16  and  C_17
REMARK    7  A    between atoms: C_17  and  C_18
REMARK    8  A    between atoms: C_18  and  O_19
REMARK                            x       y       z     vdW  Elec       q    Type
REMARK                         _______ _______ _______ _____ _____    ______ ____
ROOT
ATOM      1  O   UNL     1       5.092   5.753  19.422  0.00  0.00    +0.000 OA
ATOM      2  C   UNL     1       4.805   6.268  18.344  0.00  0.00    +0.000 C 
ATOM      3  N   UNL     1       5.715   6.452  17.332  0.00  0.00    +0.000 N 
ATOM      4  H   UNL     1       5.409   6.838  16.454  0.00  0.00    +0.000 HD
ENDROOT
BRANCH   2   5
ATOM      5  C   UNL     1       3.408   6.788  18.037  0.00  0.00    +0.000 C 
BRANCH   5   6
ATOM      6  C   UNL     1       2.243   5.973  18.599  0.00  0.00    +0.000 C 
ATOM      7  C   UNL     1       2.048   6.129  20.125  0.00  0.00    +0.000 C 
ATOM      8  C   UNL     1       1.297   4.874  20.591  0.00  0.00    +0.000 C 
ATOM      9  C   UNL     1       1.814   3.858  19.619  0.00  0.00    +0.000 A 
ATOM     10  C   UNL     1       1.784   2.479  19.742  0.00  0.00    +0.000 A 
ATOM     11  C   UNL     1       2.275   1.709  18.686  0.00  0.00    +0.000 A 
ATOM     12  C   UNL     1       2.738   2.322  17.512  0.00  0.00    +0.000 A 
ATOM     13  C   UNL     1       2.729   3.712  17.385  0.00  0.00    +0.000 A 
ATOM     14  C   UNL     1       2.313   4.475  18.465  0.00  0.00    +0.000 A 
ENDBRANCH   5   6
ENDBRANCH   2   5
BRANCH   3  15
ATOM     15  C   UNL     1       7.127   6.149  17.468  0.00  0.00    +0.000 C 
BRANCH  15  16
ATOM     16  C   UNL     1       7.385   4.640  17.435  0.00  0.00    +0.000 C 
BRANCH  16  17
ATOM     17  O   UNL     1       7.799   4.241  16.117  0.00  0.00    +0.000 OA
BRANCH  17  18
ATOM     18  C   UNL     1       6.669   3.909  15.296  0.00  0.00    +0.000 C 
BRANCH  18  19
ATOM     19  C   UNL     1       6.741   4.711  13.998  0.00  0.00    +0.000 C 
BRANCH  19  20
ATOM     20  O   UNL     1       7.850   5.605  14.028  0.00  0.00    +0.000 OA
ATOM     21  H   UNL     1       8.374   5.348  14.809  0.00  0.00    +0.000 HD
ENDBRANCH  19  20
ENDBRANCH  18  19
ENDBRANCH  17  18
ENDBRANCH  16  17
ENDBRANCH  15  16
ENDBRANCH   3  15
TORSDOF 8
ENDMDL
MODEL 7
REMARK VINA RESULT:      -6.2      1.676      2.558
REMARK  Name = 
REMARK  8 active torsions:
REMARK  status: ('A' for Active; 'I' for Inactive)
REMARK    1  A    between atoms: C_2  and  C_3
REMARK    2  A    between atoms: C_3  and  C_4
REMARK    3  A    between atoms: N_13  and  C_14
REMARK    4  A    between atoms: C_14  and  C_15
REMARK    5  A    between atoms: C_15  and  O_16
REMARK    6  A    between atoms: O_16  and  C_17
REMARK    7  A    between atoms: C_17  and  C_18
REMARK    8  A    between atoms: C_18  and  O_19
REMARK                            x       y       z     vdW  Elec       q    Type
REMARK                         _______ _______ _______ _____ _____    ______ ____
ROOT
ATOM      1  O   UNL     1       4.738   5.960  16.371  0.00  0.00    +0.000 OA
ATOM      2  C   UNL     1       5.581   5.241  16.904  0.00  0.00    +0.000 C 
ATOM      3  N   UNL     1       6.656   4.715  16.230  0.00  0.00    +0.000 N 
ATOM      4  H   UNL     1       7.338   4.172  16.733  0.00  0.00    +0.000 HD
ENDROOT
BRANCH   2   5
ATOM      5  C   UNL     1       5.494   4.834  18.368  0.00  0.00    +0.000 C 
BRANCH   5   6
ATOM      6  C   UNL     1       4.619   3.621  18.682  0.00  0.00    +0.000 C 
ATOM      7  C   UNL     1       4.175   2.827  17.432  0.00  0.00    +0.000 C 
ATOM      8  C   UNL     1       2.903   2.070  17.835  0.00  0.00    +0.000 C 
ATOM      9  C   UNL     1       2.315   3.017  18.835  0.00  0.00    +0.000 A 
ATOM     10  C   UNL     1       1.007   3.065  19.287  0.00  0.00    +0.000 A 
ATOM     11  C   UNL     1       0.680   3.999  20.272  0.00  0.00    +0.000 A 
ATOM     12  C   UNL     1       1.667   4.830  20.823  0.00  0.00    +0.000 A 
ATOM     13  C   UNL     1       2.990   4.747  20.386  0.00  0.00    +0.000 A 
ATOM     14  C   UNL     1       3.295   3.872  19.354  0.00  0.00    +0.000 A 
ENDBRANCH   5   6
ENDBRANCH   2   5
BRANCH   3  15
ATOM     15  C   UNL     1       6.852   4.872  14.802  0.00  0.00    +0.000 C 
BRANCH  15  16
ATOM     16  C   UNL     1       5.845   4.044  14.000  0.00  0.00    +0.000 C 
BRANCH  16  17
ATOM     17  O   UNL     1       6.457   3.558  12.793  0.00  0.00    +0.000 OA
BRANCH  17  18
ATOM     18  C   UNL     1       5.471   3.067  11.872  0.00  0.00    +0.000 C 
BRANCH  18  19
ATOM     19  C   UNL     1       5.884   1.677  11.393  0.00  0.00    +0.000 C 
BRANCH  19  20
ATOM     20  O   UNL     1       7.302   1.593  11.275  0.00  0.00    +0.000 OA
ATOM     21  H   UNL     1       7.520   0.649  11.377  0.00  0.00    +0.000 HD
ENDBRANCH  19  20
ENDBRANCH  18  19
ENDBRANCH  17  18
ENDBRANCH  16  17
ENDBRANCH  15  16
ENDBRANCH   3  15
TORSDOF 8
ENDMDL
MODEL 8
REMARK VINA RESULT:      -6.2      2.694      5.031
REMARK  Name = 
REMARK  8 active torsions:
REMARK  status: ('A' for Active; 'I' for Inactive)
REMARK    1  A    between atoms: C_2  and  C_3
REMARK    2  A    between atoms: C_3  and  C_4
REMARK    3  A    between atoms: N_13  and  C_14
REMARK    4  A    between atoms: C_14  and  C_15
REMARK    5  A    between atoms: C_15  and  O_16
REMARK    6  A    between atoms: O_16  and  C_17
REMARK    7  A    between atoms: C_17  and  C_18
REMARK    8  A    between atoms: C_18  and  O_19
REMARK                            x       y       z     vdW  Elec       q    Type
REMARK                         _______ _______ _______ _____ _____    ______ ____
ROOT
ATOM      1  O   UNL     1       4.007   4.046  16.759  0.00  0.00    +0.000 OA
ATOM      2  C   UNL     1       3.926   4.821  17.711  0.00  0.00    +0.000 C 
ATOM      3  N   UNL     1       5.021   5.377  18.323  0.00  0.00    +0.000 N 
ATOM      4  H   UNL     1       4.889   6.041  19.068  0.00  0.00    +0.000 HD
ENDROOT
BRANCH   2   5
ATOM      5  C   UNL     1       2.591   5.213  18.329  0.00  0.00    +0.000 C 
BRANCH   5   6
ATOM      6  C   UNL     1       2.636   6.299  19.404  0.00  0.00    +0.000 C 
ATOM      7  C   UNL     1       1.702   6.030  20.606  0.00  0.00    +0.000 C 
ATOM      8  C   UNL     1       1.422   7.396  21.245  0.00  0.00    +0.000 C 
ATOM      9  C   UNL     1       1.483   8.288  20.044  0.00  0.00    +0.000 A 
ATOM     10  C   UNL     1       0.972   9.569  19.915  0.00  0.00    +0.000 A 
ATOM     11  C   UNL     1       1.190  10.251  18.716  0.00  0.00    +0.000 A 
ATOM     12  C   UNL     1       1.952   9.670  17.692  0.00  0.00    +0.000 A 
ATOM     13  C   UNL     1       2.494   8.392  17.849  0.00  0.00    +0.000 A 
ATOM     14  C   UNL     1       2.211   7.688  19.009  0.00  0.00    +0.000 A 
ENDBRANCH   5   6
ENDBRANCH   2   5
BRANCH   3  15
ATOM     15  C   UNL     1       6.386   5.032  17.975  0.00  0.00    +0.000 C 
BRANCH  15  16
ATOM     16  C   UNL     1       7.144   6.234  17.405  0.00  0.00    +0.000 C 
BRANCH  16  17
ATOM     17  O   UNL     1       7.295   6.090  15.983  0.00  0.00    +0.000 OA
BRANCH  17  18
ATOM     18  C   UNL     1       7.198   4.714  15.586  0.00  0.00    +0.000 C 
BRANCH  18  19
ATOM     19  C   UNL     1       6.400   4.624  14.286  0.00  0.00    +0.000 C 
BRANCH  19  20
ATOM     20  O   UNL     1       6.495   3.313  13.736  0.00  0.00    +0.000 OA
ATOM     21  H   UNL     1       6.322   3.414  12.782  0.00  0.00    +0.000 HD
ENDBRANCH  19  20
ENDBRANCH  18  19
ENDBRANCH  17  18
ENDBRANCH  16  17
ENDBRANCH  15  16
ENDBRANCH   3  15
TORSDOF 8
ENDMDL
MODEL 9
REMARK VINA RESULT:      -6.2      1.577      2.538
REMARK  Name = 
REMARK  8 active torsions:
REMARK  status: ('A' for Active; 'I' for Inactive)
REMARK    1  A    between atoms: C_2  and  C_3
REMARK    2  A    between atoms: C_3  and  C_4
REMARK    3  A    between atoms: N_13  and  C_14
REMARK    4  A    between atoms: C_14  and  C_15
REMARK    5  A    between atoms: C_15  and  O_16
REMARK    6  A    between atoms: O_16  and  C_17
REMARK    7  A    between atoms: C_17  and  C_18
REMARK    8  A    between atoms: C_18  and  O_19
REMARK                            x       y       z     vdW  Elec       q    Type
REMARK                         _______ _______ _______ _____ _____    ______ ____
ROOT
ATOM      1  O   UNL     1       7.515   4.352  17.269  0.00  0.00    +0.000 OA
ATOM      2  C   UNL     1       6.374   4.767  17.072  0.00  0.00    +0.000 C 
ATOM      3  N   UNL     1       5.906   5.121  15.831  0.00  0.00    +0.000 N 
ATOM      4  H   UNL     1       4.947   5.409  15.727  0.00  0.00    +0.000 HD
ENDROOT
BRANCH   2   5
ATOM      5  C   UNL     1       5.373   4.962  18.202  0.00  0.00    +0.000 C 
BRANCH   5   6
ATOM      6  C   UNL     1       4.612   3.716  18.656  0.00  0.00    +0.000 C 
ATOM      7  C   UNL     1       4.211   2.771  17.500  0.00  0.00    +0.000 C 
ATOM      8  C   UNL     1       3.017   1.953  18.011  0.00  0.00    +0.000 C 
ATOM      9  C   UNL     1       2.373   2.940  18.935  0.00  0.00    +0.000 A 
ATOM     10  C   UNL     1       1.076   2.922  19.419  0.00  0.00    +0.000 A 
ATOM     11  C   UNL     1       0.691   3.917  20.321  0.00  0.00    +0.000 A 
ATOM     12  C   UNL     1       1.616   4.876  20.761  0.00  0.00    +0.000 A 
ATOM     13  C   UNL     1       2.931   4.861  20.294  0.00  0.00    +0.000 A 
ATOM     14  C   UNL     1       3.287   3.920  19.341  0.00  0.00    +0.000 A 
ENDBRANCH   5   6
ENDBRANCH   2   5
BRANCH   3  15
ATOM     15  C   UNL     1       6.738   5.135  14.643  0.00  0.00    +0.000 C 
BRANCH  15  16
ATOM     16  C   UNL     1       6.502   3.898  13.774  0.00  0.00    +0.000 C 
BRANCH  16  17
ATOM     17  O   UNL     1       5.155   3.899  13.270  0.00  0.00    +0.000 OA
BRANCH  17  18
ATOM     18  C   UNL     1       5.093   3.341  11.949  0.00  0.00    +0.000 C 
BRANCH  18  19
ATOM     19  C   UNL     1       6.309   2.443  11.728  0.00  0.00    +0.000 C 
BRANCH  19  20
ATOM     20  O   UNL     1       5.897   1.096  11.510  0.00  0.00    +0.000 OA
ATOM     21  H   UNL     1       5.562   0.780  12.369  0.00  0.00    +0.000 HD
ENDBRANCH  19  20
ENDBRANCH  18  19
ENDBRANCH  17  18
ENDBRANCH  16  17
ENDBRANCH  15  16
ENDBRANCH   3  15
TORSDOF 8
ENDMDL
