MODEL 1
REMARK VINA RESULT:      -9.0      0.000      0.000
REMARK  Name = 
REMARK  10 active torsions:
REMARK  status: ('A' for Active; 'I' for Inactive)
REMARK    1  A    between atoms: C_1  and  C_2
REMARK    2  A    between atoms: C_2  and  N_3
REMARK    3  A    between atoms: N_6  and  C_7
REMARK    4  A    between atoms: C_7  and  C_8
REMARK    5  A    between atoms: C_11  and  N_12
REMARK    6  A    between atoms: C_13  and  C_15
REMARK    7  A    between atoms: C_15  and  O_16
REMARK    8  A    between atoms: O_16  and  C_17
REMARK    9  A    between atoms: C_20  and  C_21
REMARK   10  A    between atoms: C_30  and  C_31
REMARK                            x       y       z     vdW  Elec       q    Type
REMARK                         _______ _______ _______ _____ _____    ______ ____
ROOT
ATOM      1  C   UNL     1       0.749   9.685  19.752  0.00  0.00    +0.000 A 
ATOM      2  C   UNL     1       1.476   9.203  18.645  0.00  0.00    +0.000 A 
ATOM      3  C   UNL     1       2.220   8.021  18.713  0.00  0.00    +0.000 A 
ATOM      4  C   UNL     1       2.260   7.307  19.900  0.00  0.00    +0.000 A 
ATOM      5  C   UNL     1       1.560   7.764  21.010  0.00  0.00    +0.000 A 
ATOM      6  C   UNL     1       0.764   8.935  20.948  0.00  0.00    +0.000 A 
ENDROOT
BRANCH   4   7
ATOM      7  N   UNL     1       2.993   6.115  19.962  0.00  0.00    +0.000 N 
ATOM      8  C   UNL     1       2.435   4.897  19.588  0.00  0.00    +0.000 C 
ATOM      9  O   UNL     1       1.339   4.781  19.045  0.00  0.00    +0.000 OA
ATOM     10  H   UNL     1       3.838   6.121  20.518  0.00  0.00    +0.000 HD
BRANCH   8  11
ATOM     11  C   UNL     1       3.332   3.694  19.877  0.00  0.00    +0.000 C 
BRANCH  11  12
ATOM     12  O   UNL     1       4.681   4.134  19.798  0.00  0.00    +0.000 OA
BRANCH  12  13
ATOM     13  C   UNL     1       5.254   4.144  18.559  0.00  0.00    +0.000 A 
ATOM     14  C   UNL     1       4.450   3.649  17.534  0.00  0.00    +0.000 A 
ATOM     15  C   UNL     1       4.886   3.679  16.205  0.00  0.00    +0.000 A 
ATOM     16  C   UNL     1       6.130   4.233  15.853  0.00  0.00    +0.000 A 
ATOM     17  C   UNL     1       6.931   4.713  16.905  0.00  0.00    +0.000 A 
ATOM     18  C   UNL     1       6.506   4.663  18.244  0.00  0.00    +0.000 A 
BRANCH  16  19
ATOM     19  C   UNL     1       6.554   4.338  14.439  0.00  0.00    +0.000 A 
ATOM     20  C   UNL     1       6.014   3.519  13.441  0.00  0.00    +0.000 A 
ATOM     21  C   UNL     1       6.428   3.638  12.109  0.00  0.00    +0.000 A 
ATOM     22  C   UNL     1       7.370   4.601  11.801  0.00  0.00    +0.000 A 
ATOM     23  N   UNL     1       7.921   5.419  12.721  0.00  0.00    +0.000 NA
ATOM     24  C   UNL     1       7.508   5.262  14.006  0.00  0.00    +0.000 A 
ENDBRANCH  16  19
ENDBRANCH  12  13
ENDBRANCH  11  12
ENDBRANCH   8  11
ENDBRANCH   4   7
BRANCH   6  25
ATOM     25  C   UNL     1      -0.061   9.242  22.175  0.00  0.00    +0.000 C 
ATOM     26  F   UNL     1      -0.779  10.395  22.155  0.00  0.00    +0.000 F 
ATOM     27  F   UNL     1      -0.996   8.262  22.391  0.00  0.00    +0.000 F 
ATOM     28  F   UNL     1       0.685   9.268  23.316  0.00  0.00    +0.000 F 
ENDBRANCH   6  25
BRANCH   1  29
ATOM     29  C   UNL     1      -0.082  10.936  19.538  0.00  0.00    +0.000 C 
BRANCH  29  33
ATOM     30  N   UNL     1      -3.632  11.167  18.264  0.00  0.00    +0.000 NA
ATOM     31  C   UNL     1      -2.839   9.916  18.212  0.00  0.00    +0.000 C 
ATOM     32  C   UNL     1      -1.403  10.042  17.634  0.00  0.00    +0.000 C 
ATOM     33  N   UNL     1      -0.581  11.148  18.169  0.00  0.00    +0.000 NA
ATOM     34  C   UNL     1      -1.411  12.383  18.135  0.00  0.00    +0.000 C 
ATOM     35  C   UNL     1      -2.790  12.238  18.826  0.00  0.00    +0.000 C 
BRANCH  30  37
ATOM     36  C   UNL     1      -5.595  12.148  17.032  0.00  0.00    +0.000 C 
ATOM     37  C   UNL     1      -4.208  11.506  16.950  0.00  0.00    +0.000 C 
ENDBRANCH  30  37
ENDBRANCH  29  33
ENDBRANCH   1  29
TORSDOF 9
ENDMDL
MODEL 2
REMARK VINA RESULT:      -8.8      1.661      2.553
REMARK  Name = 
REMARK  10 active torsions:
REMARK  status: ('A' for Active; 'I' for Inactive)
REMARK    1  A    between atoms: C_1  and  C_2
REMARK    2  A    between atoms: C_2  and  N_3
REMARK    3  A    between atoms: N_6  and  C_7
REMARK    4  A    between atoms: C_7  and  C_8
REMARK    5  A    between atoms: C_11  and  N_12
REMARK    6  A    between atoms: C_13  and  C_15
REMARK    7  A    between atoms: C_15  and  O_16
REMARK    8  A    between atoms: O_16  and  C_17
REMARK    9  A    between atoms: C_20  and  C_21
REMARK   10  A    between atoms: C_30  and  C_31
REMARK                            x       y       z     vdW  Elec       q    Type
REMARK                         _______ _______ _______ _____ _____    ______ ____
ROOT
ATOM      1  C   UNL     1       0.695   9.749  19.749  0.00  0.00    +0.000 A 
ATOM      2  C   UNL     1       1.365   9.258  18.611  0.00  0.00    +0.000 A 
ATOM      3  C   UNL     1       2.120   8.082  18.652  0.00  0.00    +0.000 A 
ATOM      4  C   UNL     1       2.227   7.381  19.843  0.00  0.00    +0.000 A 
ATOM      5  C   UNL     1       1.584   7.847  20.984  0.00  0.00    +0.000 A 
ATOM      6  C   UNL     1       0.779   9.013  20.951  0.00  0.00    +0.000 A 
ENDROOT
BRANCH   4   7
ATOM      7  N   UNL     1       2.971   6.196  19.879  0.00  0.00    +0.000 N 
ATOM      8  C   UNL     1       2.371   4.954  19.693  0.00  0.00    +0.000 C 
ATOM      9  O   UNL     1       1.203   4.801  19.341  0.00  0.00    +0.000 OA
ATOM     10  H   UNL     1       3.894   6.241  20.292  0.00  0.00    +0.000 HD
BRANCH   8  11
ATOM     11  C   UNL     1       3.312   3.773  19.928  0.00  0.00    +0.000 C 
BRANCH  11  12
ATOM     12  O   UNL     1       4.644   4.261  19.841  0.00  0.00    +0.000 OA
BRANCH  12  13
ATOM     13  C   UNL     1       5.224   4.253  18.605  0.00  0.00    +0.000 A 
ATOM     14  C   UNL     1       4.449   3.688  17.595  0.00  0.00    +0.000 A 
ATOM     15  C   UNL     1       4.892   3.691  16.267  0.00  0.00    +0.000 A 
ATOM     16  C   UNL     1       6.113   4.287  15.903  0.00  0.00    +0.000 A 
ATOM     17  C   UNL     1       6.885   4.839  16.941  0.00  0.00    +0.000 A 
ATOM     18  C   UNL     1       6.454   4.817  18.279  0.00  0.00    +0.000 A 
BRANCH  16  19
ATOM     19  C   UNL     1       6.542   4.362  14.488  0.00  0.00    +0.000 A 
ATOM     20  C   UNL     1       5.997   3.528  13.505  0.00  0.00    +0.000 A 
ATOM     21  C   UNL     1       6.416   3.618  12.172  0.00  0.00    +0.000 A 
ATOM     22  C   UNL     1       7.365   4.568  11.847  0.00  0.00    +0.000 A 
ATOM     23  N   UNL     1       7.920   5.400  12.753  0.00  0.00    +0.000 NA
ATOM     24  C   UNL     1       7.503   5.270  14.039  0.00  0.00    +0.000 A 
ENDBRANCH  16  19
ENDBRANCH  12  13
ENDBRANCH  11  12
ENDBRANCH   8  11
ENDBRANCH   4   7
BRANCH   6  25
ATOM     25  C   UNL     1       0.018   9.329  22.217  0.00  0.00    +0.000 C 
ATOM     26  F   UNL     1      -0.612  10.531  22.266  0.00  0.00    +0.000 F 
ATOM     27  F   UNL     1      -0.979   8.411  22.427  0.00  0.00    +0.000 F 
ATOM     28  F   UNL     1       0.801   9.254  23.332  0.00  0.00    +0.000 F 
ENDBRANCH   6  25
BRANCH   1  29
ATOM     29  C   UNL     1      -0.155  10.992  19.566  0.00  0.00    +0.000 C 
BRANCH  29  33
ATOM     30  N   UNL     1       0.116  14.595  20.671  0.00  0.00    +0.000 NA
ATOM     31  C   UNL     1      -0.910  14.124  19.710  0.00  0.00    +0.000 C 
ATOM     32  C   UNL     1      -0.395  13.241  18.541  0.00  0.00    +0.000 C 
ATOM     33  N   UNL     1       0.509  12.131  18.912  0.00  0.00    +0.000 NA
ATOM     34  C   UNL     1       1.548  12.683  19.823  0.00  0.00    +0.000 C 
ATOM     35  C   UNL     1       0.979  13.459  21.038  0.00  0.00    +0.000 C 
BRANCH  30  37
ATOM     36  C   UNL     1       0.622  17.046  20.929  0.00  0.00    +0.000 C 
ATOM     37  C   UNL     1       0.865  15.753  20.149  0.00  0.00    +0.000 C 
ENDBRANCH  30  37
ENDBRANCH  29  33
ENDBRANCH   1  29
TORSDOF 9
ENDMDL
MODEL 3
REMARK VINA RESULT:      -8.7      1.956      3.007
REMARK  Name = 
REMARK  10 active torsions:
REMARK  status: ('A' for Active; 'I' for Inactive)
REMARK    1  A    between atoms: C_1  and  C_2
REMARK    2  A    between atoms: C_2  and  N_3
REMARK    3  A    between atoms: N_6  and  C_7
REMARK    4  A    between atoms: C_7  and  C_8
REMARK    5  A    between atoms: C_11  and  N_12
REMARK    6  A    between atoms: C_13  and  C_15
REMARK    7  A    between atoms: C_15  and  O_16
REMARK    8  A    between atoms: O_16  and  C_17
REMARK    9  A    between atoms: C_20  and  C_21
REMARK   10  A    between atoms: C_30  and  C_31
REMARK                            x       y       z     vdW  Elec       q    Type
REMARK                         _______ _______ _______ _____ _____    ______ ____
ROOT
ATOM      1  C   UNL     1       0.538  10.026  19.944  0.00  0.00    +0.000 A 
ATOM      2  C   UNL     1       1.123   9.316  18.876  0.00  0.00    +0.000 A 
ATOM      3  C   UNL     1       1.777   8.096  19.075  0.00  0.00    +0.000 A 
ATOM      4  C   UNL     1       1.870   7.572  20.355  0.00  0.00    +0.000 A 
ATOM      5  C   UNL     1       1.311   8.255  21.428  0.00  0.00    +0.000 A 
ATOM      6  C   UNL     1       0.605   9.470  21.240  0.00  0.00    +0.000 A 
ENDROOT
BRANCH   4   7
ATOM      7  N   UNL     1       2.513   6.343  20.550  0.00  0.00    +0.000 N 
ATOM      8  C   UNL     1       1.796   5.155  20.658  0.00  0.00    +0.000 C 
ATOM      9  O   UNL     1       0.589   5.060  20.448  0.00  0.00    +0.000 OA
ATOM     10  H   UNL     1       3.475   6.370  20.863  0.00  0.00    +0.000 HD
BRANCH   8  11
ATOM     11  C   UNL     1       2.656   3.949  21.029  0.00  0.00    +0.000 C 
BRANCH  11  12
ATOM     12  O   UNL     1       2.641   3.054  19.926  0.00  0.00    +0.000 OA
BRANCH  12  13
ATOM     13  C   UNL     1       3.541   3.292  18.927  0.00  0.00    +0.000 A 
ATOM     14  C   UNL     1       3.129   2.895  17.656  0.00  0.00    +0.000 A 
ATOM     15  C   UNL     1       3.921   3.156  16.533  0.00  0.00    +0.000 A 
ATOM     16  C   UNL     1       5.141   3.849  16.641  0.00  0.00    +0.000 A 
ATOM     17  C   UNL     1       5.544   4.227  17.934  0.00  0.00    +0.000 A 
ATOM     18  C   UNL     1       4.761   3.946  19.067  0.00  0.00    +0.000 A 
BRANCH  16  19
ATOM     19  C   UNL     1       5.938   4.195  15.443  0.00  0.00    +0.000 A 
ATOM     20  C   UNL     1       5.623   3.697  14.174  0.00  0.00    +0.000 A 
ATOM     21  C   UNL     1       6.390   4.041  13.054  0.00  0.00    +0.000 A 
ATOM     22  C   UNL     1       7.455   4.904  13.231  0.00  0.00    +0.000 A 
ATOM     23  N   UNL     1       7.801   5.417  14.430  0.00  0.00    +0.000 NA
ATOM     24  C   UNL     1       7.046   5.046  15.496  0.00  0.00    +0.000 A 
ENDBRANCH  16  19
ENDBRANCH  12  13
ENDBRANCH  11  12
ENDBRANCH   8  11
ENDBRANCH   4   7
BRANCH   6  25
ATOM     25  C   UNL     1      -0.080  10.034  22.463  0.00  0.00    +0.000 C 
ATOM     26  F   UNL     1      -1.395   9.733  22.617  0.00  0.00    +0.000 F 
ATOM     27  F   UNL     1       0.513   9.573  23.610  0.00  0.00    +0.000 F 
ATOM     28  F   UNL     1       0.020  11.392  22.539  0.00  0.00    +0.000 F 
ENDBRANCH   6  25
BRANCH   1  29
ATOM     29  C   UNL     1      -0.211  11.298  19.597  0.00  0.00    +0.000 C 
BRANCH  29  33
ATOM     30  N   UNL     1       0.744  14.904  20.196  0.00  0.00    +0.000 NA
ATOM     31  C   UNL     1      -0.475  14.508  19.451  0.00  0.00    +0.000 C 
ATOM     32  C   UNL     1      -0.279  13.440  18.342  0.00  0.00    +0.000 C 
ATOM     33  N   UNL     1       0.501  12.242  18.721  0.00  0.00    +0.000 NA
ATOM     34  C   UNL     1       1.737  12.709  19.406  0.00  0.00    +0.000 C 
ATOM     35  C   UNL     1       1.480  13.687  20.581  0.00  0.00    +0.000 C 
BRANCH  30  37
ATOM     36  C   UNL     1       3.027  15.912  19.877  0.00  0.00    +0.000 C 
ATOM     37  C   UNL     1       1.562  15.866  19.436  0.00  0.00    +0.000 C 
ENDBRANCH  30  37
ENDBRANCH  29  33
ENDBRANCH   1  29
TORSDOF 9
ENDMDL
MODEL 4
REMARK VINA RESULT:      -8.5      2.678      3.495
REMARK  Name = 
REMARK  10 active torsions:
REMARK  status: ('A' for Active; 'I' for Inactive)
REMARK    1  A    between atoms: C_1  and  C_2
REMARK    2  A    between atoms: C_2  and  N_3
REMARK    3  A    between atoms: N_6  and  C_7
REMARK    4  A    between atoms: C_7  and  C_8
REMARK    5  A    between atoms: C_11  and  N_12
REMARK    6  A    between atoms: C_13  and  C_15
REMARK    7  A    between atoms: C_15  and  O_16
REMARK    8  A    between atoms: O_16  and  C_17
REMARK    9  A    between atoms: C_20  and  C_21
REMARK   10  A    between atoms: C_30  and  C_31
REMARK                            x       y       z     vdW  Elec       q    Type
REMARK                         _______ _______ _______ _____ _____    ______ ____
ROOT
ATOM      1  C   UNL     1       0.507   9.596  20.150  0.00  0.00    +0.000 A 
ATOM      2  C   UNL     1       0.301   8.972  21.397  0.00  0.00    +0.000 A 
ATOM      3  C   UNL     1       0.873   7.735  21.704  0.00  0.00    +0.000 A 
ATOM      4  C   UNL     1       1.655   7.090  20.757  0.00  0.00    +0.000 A 
ATOM      5  C   UNL     1       1.867   7.678  19.516  0.00  0.00    +0.000 A 
ATOM      6  C   UNL     1       1.331   8.952  19.202  0.00  0.00    +0.000 A 
ENDROOT
BRANCH   4   7
ATOM      7  N   UNL     1       2.240   5.858  21.071  0.00  0.00    +0.000 N 
ATOM      8  C   UNL     1       1.573   4.657  20.847  0.00  0.00    +0.000 C 
ATOM      9  O   UNL     1       0.511   4.565  20.235  0.00  0.00    +0.000 OA
ATOM     10  H   UNL     1       3.039   5.870  21.692  0.00  0.00    +0.000 HD
BRANCH   8  11
ATOM     11  C   UNL     1       2.302   3.434  21.401  0.00  0.00    +0.000 C 
BRANCH  11  12
ATOM     12  O   UNL     1       2.458   2.507  20.336  0.00  0.00    +0.000 OA
BRANCH  12  13
ATOM     13  C   UNL     1       3.357   2.834  19.361  0.00  0.00    +0.000 A 
ATOM     14  C   UNL     1       2.855   2.798  18.062  0.00  0.00    +0.000 A 
ATOM     15  C   UNL     1       3.648   3.190  16.977  0.00  0.00    +0.000 A 
ATOM     16  C   UNL     1       4.961   3.659  17.161  0.00  0.00    +0.000 A 
ATOM     17  C   UNL     1       5.452   3.673  18.479  0.00  0.00    +0.000 A 
ATOM     18  C   UNL     1       4.666   3.258  19.568  0.00  0.00    +0.000 A 
BRANCH  16  19
ATOM     19  C   UNL     1       5.770   4.149  16.022  0.00  0.00    +0.000 A 
ATOM     20  C   UNL     1       5.608   3.644  14.727  0.00  0.00    +0.000 A 
ATOM     21  C   UNL     1       6.382   4.126  13.665  0.00  0.00    +0.000 A 
ATOM     22  C   UNL     1       7.295   5.130  13.923  0.00  0.00    +0.000 A 
ATOM     23  N   UNL     1       7.489   5.656  15.150  0.00  0.00    +0.000 NA
ATOM     24  C   UNL     1       6.734   5.151  16.160  0.00  0.00    +0.000 A 
ENDBRANCH  16  19
ENDBRANCH  12  13
ENDBRANCH  11  12
ENDBRANCH   8  11
ENDBRANCH   4   7
BRANCH   6  25
ATOM     25  C   UNL     1       1.758   9.543  17.879  0.00  0.00    +0.000 C 
ATOM     26  F   UNL     1       2.545  10.648  17.931  0.00  0.00    +0.000 F 
ATOM     27  F   UNL     1       2.487   8.637  17.154  0.00  0.00    +0.000 F 
ATOM     28  F   UNL     1       0.698   9.857  17.080  0.00  0.00    +0.000 F 
ENDBRANCH   6  25
BRANCH   1  29
ATOM     29  C   UNL     1      -0.102  10.972  19.959  0.00  0.00    +0.000 C 
BRANCH  29  33
ATOM     30  N   UNL     1      -0.858  14.673  20.047  0.00  0.00    +0.000 NA
ATOM     31  C   UNL     1      -0.299  13.994  18.853  0.00  0.00    +0.000 C 
ATOM     32  C   UNL     1       0.921  13.067  19.104  0.00  0.00    +0.000 C 
ATOM     33  N   UNL     1       0.792  12.111  20.224  0.00  0.00    +0.000 NA
ATOM     34  C   UNL     1       0.290  12.865  21.405  0.00  0.00    +0.000 C 
ATOM     35  C   UNL     1      -0.997  13.685  21.132  0.00  0.00    +0.000 C 
BRANCH  30  37
ATOM     36  C   UNL     1      -0.121  16.177  21.925  0.00  0.00    +0.000 C 
ATOM     37  C   UNL     1      -0.061  15.852  20.430  0.00  0.00    +0.000 C 
ENDBRANCH  30  37
ENDBRANCH  29  33
ENDBRANCH   1  29
TORSDOF 9
ENDMDL
MODEL 5
REMARK VINA RESULT:      -8.5      2.029      2.725
REMARK  Name = 
REMARK  10 active torsions:
REMARK  status: ('A' for Active; 'I' for Inactive)
REMARK    1  A    between atoms: C_1  and  C_2
REMARK    2  A    between atoms: C_2  and  N_3
REMARK    3  A    between atoms: N_6  and  C_7
REMARK    4  A    between atoms: C_7  and  C_8
REMARK    5  A    between atoms: C_11  and  N_12
REMARK    6  A    between atoms: C_13  and  C_15
REMARK    7  A    between atoms: C_15  and  O_16
REMARK    8  A    between atoms: O_16  and  C_17
REMARK    9  A    between atoms: C_20  and  C_21
REMARK   10  A    between atoms: C_30  and  C_31
REMARK                            x       y       z     vdW  Elec       q    Type
REMARK                         _______ _______ _______ _____ _____    ______ ____
ROOT
ATOM      1  C   UNL     1       1.155   9.413  19.521  0.00  0.00    +0.000 A 
ATOM      2  C   UNL     1       1.996   8.707  18.637  0.00  0.00    +0.000 A 
ATOM      3  C   UNL     1       2.499   7.441  18.953  0.00  0.00    +0.000 A 
ATOM      4  C   UNL     1       2.178   6.865  20.173  0.00  0.00    +0.000 A 
ATOM      5  C   UNL     1       1.359   7.542  21.068  0.00  0.00    +0.000 A 
ATOM      6  C   UNL     1       0.804   8.806  20.747  0.00  0.00    +0.000 A 
ENDROOT
BRANCH   4   7
ATOM      7  N   UNL     1       2.671   5.591  20.482  0.00  0.00    +0.000 N 
ATOM      8  C   UNL     1       2.000   4.436  20.090  0.00  0.00    +0.000 C 
ATOM      9  O   UNL     1       1.031   4.428  19.334  0.00  0.00    +0.000 OA
ATOM     10  H   UNL     1       3.375   5.531  21.205  0.00  0.00    +0.000 HD
BRANCH   8  11
ATOM     11  C   UNL     1       2.602   3.152  20.657  0.00  0.00    +0.000 C 
BRANCH  11  12
ATOM     12  O   UNL     1       4.000   3.183  20.404  0.00  0.00    +0.000 OA
BRANCH  12  13
ATOM     13  C   UNL     1       4.389   3.447  19.122  0.00  0.00    +0.000 A 
ATOM     14  C   UNL     1       5.418   4.378  18.999  0.00  0.00    +0.000 A 
ATOM     15  C   UNL     1       5.967   4.677  17.747  0.00  0.00    +0.000 A 
ATOM     16  C   UNL     1       5.523   4.031  16.579  0.00  0.00    +0.000 A 
ATOM     17  C   UNL     1       4.473   3.106  16.725  0.00  0.00    +0.000 A 
ATOM     18  C   UNL     1       3.904   2.820  17.978  0.00  0.00    +0.000 A 
BRANCH  16  19
ATOM     19  C   UNL     1       6.158   4.289  15.267  0.00  0.00    +0.000 A 
ATOM     20  C   UNL     1       5.677   3.715  14.085  0.00  0.00    +0.000 A 
ATOM     21  C   UNL     1       6.292   3.976  12.855  0.00  0.00    +0.000 A 
ATOM     22  C   UNL     1       7.374   4.834  12.834  0.00  0.00    +0.000 A 
ATOM     23  N   UNL     1       7.877   5.419  13.942  0.00  0.00    +0.000 NA
ATOM     24  C   UNL     1       7.266   5.127  15.119  0.00  0.00    +0.000 A 
ENDBRANCH  16  19
ENDBRANCH  12  13
ENDBRANCH  11  12
ENDBRANCH   8  11
ENDBRANCH   4   7
BRANCH   6  25
ATOM     25  C   UNL     1      -0.186   9.367  21.740  0.00  0.00    +0.000 C 
ATOM     26  F   UNL     1       0.315  10.183  22.704  0.00  0.00    +0.000 F 
ATOM     27  F   UNL     1      -1.134  10.128  21.107  0.00  0.00    +0.000 F 
ATOM     28  F   UNL     1      -0.892   8.394  22.383  0.00  0.00    +0.000 F 
ENDBRANCH   6  25
BRANCH   1  29
ATOM     29  C   UNL     1       0.609  10.743  19.038  0.00  0.00    +0.000 C 
BRANCH  29  33
ATOM     30  N   UNL     1      -0.156  14.317  19.995  0.00  0.00    +0.000 NA
ATOM     31  C   UNL     1      -0.024  13.872  18.587  0.00  0.00    +0.000 C 
ATOM     32  C   UNL     1       1.229  13.017  18.256  0.00  0.00    +0.000 C 
ATOM     33  N   UNL     1       1.514  11.895  19.177  0.00  0.00    +0.000 NA
ATOM     34  C   UNL     1       1.428  12.421  20.567  0.00  0.00    +0.000 C 
ATOM     35  C   UNL     1       0.107  13.169  20.881  0.00  0.00    +0.000 C 
BRANCH  30  37
ATOM     36  C   UNL     1       0.843  16.447  19.102  0.00  0.00    +0.000 C 
ATOM     37  C   UNL     1       0.697  15.484  20.283  0.00  0.00    +0.000 C 
ENDBRANCH  30  37
ENDBRANCH  29  33
ENDBRANCH   1  29
TORSDOF 9
ENDMDL
MODEL 6
REMARK VINA RESULT:      -8.4      2.956      3.789
REMARK  Name = 
REMARK  10 active torsions:
REMARK  status: ('A' for Active; 'I' for Inactive)
REMARK    1  A    between atoms: C_1  and  C_2
REMARK    2  A    between atoms: C_2  and  N_3
REMARK    3  A    between atoms: N_6  and  C_7
REMARK    4  A    between atoms: C_7  and  C_8
REMARK    5  A    between atoms: C_11  and  N_12
REMARK    6  A    between atoms: C_13  and  C_15
REMARK    7  A    between atoms: C_15  and  O_16
REMARK    8  A    between atoms: O_16  and  C_17
REMARK    9  A    between atoms: C_20  and  C_21
REMARK   10  A    between atoms: C_30  and  C_31
REMARK                            x       y       z     vdW  Elec       q    Type
REMARK                         _______ _______ _______ _____ _____    ______ ____
ROOT
ATOM      1  C   UNL     1      -0.678  11.036  21.358  0.00  0.00    +0.000 A 
ATOM      2  C   UNL     1      -0.027  10.461  22.468  0.00  0.00    +0.000 A 
ATOM      3  C   UNL     1       0.669   9.252  22.367  0.00  0.00    +0.000 A 
ATOM      4  C   UNL     1       0.712   8.589  21.150  0.00  0.00    +0.000 A 
ATOM      5  C   UNL     1       0.070   9.129  20.042  0.00  0.00    +0.000 A 
ATOM      6  C   UNL     1      -0.602  10.374  20.114  0.00  0.00    +0.000 A 
ENDROOT
BRANCH   4   7
ATOM      7  N   UNL     1       1.421   7.386  21.046  0.00  0.00    +0.000 N 
ATOM      8  C   UNL     1       2.183   7.085  19.921  0.00  0.00    +0.000 C 
ATOM      9  O   UNL     1       2.416   7.883  19.016  0.00  0.00    +0.000 OA
ATOM     10  H   UNL     1       1.165   6.643  21.683  0.00  0.00    +0.000 HD
BRANCH   8  11
ATOM     11  C   UNL     1       2.748   5.666  19.922  0.00  0.00    +0.000 C 
BRANCH  11  12
ATOM     12  O   UNL     1       4.123   5.750  19.572  0.00  0.00    +0.000 OA
BRANCH  12  13
ATOM     13  C   UNL     1       4.454   5.413  18.290  0.00  0.00    +0.000 A 
ATOM     14  C   UNL     1       5.309   6.307  17.649  0.00  0.00    +0.000 A 
ATOM     15  C   UNL     1       5.791   6.039  16.363  0.00  0.00    +0.000 A 
ATOM     16  C   UNL     1       5.457   4.851  15.688  0.00  0.00    +0.000 A 
ATOM     17  C   UNL     1       4.581   3.970  16.348  0.00  0.00    +0.000 A 
ATOM     18  C   UNL     1       4.076   4.248  17.630  0.00  0.00    +0.000 A 
BRANCH  16  19
ATOM     19  C   UNL     1       6.031   4.531  14.362  0.00  0.00    +0.000 A 
ATOM     20  C   UNL     1       5.418   3.627  13.487  0.00  0.00    +0.000 A 
ATOM     21  C   UNL     1       5.978   3.343  12.236  0.00  0.00    +0.000 A 
ATOM     22  C   UNL     1       7.142   3.995  11.877  0.00  0.00    +0.000 A 
ATOM     23  N   UNL     1       7.773   4.878  12.679  0.00  0.00    +0.000 NA
ATOM     24  C   UNL     1       7.211   5.114  13.892  0.00  0.00    +0.000 A 
ENDBRANCH  16  19
ENDBRANCH  12  13
ENDBRANCH  11  12
ENDBRANCH   8  11
ENDBRANCH   4   7
BRANCH   6  25
ATOM     25  C   UNL     1      -1.129  10.920  18.807  0.00  0.00    +0.000 C 
ATOM     26  F   UNL     1      -0.989  10.126  17.714  0.00  0.00    +0.000 F 
ATOM     27  F   UNL     1      -2.477  11.157  18.887  0.00  0.00    +0.000 F 
ATOM     28  F   UNL     1      -0.581  12.126  18.484  0.00  0.00    +0.000 F 
ENDBRANCH   6  25
BRANCH   1  29
ATOM     29  C   UNL     1      -1.336  12.387  21.570  0.00  0.00    +0.000 C 
BRANCH  29  33
ATOM     30  N   UNL     1      -3.484  14.862  23.450  0.00  0.00    +0.000 NA
ATOM     31  C   UNL     1      -2.932  13.638  24.077  0.00  0.00    +0.000 C 
ATOM     32  C   UNL     1      -3.130  12.317  23.285  0.00  0.00    +0.000 C 
ATOM     33  N   UNL     1      -2.780  12.360  21.849  0.00  0.00    +0.000 NA
ATOM     34  C   UNL     1      -3.415  13.573  21.267  0.00  0.00    +0.000 C 
ATOM     35  C   UNL     1      -3.093  14.884  22.029  0.00  0.00    +0.000 C 
BRANCH  30  37
ATOM     36  C   UNL     1      -5.459  16.414  23.600  0.00  0.00    +0.000 C 
ATOM     37  C   UNL     1      -4.939  14.976  23.657  0.00  0.00    +0.000 C 
ENDBRANCH  30  37
ENDBRANCH  29  33
ENDBRANCH   1  29
TORSDOF 9
ENDMDL
MODEL 7
REMARK VINA RESULT:      -8.3      7.591     10.382
REMARK  Name = 
REMARK  10 active torsions:
REMARK  status: ('A' for Active; 'I' for Inactive)
REMARK    1  A    between atoms: C_1  and  C_2
REMARK    2  A    between atoms: C_2  and  N_3
REMARK    3  A    between atoms: N_6  and  C_7
REMARK    4  A    between atoms: C_7  and  C_8
REMARK    5  A    between atoms: C_11  and  N_12
REMARK    6  A    between atoms: C_13  and  C_15
REMARK    7  A    between atoms: C_15  and  O_16
REMARK    8  A    between atoms: O_16  and  C_17
REMARK    9  A    between atoms: C_20  and  C_21
REMARK   10  A    between atoms: C_30  and  C_31
REMARK                            x       y       z     vdW  Elec       q    Type
REMARK                         _______ _______ _______ _____ _____    ______ ____
ROOT
ATOM      1  C   UNL     1       4.455   5.031  16.819  0.00  0.00    +0.000 A 
ATOM      2  C   UNL     1       4.135   6.120  17.654  0.00  0.00    +0.000 A 
ATOM      3  C   UNL     1       4.981   7.227  17.776  0.00  0.00    +0.000 A 
ATOM      4  C   UNL     1       6.174   7.255  17.070  0.00  0.00    +0.000 A 
ATOM      5  C   UNL     1       6.519   6.190  16.246  0.00  0.00    +0.000 A 
ATOM      6  C   UNL     1       5.655   5.080  16.076  0.00  0.00    +0.000 A 
ENDROOT
BRANCH   4   7
ATOM      7  N   UNL     1       7.013   8.370  17.181  0.00  0.00    +0.000 N 
ATOM      8  C   UNL     1       8.064   8.403  18.093  0.00  0.00    +0.000 C 
ATOM      9  O   UNL     1       8.431   7.434  18.753  0.00  0.00    +0.000 OA
ATOM     10  H   UNL     1       6.687   9.236  16.772  0.00  0.00    +0.000 HD
BRANCH   8  11
ATOM     11  C   UNL     1       8.761   9.760  18.180  0.00  0.00    +0.000 C 
BRANCH  11  12
ATOM     12  O   UNL     1       9.505   9.784  19.391  0.00  0.00    +0.000 OA
BRANCH  12  13
ATOM     13  C   UNL     1       9.870  11.011  19.866  0.00  0.00    +0.000 A 
ATOM     14  C   UNL     1      10.805  11.689  19.086  0.00  0.00    +0.000 A 
ATOM     15  C   UNL     1      11.202  12.990  19.416  0.00  0.00    +0.000 A 
ATOM     16  C   UNL     1      10.655  13.666  20.521  0.00  0.00    +0.000 A 
ATOM     17  C   UNL     1       9.725  12.956  21.303  0.00  0.00    +0.000 A 
ATOM     18  C   UNL     1       9.341  11.642  20.988  0.00  0.00    +0.000 A 
BRANCH  16  19
ATOM     19  C   UNL     1      11.017  15.069  20.822  0.00  0.00    +0.000 A 
ATOM     20  C   UNL     1      12.010  15.748  20.107  0.00  0.00    +0.000 A 
ATOM     21  C   UNL     1      12.333  17.077  20.406  0.00  0.00    +0.000 A 
ATOM     22  C   UNL     1      11.629  17.710  21.413  0.00  0.00    +0.000 A 
ATOM     23  N   UNL     1      10.659  17.105  22.131  0.00  0.00    +0.000 NA
ATOM     24  C   UNL     1      10.387  15.811  21.825  0.00  0.00    +0.000 A 
ENDBRANCH  16  19
ENDBRANCH  12  13
ENDBRANCH  11  12
ENDBRANCH   8  11
ENDBRANCH   4   7
BRANCH   6  25
ATOM     25  C   UNL     1       6.078   4.063  15.042  0.00  0.00    +0.000 C 
ATOM     26  F   UNL     1       7.319   4.212  14.512  0.00  0.00    +0.000 F 
ATOM     27  F   UNL     1       6.083   2.800  15.576  0.00  0.00    +0.000 F 
ATOM     28  F   UNL     1       5.212   3.993  13.991  0.00  0.00    +0.000 F 
ENDBRANCH   6  25
BRANCH   1  29
ATOM     29  C   UNL     1       3.426   3.922  16.709  0.00  0.00    +0.000 C 
BRANCH  29  33
ATOM     30  N   UNL     1       1.322   3.656  19.836  0.00  0.00    +0.000 NA
ATOM     31  C   UNL     1       2.673   4.265  19.825  0.00  0.00    +0.000 C 
ATOM     32  C   UNL     1       3.786   3.445  19.119  0.00  0.00    +0.000 C 
ATOM     33  N   UNL     1       3.453   2.913  17.780  0.00  0.00    +0.000 NA
ATOM     34  C   UNL     1       2.119   2.261  17.874  0.00  0.00    +0.000 C 
ATOM     35  C   UNL     1       1.014   3.163  18.481  0.00  0.00    +0.000 C 
BRANCH  30  37
ATOM     36  C   UNL     1       2.301   2.673  21.935  0.00  0.00    +0.000 C 
ATOM     37  C   UNL     1       1.196   2.620  20.877  0.00  0.00    +0.000 C 
ENDBRANCH  30  37
ENDBRANCH  29  33
ENDBRANCH   1  29
TORSDOF 9
ENDMDL
MODEL 8
REMARK VINA RESULT:      -8.2      0.834      1.176
REMARK  Name = 
REMARK  10 active torsions:
REMARK  status: ('A' for Active; 'I' for Inactive)
REMARK    1  A    between atoms: C_1  and  C_2
REMARK    2  A    between atoms: C_2  and  N_3
REMARK    3  A    between atoms: N_6  and  C_7
REMARK    4  A    between atoms: C_7  and  C_8
REMARK    5  A    between atoms: C_11  and  N_12
REMARK    6  A    between atoms: C_13  and  C_15
REMARK    7  A    between atoms: C_15  and  O_16
REMARK    8  A    between atoms: O_16  and  C_17
REMARK    9  A    between atoms: C_20  and  C_21
REMARK   10  A    between atoms: C_30  and  C_31
REMARK                            x       y       z     vdW  Elec       q    Type
REMARK                         _______ _______ _______ _____ _____    ______ ____
ROOT
ATOM      1  C   UNL     1       0.478   9.851  20.114  0.00  0.00    +0.000 A 
ATOM      2  C   UNL     1       1.165   9.346  18.992  0.00  0.00    +0.000 A 
ATOM      3  C   UNL     1       1.932   8.179  19.063  0.00  0.00    +0.000 A 
ATOM      4  C   UNL     1       2.036   7.503  20.269  0.00  0.00    +0.000 A 
ATOM      5  C   UNL     1       1.377   7.983  21.394  0.00  0.00    +0.000 A 
ATOM      6  C   UNL     1       0.560   9.139  21.331  0.00  0.00    +0.000 A 
ENDROOT
BRANCH   4   7
ATOM      7  N   UNL     1       2.792   6.326  20.335  0.00  0.00    +0.000 N 
ATOM      8  C   UNL     1       2.192   5.085  20.527  0.00  0.00    +0.000 C 
ATOM      9  O   UNL     1       0.978   4.898  20.504  0.00  0.00    +0.000 OA
ATOM     10  H   UNL     1       3.786   6.424  20.496  0.00  0.00    +0.000 HD
BRANCH   8  11
ATOM     11  C   UNL     1       3.188   3.945  20.733  0.00  0.00    +0.000 C 
BRANCH  11  12
ATOM     12  O   UNL     1       3.099   3.086  19.605  0.00  0.00    +0.000 OA
BRANCH  12  13
ATOM     13  C   UNL     1       3.952   3.338  18.569  0.00  0.00    +0.000 A 
ATOM     14  C   UNL     1       3.539   2.844  17.333  0.00  0.00    +0.000 A 
ATOM     15  C   UNL     1       4.280   3.105  16.175  0.00  0.00    +0.000 A 
ATOM     16  C   UNL     1       5.445   3.893  16.212  0.00  0.00    +0.000 A 
ATOM     17  C   UNL     1       5.851   4.367  17.472  0.00  0.00    +0.000 A 
ATOM     18  C   UNL     1       5.121   4.089  18.640  0.00  0.00    +0.000 A 
BRANCH  16  19
ATOM     19  C   UNL     1       6.183   4.234  14.975  0.00  0.00    +0.000 A 
ATOM     20  C   UNL     1       5.788   3.754  13.721  0.00  0.00    +0.000 A 
ATOM     21  C   UNL     1       6.500   4.093  12.563  0.00  0.00    +0.000 A 
ATOM     22  C   UNL     1       7.590   4.933  12.689  0.00  0.00    +0.000 A 
ATOM     23  N   UNL     1       8.011   5.428  13.871  0.00  0.00    +0.000 NA
ATOM     24  C   UNL     1       7.308   5.062  14.974  0.00  0.00    +0.000 A 
ENDBRANCH  16  19
ENDBRANCH  12  13
ENDBRANCH  11  12
ENDBRANCH   8  11
ENDBRANCH   4   7
BRANCH   6  25
ATOM     25  C   UNL     1      -0.217   9.471  22.584  0.00  0.00    +0.000 C 
ATOM     26  F   UNL     1       0.495   9.556  23.738  0.00  0.00    +0.000 F 
ATOM     27  F   UNL     1      -0.828  10.693  22.469  0.00  0.00    +0.000 F 
ATOM     28  F   UNL     1      -1.234   8.593  22.817  0.00  0.00    +0.000 F 
ENDBRANCH   6  25
BRANCH   1  29
ATOM     29  C   UNL     1      -0.383  11.081  19.899  0.00  0.00    +0.000 C 
BRANCH  29  33
ATOM     30  N   UNL     1      -3.622  10.927  17.960  0.00  0.00    +0.000 NA
ATOM     31  C   UNL     1      -2.603   9.852  17.910  0.00  0.00    +0.000 C 
ATOM     32  C   UNL     1      -1.140  10.309  17.663  0.00  0.00    +0.000 C 
ATOM     33  N   UNL     1      -0.659  11.432  18.497  0.00  0.00    +0.000 NA
ATOM     34  C   UNL     1      -1.695  12.500  18.454  0.00  0.00    +0.000 C 
ATOM     35  C   UNL     1      -3.121  12.015  18.819  0.00  0.00    +0.000 C 
BRANCH  30  37
ATOM     36  C   UNL     1      -3.246  10.678  15.485  0.00  0.00    +0.000 C 
ATOM     37  C   UNL     1      -4.008  11.380  16.611  0.00  0.00    +0.000 C 
ENDBRANCH  30  37
ENDBRANCH  29  33
ENDBRANCH   1  29
TORSDOF 9
ENDMDL
MODEL 9
REMARK VINA RESULT:      -8.2      2.006      2.899
REMARK  Name = 
REMARK  10 active torsions:
REMARK  status: ('A' for Active; 'I' for Inactive)
REMARK    1  A    between atoms: C_1  and  C_2
REMARK    2  A    between atoms: C_2  and  N_3
REMARK    3  A    between atoms: N_6  and  C_7
REMARK    4  A    between atoms: C_7  and  C_8
REMARK    5  A    between atoms: C_11  and  N_12
REMARK    6  A    between atoms: C_13  and  C_15
REMARK    7  A    between atoms: C_15  and  O_16
REMARK    8  A    between atoms: O_16  and  C_17
REMARK    9  A    between atoms: C_20  and  C_21
REMARK   10  A    between atoms: C_30  and  C_31
REMARK                            x       y       z     vdW  Elec       q    Type
REMARK                         _______ _______ _______ _____ _____    ______ ____
ROOT
ATOM      1  C   UNL     1       1.032   9.808  19.697  0.00  0.00    +0.000 A 
ATOM      2  C   UNL     1       1.754   9.377  18.565  0.00  0.00    +0.000 A 
ATOM      3  C   UNL     1       2.338   8.109  18.504  0.00  0.00    +0.000 A 
ATOM      4  C   UNL     1       2.220   7.250  19.587  0.00  0.00    +0.000 A 
ATOM      5  C   UNL     1       1.522   7.652  20.719  0.00  0.00    +0.000 A 
ATOM      6  C   UNL     1       0.886   8.917  20.782  0.00  0.00    +0.000 A 
ENDROOT
BRANCH   4   7
ATOM      7  N   UNL     1       2.793   5.974  19.518  0.00  0.00    +0.000 N 
ATOM      8  C   UNL     1       2.223   4.884  20.169  0.00  0.00    +0.000 C 
ATOM      9  O   UNL     1       1.123   4.910  20.717  0.00  0.00    +0.000 OA
ATOM     10  H   UNL     1       3.753   5.915  19.204  0.00  0.00    +0.000 HD
BRANCH   8  11
ATOM     11  C   UNL     1       3.075   3.618  20.113  0.00  0.00    +0.000 C 
BRANCH  11  12
ATOM     12  O   UNL     1       4.409   4.010  19.816  0.00  0.00    +0.000 OA
BRANCH  12  13
ATOM     13  C   UNL     1       4.743   4.108  18.495  0.00  0.00    +0.000 A 
ATOM     14  C   UNL     1       5.884   4.862  18.232  0.00  0.00    +0.000 A 
ATOM     15  C   UNL     1       6.383   4.973  16.929  0.00  0.00    +0.000 A 
ATOM     16  C   UNL     1       5.772   4.309  15.851  0.00  0.00    +0.000 A 
ATOM     17  C   UNL     1       4.613   3.566  16.137  0.00  0.00    +0.000 A 
ATOM     18  C   UNL     1       4.096   3.470  17.441  0.00  0.00    +0.000 A 
BRANCH  16  19
ATOM     19  C   UNL     1       6.347   4.362  14.488  0.00  0.00    +0.000 A 
ATOM     20  C   UNL     1       5.850   3.575  13.443  0.00  0.00    +0.000 A 
ATOM     21  C   UNL     1       6.407   3.645  12.160  0.00  0.00    +0.000 A 
ATOM     22  C   UNL     1       7.448   4.529  11.947  0.00  0.00    +0.000 A 
ATOM     23  N   UNL     1       7.963   5.314  12.916  0.00  0.00    +0.000 NA
ATOM     24  C   UNL     1       7.409   5.205  14.151  0.00  0.00    +0.000 A 
ENDBRANCH  16  19
ENDBRANCH  12  13
ENDBRANCH  11  12
ENDBRANCH   8  11
ENDBRANCH   4   7
BRANCH   6  25
ATOM     25  C   UNL     1       0.037   9.171  22.006  0.00  0.00    +0.000 C 
ATOM     26  F   UNL     1       0.692   9.271  23.191  0.00  0.00    +0.000 F 
ATOM     27  F   UNL     1      -0.642  10.357  21.889  0.00  0.00    +0.000 F 
ATOM     28  F   UNL     1      -0.933   8.229  22.176  0.00  0.00    +0.000 F 
ENDBRANCH   6  25
BRANCH   1  29
ATOM     29  C   UNL     1       0.379  11.174  19.619  0.00  0.00    +0.000 C 
BRANCH  29  33
ATOM     30  N   UNL     1       0.535  14.858  18.790  0.00  0.00    +0.000 NA
ATOM     31  C   UNL     1       1.582  13.894  18.374  0.00  0.00    +0.000 C 
ATOM     32  C   UNL     1       2.115  12.945  19.481  0.00  0.00    +0.000 C 
ATOM     33  N   UNL     1       1.091  12.265  20.303  0.00  0.00    +0.000 NA
ATOM     34  C   UNL     1       0.109  13.294  20.740  0.00  0.00    +0.000 C 
ATOM     35  C   UNL     1      -0.480  14.140  19.583  0.00  0.00    +0.000 C 
BRANCH  30  37
ATOM     36  C   UNL     1       2.295  16.655  18.762  0.00  0.00    +0.000 C 
ATOM     37  C   UNL     1       1.107  16.021  19.490  0.00  0.00    +0.000 C 
ENDBRANCH  30  37
ENDBRANCH  29  33
ENDBRANCH   1  29
TORSDOF 9
ENDMDL
