MODEL 1
REMARK VINA RESULT:      -7.0      0.000      0.000
REMARK  Name = 
REMARK  6 active torsions:
REMARK  status: ('A' for Active; 'I' for Inactive)
REMARK    1  A    between atoms: C_1  and  C_2
REMARK    2  A    between atoms: C_2  and  C_3
REMARK    3  A    between atoms: C_2  and  C_7
REMARK    4  A    between atoms: C_3  and  N_4
REMARK    5  A    between atoms: C_7  and  N_8
REMARK    6  A    between atoms: C_11  and  O_12
REMARK                            x       y       z     vdW  Elec       q    Type
REMARK                         _______ _______ _______ _____ _____    ______ ____
ROOT
ATOM      1  N   UNL     1       3.542   5.147  17.753  0.00  0.00    +0.000 N 
ATOM      2  C   UNL     1       2.983   3.823  17.520  0.00  0.00    +0.000 C 
ATOM      3  C   UNL     1       1.570   3.666  18.067  0.00  0.00    +0.000 C 
ATOM      4  C   UNL     1       1.537   3.508  19.583  0.00  0.00    +0.000 C 
ATOM      5  C   UNL     1       1.704   4.784  20.403  0.00  0.00    +0.000 C 
ATOM      6  C   UNL     1       2.613   5.872  19.866  0.00  0.00    +0.000 C 
ATOM      7  C   UNL     1       3.836   5.444  19.089  0.00  0.00    +0.000 C 
ATOM      8  O   UNL     1       4.973   5.522  19.543  0.00  0.00    +0.000 OA
ENDROOT
BRANCH   4   9
ATOM      9  O   UNL     1       0.279   2.921  19.942  0.00  0.00    +0.000 OA
ATOM     10  H   UNL     1      -0.302   2.948  19.162  0.00  0.00    +0.000 HD
ENDBRANCH   4   9
BRANCH   1  11
ATOM     11  C   UNL     1       4.514   5.622  16.765  0.00  0.00    +0.000 C 
BRANCH  11  13
ATOM     12  C   UNL     1       5.376   4.454  14.711  0.00  0.00    +0.000 C 
ATOM     13  C   UNL     1       5.410   4.473  16.241  0.00  0.00    +0.000 C 
BRANCH  13  14
ATOM     14  C   UNL     1       6.855   4.624  16.753  0.00  0.00    +0.000 C 
BRANCH  14  15
ATOM     15  N   UNL     1       7.542   5.695  16.016  0.00  0.00    +0.000 NA
ATOM     16  N   UNL     1       7.607   6.789  16.606  0.00  0.00    +0.000 NA
ATOM     17  N   UNL     1       7.660   7.785  17.155  0.00  0.00    +0.000 NA
ENDBRANCH  14  15
ENDBRANCH  13  14
ENDBRANCH  11  13
ENDBRANCH   1  11
TORSDOF 5
ENDMDL
MODEL 2
REMARK VINA RESULT:      -6.9      1.796      2.268
REMARK  Name = 
REMARK  6 active torsions:
REMARK  status: ('A' for Active; 'I' for Inactive)
REMARK    1  A    between atoms: C_1  and  C_2
REMARK    2  A    between atoms: C_2  and  C_3
REMARK    3  A    between atoms: C_2  and  C_7
REMARK    4  A    between atoms: C_3  and  N_4
REMARK    5  A    between atoms: C_7  and  N_8
REMARK    6  A    between atoms: C_11  and  O_12
REMARK                            x       y       z     vdW  Elec       q    Type
REMARK                         _______ _______ _______ _____ _____    ______ ____
ROOT
ATOM      1  N   UNL     1       4.183   3.859  18.737  0.00  0.00    +0.000 N 
ATOM      2  C   UNL     1       3.387   3.460  17.585  0.00  0.00    +0.000 C 
ATOM      3  C   UNL     1       1.888   3.500  17.852  0.00  0.00    +0.000 C 
ATOM      4  C   UNL     1       1.408   2.327  18.700  0.00  0.00    +0.000 C 
ATOM      5  C   UNL     1       1.670   2.420  20.201  0.00  0.00    +0.000 C 
ATOM      6  C   UNL     1       2.938   3.106  20.669  0.00  0.00    +0.000 C 
ATOM      7  C   UNL     1       4.173   2.961  19.810  0.00  0.00    +0.000 C 
ATOM      8  O   UNL     1       5.125   2.257  20.128  0.00  0.00    +0.000 OA
ENDROOT
BRANCH   4   9
ATOM      9  O   UNL     1      -0.007   2.192  18.513  0.00  0.00    +0.000 OA
ATOM     10  H   UNL     1      -0.161   1.774  17.648  0.00  0.00    +0.000 HD
ENDBRANCH   4   9
BRANCH   1  11
ATOM     11  C   UNL     1       5.474   4.488  18.443  0.00  0.00    +0.000 C 
BRANCH  11  13
ATOM     12  C   UNL     1       5.528   6.563  17.023  0.00  0.00    +0.000 C 
ATOM     13  C   UNL     1       5.534   5.033  16.995  0.00  0.00    +0.000 C 
BRANCH  13  14
ATOM     14  C   UNL     1       6.779   4.504  16.258  0.00  0.00    +0.000 C 
BRANCH  14  15
ATOM     15  N   UNL     1       7.550   5.627  15.703  0.00  0.00    +0.000 NA
ATOM     16  N   UNL     1       7.820   5.538  14.492  0.00  0.00    +0.000 NA
ATOM     17  N   UNL     1       8.062   5.445  13.382  0.00  0.00    +0.000 NA
ENDBRANCH  14  15
ENDBRANCH  13  14
ENDBRANCH  11  13
ENDBRANCH   1  11
TORSDOF 5
ENDMDL
MODEL 3
REMARK VINA RESULT:      -6.9      1.949      2.494
REMARK  Name = 
REMARK  6 active torsions:
REMARK  status: ('A' for Active; 'I' for Inactive)
REMARK    1  A    between atoms: C_1  and  C_2
REMARK    2  A    between atoms: C_2  and  C_3
REMARK    3  A    between atoms: C_2  and  C_7
REMARK    4  A    between atoms: C_3  and  N_4
REMARK    5  A    between atoms: C_7  and  N_8
REMARK    6  A    between atoms: C_11  and  O_12
REMARK                            x       y       z     vdW  Elec       q    Type
REMARK                         _______ _______ _______ _____ _____    ______ ____
ROOT
ATOM      1  N   UNL     1       4.412   3.613  18.539  0.00  0.00    +0.000 N 
ATOM      2  C   UNL     1       3.598   3.093  17.449  0.00  0.00    +0.000 C 
ATOM      3  C   UNL     1       2.105   3.313  17.661  0.00  0.00    +0.000 C 
ATOM      4  C   UNL     1       1.506   2.353  18.682  0.00  0.00    +0.000 C 
ATOM      5  C   UNL     1       1.754   2.682  20.152  0.00  0.00    +0.000 C 
ATOM      6  C   UNL     1       3.074   3.322  20.533  0.00  0.00    +0.000 C 
ATOM      7  C   UNL     1       4.302   2.920  19.750  0.00  0.00    +0.000 C 
ATOM      8  O   UNL     1       5.179   2.199  20.213  0.00  0.00    +0.000 OA
ENDROOT
BRANCH   4   9
ATOM      9  O   UNL     1       0.087   2.316  18.478  0.00  0.00    +0.000 OA
ATOM     10  H   UNL     1      -0.157   1.415  18.204  0.00  0.00    +0.000 HD
ENDBRANCH   4   9
BRANCH   1  11
ATOM     11  C   UNL     1       5.760   4.063  18.182  0.00  0.00    +0.000 C 
BRANCH  11  13
ATOM     12  C   UNL     1       7.271   5.708  19.338  0.00  0.00    +0.000 C 
ATOM     13  C   UNL     1       5.980   5.556  18.529  0.00  0.00    +0.000 C 
BRANCH  13  14
ATOM     14  C   UNL     1       6.030   6.417  17.253  0.00  0.00    +0.000 C 
BRANCH  14  15
ATOM     15  N   UNL     1       7.377   6.368  16.664  0.00  0.00    +0.000 NA
ATOM     16  N   UNL     1       7.449   5.823  15.548  0.00  0.00    +0.000 NA
ATOM     17  N   UNL     1       7.503   5.322  14.527  0.00  0.00    +0.000 NA
ENDBRANCH  14  15
ENDBRANCH  13  14
ENDBRANCH  11  13
ENDBRANCH   1  11
TORSDOF 5
ENDMDL
MODEL 4
REMARK VINA RESULT:      -6.9      1.783      2.786
REMARK  Name = 
REMARK  6 active torsions:
REMARK  status: ('A' for Active; 'I' for Inactive)
REMARK    1  A    between atoms: C_1  and  C_2
REMARK    2  A    between atoms: C_2  and  C_3
REMARK    3  A    between atoms: C_2  and  C_7
REMARK    4  A    between atoms: C_3  and  N_4
REMARK    5  A    between atoms: C_7  and  N_8
REMARK    6  A    between atoms: C_11  and  O_12
REMARK                            x       y       z     vdW  Elec       q    Type
REMARK                         _______ _______ _______ _____ _____    ______ ____
ROOT
ATOM      1  N   UNL     1       4.575   3.905  18.639  0.00  0.00    +0.000 N 
ATOM      2  C   UNL     1       3.870   4.798  19.548  0.00  0.00    +0.000 C 
ATOM      3  C   UNL     1       2.739   4.111  20.304  0.00  0.00    +0.000 C 
ATOM      4  C   UNL     1       1.506   3.879  19.438  0.00  0.00    +0.000 C 
ATOM      5  C   UNL     1       1.567   2.699  18.470  0.00  0.00    +0.000 C 
ATOM      6  C   UNL     1       2.901   2.354  17.838  0.00  0.00    +0.000 C 
ATOM      7  C   UNL     1       3.842   3.492  17.521  0.00  0.00    +0.000 C 
ATOM      8  O   UNL     1       4.054   3.880  16.377  0.00  0.00    +0.000 OA
ENDROOT
BRANCH   4   9
ATOM      9  O   UNL     1       0.385   3.672  20.306  0.00  0.00    +0.000 OA
ATOM     10  H   UNL     1       0.349   2.728  20.538  0.00  0.00    +0.000 HD
ENDBRANCH   4   9
BRANCH   1  11
ATOM     11  C   UNL     1       5.988   4.211  18.399  0.00  0.00    +0.000 C 
BRANCH  11  13
ATOM     12  C   UNL     1       7.699   5.862  19.221  0.00  0.00    +0.000 C 
ATOM     13  C   UNL     1       6.298   5.711  18.622  0.00  0.00    +0.000 C 
BRANCH  13  14
ATOM     14  C   UNL     1       6.181   6.500  17.304  0.00  0.00    +0.000 C 
BRANCH  14  15
ATOM     15  N   UNL     1       7.471   6.496  16.598  0.00  0.00    +0.000 NA
ATOM     16  N   UNL     1       7.493   5.850  15.535  0.00  0.00    +0.000 NA
ATOM     17  N   UNL     1       7.501   5.255  14.563  0.00  0.00    +0.000 NA
ENDBRANCH  14  15
ENDBRANCH  13  14
ENDBRANCH  11  13
ENDBRANCH   1  11
TORSDOF 5
ENDMDL
MODEL 5
REMARK VINA RESULT:      -6.8      1.411      1.881
REMARK  Name = 
REMARK  6 active torsions:
REMARK  status: ('A' for Active; 'I' for Inactive)
REMARK    1  A    between atoms: C_1  and  C_2
REMARK    2  A    between atoms: C_2  and  C_3
REMARK    3  A    between atoms: C_2  and  C_7
REMARK    4  A    between atoms: C_3  and  N_4
REMARK    5  A    between atoms: C_7  and  N_8
REMARK    6  A    between atoms: C_11  and  O_12
REMARK                            x       y       z     vdW  Elec       q    Type
REMARK                         _______ _______ _______ _____ _____    ______ ____
ROOT
ATOM      1  N   UNL     1       4.169   4.027  17.880  0.00  0.00    +0.000 N 
ATOM      2  C   UNL     1       3.249   2.901  17.807  0.00  0.00    +0.000 C 
ATOM      3  C   UNL     1       1.844   3.246  18.287  0.00  0.00    +0.000 C 
ATOM      4  C   UNL     1       1.745   3.339  19.806  0.00  0.00    +0.000 C 
ATOM      5  C   UNL     1       2.270   4.623  20.443  0.00  0.00    +0.000 C 
ATOM      6  C   UNL     1       3.466   5.305  19.810  0.00  0.00    +0.000 C 
ATOM      7  C   UNL     1       4.519   4.429  19.174  0.00  0.00    +0.000 C 
ATOM      8  O   UNL     1       5.622   4.243  19.678  0.00  0.00    +0.000 OA
ENDROOT
BRANCH   4   9
ATOM      9  O   UNL     1       0.366   3.203  20.172  0.00  0.00    +0.000 OA
ATOM     10  H   UNL     1       0.030   2.374  19.789  0.00  0.00    +0.000 HD
ENDBRANCH   4   9
BRANCH   1  11
ATOM     11  C   UNL     1       5.251   4.042  16.893  0.00  0.00    +0.000 C 
BRANCH  11  13
ATOM     12  C   UNL     1       5.709   6.510  16.722  0.00  0.00    +0.000 C 
ATOM     13  C   UNL     1       5.175   5.287  15.974  0.00  0.00    +0.000 C 
BRANCH  13  14
ATOM     14  C   UNL     1       5.962   5.057  14.669  0.00  0.00    +0.000 C 
BRANCH  14  15
ATOM     15  N   UNL     1       7.406   5.144  14.931  0.00  0.00    +0.000 NA
ATOM     16  N   UNL     1       8.092   5.574  13.986  0.00  0.00    +0.000 NA
ATOM     17  N   UNL     1       8.710   5.968  13.114  0.00  0.00    +0.000 NA
ENDBRANCH  14  15
ENDBRANCH  13  14
ENDBRANCH  11  13
ENDBRANCH   1  11
TORSDOF 5
ENDMDL
MODEL 6
REMARK VINA RESULT:      -6.8      1.940      2.752
REMARK  Name = 
REMARK  6 active torsions:
REMARK  status: ('A' for Active; 'I' for Inactive)
REMARK    1  A    between atoms: C_1  and  C_2
REMARK    2  A    between atoms: C_2  and  C_3
REMARK    3  A    between atoms: C_2  and  C_7
REMARK    4  A    between atoms: C_3  and  N_4
REMARK    5  A    between atoms: C_7  and  N_8
REMARK    6  A    between atoms: C_11  and  O_12
REMARK                            x       y       z     vdW  Elec       q    Type
REMARK                         _______ _______ _______ _____ _____    ______ ____
ROOT
ATOM      1  N   UNL     1       2.750   4.928  18.700  0.00  0.00    +0.000 N 
ATOM      2  C   UNL     1       2.392   5.372  20.040  0.00  0.00    +0.000 C 
ATOM      3  C   UNL     1       2.512   4.270  21.086  0.00  0.00    +0.000 C 
ATOM      4  C   UNL     1       1.367   3.265  21.019  0.00  0.00    +0.000 C 
ATOM      5  C   UNL     1       1.448   2.215  19.914  0.00  0.00    +0.000 C 
ATOM      6  C   UNL     1       2.067   2.611  18.589  0.00  0.00    +0.000 C 
ATOM      7  C   UNL     1       1.856   4.028  18.110  0.00  0.00    +0.000 C 
ATOM      8  O   UNL     1       1.102   4.312  17.185  0.00  0.00    +0.000 OA
ENDROOT
BRANCH   4   9
ATOM      9  O   UNL     1       1.307   2.575  22.273  0.00  0.00    +0.000 OA
ATOM     10  H   UNL     1       1.983   1.875  22.268  0.00  0.00    +0.000 HD
ENDBRANCH   4   9
BRANCH   1  11
ATOM     11  C   UNL     1       3.309   5.948  17.809  0.00  0.00    +0.000 C 
BRANCH  11  13
ATOM     12  C   UNL     1       5.423   4.662  18.266  0.00  0.00    +0.000 C 
ATOM     13  C   UNL     1       4.850   6.043  17.937  0.00  0.00    +0.000 C 
BRANCH  13  14
ATOM     14  C   UNL     1       5.476   6.601  16.645  0.00  0.00    +0.000 C 
BRANCH  14  15
ATOM     15  N   UNL     1       6.902   6.248  16.583  0.00  0.00    +0.000 NA
ATOM     16  N   UNL     1       7.294   5.806  15.488  0.00  0.00    +0.000 NA
ATOM     17  N   UNL     1       7.640   5.403  14.480  0.00  0.00    +0.000 NA
ENDBRANCH  14  15
ENDBRANCH  13  14
ENDBRANCH  11  13
ENDBRANCH   1  11
TORSDOF 5
ENDMDL
MODEL 7
REMARK VINA RESULT:      -6.8      2.253      2.910
REMARK  Name = 
REMARK  6 active torsions:
REMARK  status: ('A' for Active; 'I' for Inactive)
REMARK    1  A    between atoms: C_1  and  C_2
REMARK    2  A    between atoms: C_2  and  C_3
REMARK    3  A    between atoms: C_2  and  C_7
REMARK    4  A    between atoms: C_3  and  N_4
REMARK    5  A    between atoms: C_7  and  N_8
REMARK    6  A    between atoms: C_11  and  O_12
REMARK                            x       y       z     vdW  Elec       q    Type
REMARK                         _______ _______ _______ _____ _____    ______ ____
ROOT
ATOM      1  N   UNL     1       2.636   4.923  18.821  0.00  0.00    +0.000 N 
ATOM      2  C   UNL     1       2.217   5.332  20.154  0.00  0.00    +0.000 C 
ATOM      3  C   UNL     1       2.363   4.226  21.192  0.00  0.00    +0.000 C 
ATOM      4  C   UNL     1       1.273   3.166  21.081  0.00  0.00    +0.000 C 
ATOM      5  C   UNL     1       1.439   2.133  19.969  0.00  0.00    +0.000 C 
ATOM      6  C   UNL     1       2.075   2.575  18.666  0.00  0.00    +0.000 C 
ATOM      7  C   UNL     1       1.806   3.985  18.196  0.00  0.00    +0.000 C 
ATOM      8  O   UNL     1       1.065   4.242  17.253  0.00  0.00    +0.000 OA
ENDROOT
BRANCH   4   9
ATOM      9  O   UNL     1       1.212   2.458  22.327  0.00  0.00    +0.000 OA
ATOM     10  H   UNL     1       0.292   2.479  22.644  0.00  0.00    +0.000 HD
ENDBRANCH   4   9
BRANCH   1  11
ATOM     11  C   UNL     1       3.168   5.980  17.958  0.00  0.00    +0.000 C 
BRANCH  11  13
ATOM     12  C   UNL     1       5.112   6.791  16.582  0.00  0.00    +0.000 C 
ATOM     13  C   UNL     1       4.644   5.719  17.569  0.00  0.00    +0.000 C 
BRANCH  13  14
ATOM     14  C   UNL     1       5.546   5.695  18.818  0.00  0.00    +0.000 C 
BRANCH  14  15
ATOM     15  N   UNL     1       6.327   4.450  18.851  0.00  0.00    +0.000 NA
ATOM     16  N   UNL     1       7.237   4.370  18.006  0.00  0.00    +0.000 NA
ATOM     17  N   UNL     1       8.066   4.309  17.228  0.00  0.00    +0.000 NA
ENDBRANCH  14  15
ENDBRANCH  13  14
ENDBRANCH  11  13
ENDBRANCH   1  11
TORSDOF 5
ENDMDL
MODEL 8
REMARK VINA RESULT:      -6.7      1.458      1.759
REMARK  Name = 
REMARK  6 active torsions:
REMARK  status: ('A' for Active; 'I' for Inactive)
REMARK    1  A    between atoms: C_1  and  C_2
REMARK    2  A    between atoms: C_2  and  C_3
REMARK    3  A    between atoms: C_2  and  C_7
REMARK    4  A    between atoms: C_3  and  N_4
REMARK    5  A    between atoms: C_7  and  N_8
REMARK    6  A    between atoms: C_11  and  O_12
REMARK                            x       y       z     vdW  Elec       q    Type
REMARK                         _______ _______ _______ _____ _____    ______ ____
ROOT
ATOM      1  N   UNL     1       3.802   4.467  17.972  0.00  0.00    +0.000 N 
ATOM      2  C   UNL     1       4.525   4.162  19.199  0.00  0.00    +0.000 C 
ATOM      3  C   UNL     1       3.899   3.020  19.992  0.00  0.00    +0.000 C 
ATOM      4  C   UNL     1       2.637   3.441  20.737  0.00  0.00    +0.000 C 
ATOM      5  C   UNL     1       1.362   3.553  19.905  0.00  0.00    +0.000 C 
ATOM      6  C   UNL     1       1.477   4.024  18.470  0.00  0.00    +0.000 C 
ATOM      7  C   UNL     1       2.542   5.048  18.150  0.00  0.00    +0.000 C 
ATOM      8  O   UNL     1       2.283   6.222  17.908  0.00  0.00    +0.000 OA
ENDROOT
BRANCH   4   9
ATOM      9  O   UNL     1       2.396   2.487  21.779  0.00  0.00    +0.000 OA
ATOM     10  H   UNL     1       1.501   2.638  22.129  0.00  0.00    +0.000 HD
ENDBRANCH   4   9
BRANCH   1  11
ATOM     11  C   UNL     1       4.602   5.005  16.868  0.00  0.00    +0.000 C 
BRANCH  11  13
ATOM     12  C   UNL     1       5.811   3.793  15.025  0.00  0.00    +0.000 C 
ATOM     13  C   UNL     1       5.803   4.088  16.527  0.00  0.00    +0.000 C 
BRANCH  13  14
ATOM     14  C   UNL     1       7.131   4.735  16.964  0.00  0.00    +0.000 C 
BRANCH  14  15
ATOM     15  N   UNL     1       7.427   5.900  16.117  0.00  0.00    +0.000 NA
ATOM     16  N   UNL     1       7.583   6.973  16.726  0.00  0.00    +0.000 NA
ATOM     17  N   UNL     1       7.723   7.951  17.295  0.00  0.00    +0.000 NA
ENDBRANCH  14  15
ENDBRANCH  13  14
ENDBRANCH  11  13
ENDBRANCH   1  11
TORSDOF 5
ENDMDL
MODEL 9
REMARK VINA RESULT:      -6.7      1.621      1.689
REMARK  Name = 
REMARK  6 active torsions:
REMARK  status: ('A' for Active; 'I' for Inactive)
REMARK    1  A    between atoms: C_1  and  C_2
REMARK    2  A    between atoms: C_2  and  C_3
REMARK    3  A    between atoms: C_2  and  C_7
REMARK    4  A    between atoms: C_3  and  N_4
REMARK    5  A    between atoms: C_7  and  N_8
REMARK    6  A    between atoms: C_11  and  O_12
REMARK                            x       y       z     vdW  Elec       q    Type
REMARK                         _______ _______ _______ _____ _____    ______ ____
ROOT
ATOM      1  N   UNL     1       3.714   4.743  17.526  0.00  0.00    +0.000 N 
ATOM      2  C   UNL     1       3.905   3.309  17.364  0.00  0.00    +0.000 C 
ATOM      3  C   UNL     1       2.606   2.518  17.456  0.00  0.00    +0.000 C 
ATOM      4  C   UNL     1       2.101   2.376  18.888  0.00  0.00    +0.000 C 
ATOM      5  C   UNL     1       1.395   3.592  19.484  0.00  0.00    +0.000 C 
ATOM      6  C   UNL     1       1.873   4.972  19.079  0.00  0.00    +0.000 C 
ATOM      7  C   UNL     1       3.349   5.154  18.813  0.00  0.00    +0.000 C 
ATOM      8  O   UNL     1       4.093   5.754  19.582  0.00  0.00    +0.000 OA
ENDROOT
BRANCH   4   9
ATOM      9  O   UNL     1       1.184   1.276  18.929  0.00  0.00    +0.000 OA
ATOM     10  H   UNL     1       0.417   1.539  19.468  0.00  0.00    +0.000 HD
ENDBRANCH   4   9
BRANCH   1  11
ATOM     11  C   UNL     1       4.670   5.606  16.828  0.00  0.00    +0.000 C 
BRANCH  11  13
ATOM     12  C   UNL     1       5.809   4.886  14.703  0.00  0.00    +0.000 C 
ATOM     13  C   UNL     1       5.847   4.796  16.231  0.00  0.00    +0.000 C 
BRANCH  13  14
ATOM     14  C   UNL     1       7.196   5.304  16.774  0.00  0.00    +0.000 C 
BRANCH  14  15
ATOM     15  N   UNL     1       7.650   4.445  17.878  0.00  0.00    +0.000 NA
ATOM     16  N   UNL     1       7.587   4.958  19.010  0.00  0.00    +0.000 NA
ATOM     17  N   UNL     1       7.526   5.439  20.041  0.00  0.00    +0.000 NA
ENDBRANCH  14  15
ENDBRANCH  13  14
ENDBRANCH  11  13
ENDBRANCH   1  11
TORSDOF 5
ENDMDL
